REMARK  Name = ZINC36601444
REMARK  12 active torsions:
REMARK  status: ('A' for Active; 'I' for Inactive)
REMARK    1  A    between atoms: C_1  and  C_2
REMARK    2  A    between atoms: C_2  and  C_3
REMARK    3  A    between atoms: C_3  and  C_4
REMARK    4  A    between atoms: C_4  and  N_5
REMARK    5  A    between atoms: C_6  and  C_8
REMARK    6  A    between atoms: C_8  and  C_10
REMARK    7  A    between atoms: C_8  and  N_18
REMARK    8  A    between atoms: N_18  and  C_19
REMARK    9  A    between atoms: C_19  and  C_20
REMARK   10  A    between atoms: C_23  and  C_25
REMARK   11  A    between atoms: C_26  and  C_28
REMARK   12  A    between atoms: C_32  and  N_34
REMARK                            x       y       z     vdW  Elec       q    Type
REMARK                         _______ _______ _______ _____ _____    ______ ____
ROOT
ATOM      1  N   UNL     1       2.475  -5.589  -3.899  0.00  0.00    -0.275 N 
ATOM      2  C   UNL     1       1.196  -5.681  -4.313  0.00  0.00    +0.248 C 
ATOM      3  O   UNL     1       0.392  -6.320  -3.664  0.00  0.00    -0.270 OA
ENDROOT
BRANCH   2   4
ATOM      4  C   UNL     1       0.772  -5.005  -5.558  0.00  0.00    +0.039 A 
ATOM      5  C   UNL     1       1.700  -4.295  -6.321  0.00  0.00    +0.013 A 
ATOM      6  C   UNL     1       1.297  -3.666  -7.481  0.00  0.00    +0.003 A 
ATOM      7  C   UNL     1      -0.023  -3.738  -7.888  0.00  0.00    +0.033 A 
ATOM      8  C   UNL     1      -0.948  -4.439  -7.136  0.00  0.00    +0.127 A 
ATOM      9  C   UNL     1      -0.557  -5.078  -5.977  0.00  0.00    +0.045 A 
BRANCH   8  10
ATOM     10  N   UNL     1      -2.359  -4.511  -7.579  0.00  0.00    +0.056 N 
ATOM     11  O   UNL     1      -2.702  -3.956  -8.597  0.00  0.00    -0.126 OA
ATOM     12  O   UNL     1      -3.168  -5.123  -6.922  0.00  0.00    -0.126 OA
ENDBRANCH   8  10
ENDBRANCH   2   4
BRANCH   1  13
ATOM     13  C   UNL     1       3.300  -4.451  -4.314  0.00  0.00    +0.196 C 
BRANCH  13  14
ATOM     14  C   UNL     1       4.351  -4.184  -3.268  0.00  0.00    +0.018 A 
ATOM     15  C   UNL     1       4.063  -4.387  -1.930  0.00  0.00    +0.048 A 
ATOM     16  C   UNL     1       5.029  -4.142  -0.970  0.00  0.00    +0.020 A 
ATOM     17  C   UNL     1       6.281  -3.694  -1.348  0.00  0.00    +0.003 A 
ATOM     18  C   UNL     1       6.569  -3.491  -2.684  0.00  0.00    +0.020 A 
ATOM     19  C   UNL     1       5.606  -3.742  -3.646  0.00  0.00    +0.048 A 
ATOM     20 CL   UNL     1       5.971  -3.494  -5.325  0.00  0.00    -0.083 Cl
ATOM     21 CL   UNL     1       2.491  -4.949  -1.456  0.00  0.00    -0.083 Cl
ENDBRANCH  13  14
BRANCH  13  23
ATOM     22  N   UNL     1       2.865  -2.183  -5.199  0.00  0.00    -0.313 N 
ATOM     23  C   UNL     1       2.429  -3.231  -4.474  0.00  0.00    +0.238 C 
ATOM     24  O   UNL     1       1.336  -3.194  -3.949  0.00  0.00    -0.273 OA
ATOM     25  H   UNL     1       3.739  -2.213  -5.619  0.00  0.00    +0.149 HD
BRANCH  22  26
ATOM     26  C   UNL     1       2.018  -0.997  -5.355  0.00  0.00    +0.104 C 
BRANCH  26  27
ATOM     27  C   UNL     1       2.743   0.038  -6.217  0.00  0.00    +0.018 C 
BRANCH  27  29
ATOM     28  C   UNL     1       2.584   2.311  -7.242  0.00  0.00    +0.004 C 
ATOM     29  C   UNL     1       1.859   1.276  -6.379  0.00  0.00    -0.002 C 
ENDBRANCH  27  29
ENDBRANCH  26  27
ENDBRANCH  22  26
ENDBRANCH  13  23
ENDBRANCH   1  13
BRANCH   1  30
ATOM     30  C   UNL     1       3.041  -6.626  -3.033  0.00  0.00    +0.183 C 
BRANCH  30  31
ATOM     31  C   UNL     1       3.979  -7.492  -3.834  0.00  0.00    +0.122 A 
ATOM     32  C   UNL     1       5.304  -7.302  -3.968  0.00  0.00    +0.046 A 
ATOM     33  C   UNL     1       5.785  -8.341  -4.798  0.00  0.00    +0.045 A 
ATOM     34  C   UNL     1       4.725  -9.103  -5.122  0.00  0.00    +0.102 A 
ATOM     35  O   UNL     1       3.635  -8.588  -4.530  0.00  0.00    -0.463 OA
ATOM     36  C   UNL     1       4.757 -10.331  -5.995  0.00  0.00    +0.086 C 
ENDBRANCH  30  31
ENDBRANCH   1  30
TORSDOF 10
