REMARK  Name = ZINC65192109
REMARK  5 active torsions:
REMARK  status: ('A' for Active; 'I' for Inactive)
REMARK    1  A    between atoms: C_1  and  C_2
REMARK    2  A    between atoms: C_11  and  C_15
REMARK    3  A    between atoms: N_17  and  N_18
REMARK    4  A    between atoms: N_21  and  C_22
REMARK    5  A    between atoms: C_22  and  C_23
REMARK                            x       y       z     vdW  Elec       q    Type
REMARK                         _______ _______ _______ _____ _____    ______ ____
ROOT
ATOM      1  C   UNL     1      -0.019   1.526   0.010  0.00  0.00    +0.008 C 
ATOM      2  C   UNL     1       0.002  -0.004   0.002  0.00  0.00    -0.009 C 
ATOM      3  C   UNL     1      -1.434  -0.535   0.017  0.00  0.00    +0.009 C 
ATOM      4  C   UNL     1      -1.422  -2.045  -0.242  0.00  0.00    +0.054 C 
ATOM      5  C   UNL     1      -0.426  -2.687   0.695  0.00  0.00    +0.020 A 
ATOM      6  C   UNL     1       0.533  -2.001   1.353  0.00  0.00    -0.019 A 
ATOM      7  C   UNL     1       1.275  -2.963   2.143  0.00  0.00    +0.004 A 
ATOM      8  C   UNL     1       2.362  -2.838   3.013  0.00  0.00    +0.010 A 
ATOM      9  C   UNL     1       2.826  -3.997   3.614  0.00  0.00    +0.001 A 
ATOM     10  C   UNL     1       2.252  -5.229   3.375  0.00  0.00    +0.015 A 
ATOM     11  C   UNL     1       1.164  -5.386   2.509  0.00  0.00    +0.062 A 
ATOM     12  C   UNL     1       0.675  -4.222   1.888  0.00  0.00    +0.059 A 
ATOM     13  N   UNL     1      -0.344  -4.018   1.012  0.00  0.00    -0.357 N 
ATOM     14  H   UNL     1      -0.926  -4.711   0.663  0.00  0.00    +0.166 HD
ATOM     15  C   UNL     1       0.744  -0.513   1.244  0.00  0.00    +0.040 C 
ENDROOT
BRANCH  11  16
ATOM     16  C   UNL     1       0.558  -6.708   2.261  0.00  0.00    +0.262 C 
ATOM     17  O   UNL     1      -0.387  -6.811   1.503  0.00  0.00    -0.269 OA
ATOM     18  N   UNL     1       1.052  -7.802   2.874  0.00  0.00    -0.229 N 
ATOM     19  H   UNL     1       1.806  -7.720   3.478  0.00  0.00    +0.173 HD
BRANCH  18  20
ATOM     20  N   UNL     1       0.477  -9.057   2.638  0.00  0.00    -0.218 N 
ATOM     21  C   UNL     1       0.971 -10.151   3.251  0.00  0.00    +0.316 C 
ATOM     22  O   UNL     1       0.472 -11.241   3.046  0.00  0.00    -0.251 OA
ATOM     23  N   UNL     1       2.018 -10.037   4.091  0.00  0.00    -0.298 N 
ATOM     24  H   UNL     1      -0.277  -9.139   2.033  0.00  0.00    +0.174 HD
ATOM     25  H   UNL     1       2.417  -9.168   4.254  0.00  0.00    +0.150 HD
BRANCH  23  26
ATOM     26  C   UNL     1       2.556 -11.226   4.757  0.00  0.00    +0.109 C 
BRANCH  26  27
ATOM     27  C   UNL     1       3.732 -10.824   5.649  0.00  0.00    +0.006 C 
ATOM     28  C   UNL     1       5.110 -11.388   5.298  0.00  0.00    +0.005 C 
ATOM     29  C   UNL     1       4.359 -11.910   6.524  0.00  0.00    +0.005 C 
ENDBRANCH  26  27
ENDBRANCH  23  26
ENDBRANCH  18  20
ENDBRANCH  11  16
TORSDOF 4
