REMARK  Name = ZINC13124498
REMARK  5 active torsions:
REMARK  status: ('A' for Active; 'I' for Inactive)
REMARK    1  A    between atoms: C_3  and  C_8
REMARK    2  A    between atoms: C_8  and  N_9
REMARK    3  A    between atoms: C_10  and  C_12
REMARK    4  A    between atoms: C_18  and  C_27
REMARK    5  A    between atoms: C_21  and  C_23
REMARK                            x       y       z     vdW  Elec       q    Type
REMARK                         _______ _______ _______ _____ _____    ______ ____
ROOT
ATOM      1  C   UNL     1       5.678   3.348   2.977  0.00  0.00    +0.096 A 
ATOM      2  C   UNL     1       5.013   2.931   4.158  0.00  0.00    +0.149 A 
ATOM      3  N   UNL     1       5.710   3.337   5.185  0.00  0.00    -0.177 NA
ATOM      4  N   UNL     1       6.836   4.022   4.732  0.00  0.00    -0.238 N 
ATOM      5  C   UNL     1       6.816   4.022   3.378  0.00  0.00    +0.130 A 
ATOM      6  N   UNL     1       7.799   4.622   2.611  0.00  0.00    -0.319 N 
ATOM      7  C   UNL     1       8.735   5.510   3.328  0.00  0.00    +0.140 C 
ATOM      8  C   UNL     1       9.137   4.831   4.643  0.00  0.00    +0.066 C 
ATOM      9  C   UNL     1       7.897   4.648   5.529  0.00  0.00    +0.215 C 
ATOM     10  H   UNL     1       7.870   4.467   1.656  0.00  0.00    +0.148 HD
ENDROOT
BRANCH   7  11
ATOM     11  C   UNL     1       8.062   6.826   3.619  0.00  0.00    +0.125 A 
ATOM     12  C   UNL     1       8.634   8.040   3.527  0.00  0.00    +0.046 A 
ATOM     13  C   UNL     1       7.648   8.987   3.887  0.00  0.00    +0.041 A 
ATOM     14  C   UNL     1       6.532   8.295   4.178  0.00  0.00    +0.195 A 
ATOM     15  O   UNL     1       6.786   6.987   4.008  0.00  0.00    -0.466 OA
ENDBRANCH   7  11
BRANCH   1  17
ATOM     16  N   UNL     1       4.104   2.427   1.357  0.00  0.00    -0.307 N 
ATOM     17  C   UNL     1       5.245   3.104   1.596  0.00  0.00    +0.249 C 
ATOM     18  O   UNL     1       5.915   3.515   0.667  0.00  0.00    -0.270 OA
ATOM     19  H   UNL     1       3.570   2.100   2.098  0.00  0.00    +0.149 HD
BRANCH  16  20
ATOM     20  C   UNL     1       3.672   2.184  -0.021  0.00  0.00    +0.140 C 
BRANCH  20  23
ATOM     21  C   UNL     1      -0.017   1.378   0.010  0.00  0.00    +0.002 A 
ATOM     22  C   UNL     1       1.171   2.086   0.002  0.00  0.00    +0.005 A 
ATOM     23  C   UNL     1       2.378   1.412  -0.013  0.00  0.00    -0.029 A 
ATOM     24  C   UNL     1       2.398   0.029  -0.021  0.00  0.00    +0.025 A 
ATOM     25  C   UNL     1       1.210  -0.679  -0.013  0.00  0.00    +0.041 A 
ATOM     26  C   UNL     1       0.002  -0.004   0.002  0.00  0.00    +0.020 A 
ATOM     27 CL   UNL     1       1.234  -2.415  -0.024  0.00  0.00    -0.084 Cl
ENDBRANCH  20  23
ENDBRANCH  16  20
ENDBRANCH   1  17
BRANCH   9  28
ATOM     28  C   UNL     1       8.254   3.742   6.709  0.00  0.00    +0.412 C 
ATOM     29  F   UNL     1       8.700   2.506   6.230  0.00  0.00    -0.168 F 
ATOM     30  F   UNL     1       9.265   4.341   7.467  0.00  0.00    -0.168 F 
ATOM     31  F   UNL     1       7.122   3.551   7.509  0.00  0.00    -0.168 F 
ENDBRANCH   9  28
TORSDOF 5
