REMARK  Name = ZINC01332051
REMARK  7 active torsions:
REMARK  status: ('A' for Active; 'I' for Inactive)
REMARK    1  A    between atoms: C_1  and  C_2
REMARK    2  A    between atoms: C_5  and  C_8
REMARK    3  A    between atoms: C_12  and  C_25
REMARK    4  A    between atoms: C_13  and  C_24
REMARK    5  A    between atoms: C_14  and  N_17
REMARK    6  A    between atoms: N_17  and  C_18
REMARK    7  A    between atoms: C_18  and  C_19
REMARK                            x       y       z     vdW  Elec       q    Type
REMARK                         _______ _______ _______ _____ _____    ______ ____
ROOT
ATOM      1  C   UNL     1       0.002  -0.004   0.002  0.00  0.00    +0.095 A 
ATOM      2  C   UNL     1       1.333  -0.433  -0.013  0.00  0.00    +0.078 A 
ATOM      3  C   UNL     1       2.137   0.696  -0.015  0.00  0.00    +0.158 A 
ATOM      4  N   UNL     1       3.469   0.857  -0.027  0.00  0.00    -0.233 NA
ATOM      5  C   UNL     1       4.006   2.057  -0.026  0.00  0.00    +0.047 A 
ATOM      6  C   UNL     1       3.196   3.193  -0.012  0.00  0.00    +0.010 A 
ATOM      7  C   UNL     1       1.835   3.047   0.001  0.00  0.00    +0.127 A 
ATOM      8  N   UNL     1       1.303   1.785  -0.001  0.00  0.00    -0.200 N 
ATOM      9  N   UNL     1      -0.016   1.317   0.009  0.00  0.00    -0.163 NA
ATOM     10  C   UNL     1       3.813   4.567  -0.011  0.00  0.00    +0.049 C 
ATOM     11  C   UNL     1       5.505   2.207  -0.040  0.00  0.00    +0.066 C 
ENDROOT
BRANCH   1  16
ATOM     12  C   UNL     1      -4.631  -3.426   0.031  0.00  0.00    +0.044 C 
ATOM     13  C   UNL     1      -3.419  -2.531   0.024  0.00  0.00    -0.050 A 
ATOM     14  C   UNL     1      -3.577  -1.157   0.032  0.00  0.00    +0.004 A 
ATOM     15  C   UNL     1      -2.470  -0.332   0.025  0.00  0.00    +0.010 A 
ATOM     16  C   UNL     1      -1.192  -0.886   0.009  0.00  0.00    +0.002 A 
ATOM     17  C   UNL     1      -1.038  -2.271  -0.005  0.00  0.00    +0.010 A 
ATOM     18  C   UNL     1      -2.152  -3.086   0.008  0.00  0.00    +0.004 A 
ENDBRANCH   1  16
BRANCH   7  19
ATOM     19  N   UNL     1       1.013   4.153   0.015  0.00  0.00    -0.324 N 
ATOM     20  H   UNL     1       1.212   4.761  -0.766  0.00  0.00    +0.148 HD
BRANCH  19  21
ATOM     21  C   UNL     1      -0.402   3.757   0.026  0.00  0.00    +0.145 C 
BRANCH  21  22
ATOM     22  C   UNL     1      -1.268   4.990   0.041  0.00  0.00    +0.007 A 
ATOM     23  C   UNL     1      -1.770   5.694  -1.003  0.00  0.00    +0.013 A 
ATOM     24  C   UNL     1      -2.550   6.806  -0.749  0.00  0.00    +0.008 A 
ATOM     25  C   UNL     1      -2.792   7.160   0.537  0.00  0.00    +0.045 A 
ATOM     26  S   UNL     1      -1.908   5.898   1.439  0.00  0.00    -0.100 S 
ENDBRANCH  21  22
ENDBRANCH  19  21
ENDBRANCH   7  19
TORSDOF 4
