REMARK  Name = ZINC39675759
REMARK  9 active torsions:
REMARK  status: ('A' for Active; 'I' for Inactive)
REMARK    1  A    between atoms: C_1  and  C_2
REMARK    2  A    between atoms: C_5  and  C_10
REMARK    3  A    between atoms: C_14  and  C_23
REMARK    4  A    between atoms: N_25  and  C_26
REMARK    5  A    between atoms: C_26  and  C_27
REMARK    6  A    between atoms: C_27  and  C_29
REMARK    7  A    between atoms: C_27  and  N_35
REMARK    8  A    between atoms: N_35  and  C_36
REMARK    9  A    between atoms: N_35  and  C_37
REMARK                            x       y       z     vdW  Elec       q    Type
REMARK                         _______ _______ _______ _____ _____    ______ ____
ROOT
ATOM      1  C   UNL     1      -0.462  -6.260  -0.796  0.00  0.00    +0.250 C 
ATOM      2  O   UNL     1      -0.400  -7.137   0.044  0.00  0.00    -0.270 OA
ATOM      3  N   UNL     1      -0.414  -6.577  -2.105  0.00  0.00    -0.296 N 
ATOM      4  C   UNL     1      -0.372  -5.652  -3.262  0.00  0.00    +0.121 C 
ATOM      5  C   UNL     1       0.613  -6.311  -4.254  0.00  0.00    +0.100 C 
ATOM      6  C   UNL     1       0.595  -7.805  -3.889  0.00  0.00    -0.004 C 
ATOM      7  C   UNL     1      -0.383  -7.929  -2.713  0.00  0.00    +0.115 C 
ATOM      8  C   UNL     1       1.987  -8.260  -3.461  0.00  0.00    -0.010 C 
ATOM      9  C   UNL     1       1.957  -9.761  -3.158  0.00  0.00    -0.082 C 
ATOM     10  N   UNL     1       1.527 -10.495  -4.355  0.00  0.00    +0.379 N 
ATOM     11  C   UNL     1       0.152 -10.118  -4.707  0.00  0.00    -0.082 C 
ATOM     12  C   UNL     1       0.106  -8.632  -5.074  0.00  0.00    -0.010 C 
ATOM     13  H   UNL     1       2.142 -10.272  -5.123  0.00  0.00    -0.086 HD
ATOM     14  H   UNL     1       1.566 -11.486  -4.173  0.00  0.00    -0.086 HD
ENDROOT
BRANCH   1  19
ATOM     15  C   UNL     1      -0.969  -0.757   0.814  0.00  0.00    +0.047 C 
ATOM     16  C   UNL     1      -0.835  -2.198   0.394  0.00  0.00    -0.012 A 
ATOM     17  C   UNL     1      -1.460  -2.641  -0.759  0.00  0.00    +0.007 A 
ATOM     18  C   UNL     1      -1.343  -3.957  -1.150  0.00  0.00    +0.016 A 
ATOM     19  C   UNL     1      -0.591  -4.848  -0.382  0.00  0.00    +0.075 A 
ATOM     20  C   UNL     1       0.040  -4.398   0.782  0.00  0.00    +0.171 A 
ATOM     21  C   UNL     1      -0.082  -3.071   1.160  0.00  0.00    +0.162 A 
ATOM     22  F   UNL     1       0.529  -2.630   2.281  0.00  0.00    -0.202 F 
ATOM     23  F   UNL     1       0.769  -5.253   1.532  0.00  0.00    -0.202 F 
ENDBRANCH   1  19
BRANCH   5  24
ATOM     24  C   UNL     1       1.996  -5.741  -4.076  0.00  0.00    +0.218 C 
ATOM     25  O   UNL     1       2.349  -5.333  -2.989  0.00  0.00    -0.275 OA
ATOM     26  N   UNL     1       2.842  -5.684  -5.124  0.00  0.00    -0.316 N 
ATOM     27  H   UNL     1       2.560  -6.010  -5.993  0.00  0.00    +0.149 HD
BRANCH  26  28
ATOM     28  C   UNL     1       4.187  -5.130  -4.951  0.00  0.00    +0.093 C 
BRANCH  28  29
ATOM     29  C   UNL     1       4.954  -5.233  -6.270  0.00  0.00    -0.021 C 
BRANCH  29  30
ATOM     30  C   UNL     1       4.284  -4.372  -7.310  0.00  0.00    -0.059 A 
ATOM     31  C   UNL     1       4.511  -3.009  -7.329  0.00  0.00    +0.002 A 
ATOM     32  C   UNL     1       3.896  -2.219  -8.283  0.00  0.00    +0.000 A 
ATOM     33  C   UNL     1       3.054  -2.793  -9.217  0.00  0.00    +0.000 A 
ATOM     34  C   UNL     1       2.827  -4.156  -9.197  0.00  0.00    +0.000 A 
ATOM     35  C   UNL     1       3.446  -4.947  -8.247  0.00  0.00    +0.002 A 
ENDBRANCH  29  30
BRANCH  29  36
ATOM     36  N   UNL     1       6.335  -4.773  -6.071  0.00  0.00    +0.382 N 
ATOM     37  C   UNL     1       6.982  -5.598  -5.042  0.00  0.00    -0.096 C 
ATOM     38  C   UNL     1       7.078  -4.892  -7.332  0.00  0.00    -0.096 C 
ATOM     39  H   UNL     1       6.329  -3.809  -5.774  0.00  0.00    -0.082 HD
ENDBRANCH  29  36
ENDBRANCH  28  29
ENDBRANCH  26  28
ENDBRANCH   5  24
TORSDOF 6
