REMARK  Name = ZINC20395611
REMARK  9 active torsions:
REMARK  status: ('A' for Active; 'I' for Inactive)
REMARK    1  A    between atoms: C_1  and  C_2
REMARK    2  A    between atoms: C_5  and  N_26
REMARK    3  A    between atoms: C_7  and  N_8
REMARK    4  A    between atoms: C_9  and  C_11
REMARK    5  A    between atoms: C_12  and  N_13
REMARK    6  A    between atoms: C_12  and  C_25
REMARK    7  A    between atoms: N_13  and  N_14
REMARK    8  A    between atoms: C_15  and  C_17
REMARK    9  A    between atoms: C_17  and  C_18
REMARK                            x       y       z     vdW  Elec       q    Type
REMARK                         _______ _______ _______ _____ _____    ______ ____
ROOT
ATOM      1  C   UNL     1      -0.021   1.073   0.008  0.00  0.00    +0.087 C 
ATOM      2  C   UNL     1      -0.727   1.558   1.248  0.00  0.00    +0.024 C 
ATOM      3  C   UNL     1      -1.959   2.416   1.127  0.00  0.00    +0.062 C 
ENDROOT
BRANCH   1   5
ATOM      4  N   UNL     1      -0.288   1.272  -2.443  0.00  0.00    -0.282 N 
ATOM      5  C   UNL     1      -0.743   1.582  -1.213  0.00  0.00    +0.243 C 
ATOM      6  O   UNL     1      -1.734   2.271  -1.088  0.00  0.00    -0.270 OA
ATOM      7  H   UNL     1       0.659   0.725  -2.558  0.00  0.00    +0.155 HD
BRANCH   4  14
ATOM      8  C   UNL     1       1.104   1.579  -4.905  0.00  0.00    +0.045 C 
ATOM      9  C   UNL     1      -0.382   1.807  -4.796  0.00  0.00    -0.029 A 
ATOM     10  C   UNL     1      -1.108   2.176  -5.912  0.00  0.00    +0.007 A 
ATOM     11  C   UNL     1      -2.471   2.385  -5.813  0.00  0.00    +0.033 A 
ATOM     12  C   UNL     1      -3.112   2.226  -4.597  0.00  0.00    +0.128 A 
ATOM     13  C   UNL     1      -2.392   1.853  -3.479  0.00  0.00    +0.056 A 
ATOM     14  C   UNL     1      -1.022   1.646  -3.575  0.00  0.00    +0.039 A 
BRANCH  12  15
ATOM     15  N   UNL     1      -4.571   2.450  -4.495  0.00  0.00    +0.056 N 
ATOM     16  O   UNL     1      -5.208   2.775  -5.482  0.00  0.00    -0.126 OA
ATOM     17  O   UNL     1      -5.136   2.310  -3.425  0.00  0.00    -0.126 OA
ENDBRANCH  12  15
ENDBRANCH   4  14
ENDBRANCH   1   5
BRANCH   2  18
ATOM     18  N   UNL     1      -0.279   1.240   2.405  0.00  0.00    -0.269 N 
ATOM     19  H   UNL     1       0.620   0.614   2.493  0.00  0.00    +0.170 HD
BRANCH  18  20
ATOM     20  N   UNL     1      -0.936   1.691   3.557  0.00  0.00    -0.237 N 
ATOM     21  C   UNL     1      -0.465   1.357   4.775  0.00  0.00    +0.233 C 
ATOM     22  O   UNL     1       0.528   0.666   4.873  0.00  0.00    -0.274 OA
ATOM     23  H   UNL     1      -1.835   2.317   3.469  0.00  0.00    +0.173 HD
BRANCH  21  24
ATOM     24  C   UNL     1      -1.171   1.841   6.015  0.00  0.00    +0.132 C 
BRANCH  24  25
ATOM     25  C   UNL     1      -0.448   1.332   7.236  0.00  0.00    -0.038 A 
ATOM     26  C   UNL     1      -0.805   0.119   7.794  0.00  0.00    +0.005 A 
ATOM     27  C   UNL     1      -0.139  -0.351   8.910  0.00  0.00    +0.020 A 
ATOM     28  C   UNL     1       0.877   0.398   9.476  0.00  0.00    +0.041 A 
ATOM     29  C   UNL     1       1.230   1.615   8.920  0.00  0.00    +0.020 A 
ATOM     30  C   UNL     1       0.567   2.082   7.801  0.00  0.00    +0.005 A 
ATOM     31 CL   UNL     1       1.710  -0.189  10.882  0.00  0.00    -0.084 Cl
ENDBRANCH  24  25
ENDBRANCH  21  24
ENDBRANCH  18  20
ENDBRANCH   2  18
TORSDOF 7
