REMARK  Name = ZINC12323746
REMARK  7 active torsions:
REMARK  status: ('A' for Active; 'I' for Inactive)
REMARK    1  A    between atoms: C_1  and  O_2
REMARK    2  A    between atoms: O_2  and  C_3
REMARK    3  A    between atoms: C_6  and  C_9
REMARK    4  A    between atoms: N_17  and  C_26
REMARK    5  A    between atoms: C_18  and  C_20
REMARK    6  A    between atoms: C_26  and  C_27
REMARK    7  A    between atoms: C_27  and  C_28
REMARK                            x       y       z     vdW  Elec       q    Type
REMARK                         _______ _______ _______ _____ _____    ______ ____
ROOT
ATOM      1  C   UNL     1       2.774  -2.659   4.359  0.00  0.00    +0.099 A 
ATOM      2  C   UNL     1       2.233  -3.782   4.994  0.00  0.00    +0.036 A 
ATOM      3  C   UNL     1       3.107  -4.094   6.017  0.00  0.00    +0.126 A 
ATOM      4  N   UNL     1       4.110  -3.168   5.954  0.00  0.00    -0.272 N 
ATOM      5  H   UNL     1       4.874  -3.133   6.551  0.00  0.00    +0.189 HD
ATOM      6  N   UNL     1       3.895  -2.355   4.983  0.00  0.00    -0.173 NA
ATOM      7  C   UNL     1       2.595  -5.271   6.726  0.00  0.00    +0.266 C 
ATOM      8  O   UNL     1       3.135  -5.797   7.680  0.00  0.00    -0.268 OA
ATOM      9  N   UNL     1       1.441  -5.686   6.172  0.00  0.00    -0.283 N 
ATOM     10  C   UNL     1       1.122  -4.794   5.050  0.00  0.00    +0.160 C 
ENDROOT
BRANCH   1  14
ATOM     11  C   UNL     1       1.116  -0.611   1.018  0.00  0.00    +0.120 A 
ATOM     12  C   UNL     1       0.287  -1.057   2.039  0.00  0.00    +0.046 A 
ATOM     13  C   UNL     1       0.822  -1.721   3.123  0.00  0.00    +0.013 A 
ATOM     14  C   UNL     1       2.195  -1.945   3.193  0.00  0.00    +0.003 A 
ATOM     15  C   UNL     1       3.025  -1.496   2.167  0.00  0.00    +0.013 A 
ATOM     16  C   UNL     1       2.484  -0.837   1.083  0.00  0.00    +0.046 A 
BRANCH  11  18
ATOM     17  C   UNL     1      -0.829   0.241  -0.051  0.00  0.00    +0.277 C 
ATOM     18  O   UNL     1       0.587   0.043  -0.049  0.00  0.00    -0.495 OA
ENDBRANCH  11  18
ENDBRANCH   1  14
BRANCH  10  19
ATOM     19  C   UNL     1       1.068  -5.578   3.764  0.00  0.00    +0.066 A 
ATOM     20  C   UNL     1       0.348  -5.084   2.693  0.00  0.00    +0.025 A 
ATOM     21  C   UNL     1       0.305  -5.813   1.514  0.00  0.00    +0.003 A 
ATOM     22  C   UNL     1       0.991  -7.017   1.457  0.00  0.00    +0.020 A 
ATOM     23  C   UNL     1       1.690  -7.447   2.569  0.00  0.00    +0.111 A 
ATOM     24  N   UNL     1       1.713  -6.724   3.672  0.00  0.00    -0.258 NA
ENDBRANCH  10  19
BRANCH   9  25
ATOM     25  C   UNL     1       0.641  -6.832   6.613  0.00  0.00    +0.114 C 
BRANCH  25  26
ATOM     26  C   UNL     1      -0.376  -6.371   7.659  0.00  0.00    +0.056 C 
BRANCH  26  27
ATOM     27  C   UNL     1      -1.200  -7.549   8.112  0.00  0.00    -0.021 A 
ATOM     28  C   UNL     1      -2.394  -7.922   7.627  0.00  0.00    +0.087 A 
ATOM     29  N   UNL     1      -2.836  -9.038   8.284  0.00  0.00    -0.360 N 
ATOM     30  H   UNL     1      -3.675  -9.493   8.107  0.00  0.00    +0.165 HD
ATOM     31  C   UNL     1      -1.914  -9.419   9.232  0.00  0.00    +0.047 A 
ATOM     32  C   UNL     1      -0.846  -8.507   9.162  0.00  0.00    +0.003 A 
ATOM     33  C   UNL     1       0.251  -8.651  10.015  0.00  0.00    +0.010 A 
ATOM     34  C   UNL     1       0.281  -9.681  10.912  0.00  0.00    +0.001 A 
ATOM     35  C   UNL     1      -0.768 -10.587  10.982  0.00  0.00    +0.002 A 
ATOM     36  C   UNL     1      -1.864 -10.457  10.156  0.00  0.00    +0.026 A 
ENDBRANCH  26  27
ENDBRANCH  25  26
ENDBRANCH   9  25
TORSDOF 6
