REMARK  Name = ZINC39228751
REMARK  6 active torsions:
REMARK  status: ('A' for Active; 'I' for Inactive)
REMARK    1  A    between atoms: C_1  and  O_2
REMARK    2  A    between atoms: O_2  and  C_3
REMARK    3  A    between atoms: C_7  and  C_9
REMARK    4  A    between atoms: N_23  and  C_24
REMARK    5  A    between atoms: C_24  and  C_25
REMARK    6  A    between atoms: C_28  and  C_31
REMARK                            x       y       z     vdW  Elec       q    Type
REMARK                         _______ _______ _______ _____ _____    ______ ____
ROOT
ATOM      1  C   UNL     1       1.325  -4.106  -2.289  0.00  0.00    +0.011 C 
ATOM      2  C   UNL     1       0.178  -4.610  -3.131  0.00  0.00    +0.011 A 
ATOM      3  H   UNL     1      -1.487  -4.520  -1.881  0.00  0.00    +0.166 HD
ATOM      4  C   UNL     1       0.328  -5.006  -4.416  0.00  0.00    -0.022 A 
ATOM      5  C   UNL     1      -0.973  -5.422  -4.890  0.00  0.00    +0.003 A 
ATOM      6  C   UNL     1      -1.424  -5.919  -6.116  0.00  0.00    +0.010 A 
ATOM      7  C   UNL     1      -2.761  -6.215  -6.213  0.00  0.00    +0.001 A 
ATOM      8  C   UNL     1      -3.633  -6.034  -5.153  0.00  0.00    +0.002 A 
ATOM      9  C   UNL     1      -3.215  -5.544  -3.927  0.00  0.00    +0.026 A 
ATOM     10  C   UNL     1      -1.863  -5.234  -3.800  0.00  0.00    +0.047 A 
ATOM     11  N   UNL     1      -1.131  -4.742  -2.756  0.00  0.00    -0.359 N 
ATOM     12  C   UNL     1       1.650  -4.980  -5.139  0.00  0.00    +0.019 C 
ATOM     13  C   UNL     1       2.613  -4.101  -4.327  0.00  0.00    -0.072 C 
ATOM     14  N   UNL     1       2.590  -4.520  -2.915  0.00  0.00    +0.391 N 
ATOM     15  H   UNL     1       2.676  -5.524  -2.863  0.00  0.00    -0.080 HD
ENDROOT
BRANCH   1  20
ATOM     16  C   UNL     1       0.907  -0.476  -3.254  0.00  0.00    +0.120 A 
ATOM     17  C   UNL     1       1.172   0.160  -2.049  0.00  0.00    +0.045 A 
ATOM     18  C   UNL     1       1.484  -0.586  -0.930  0.00  0.00    +0.004 A 
ATOM     19  C   UNL     1       1.534  -1.966  -1.008  0.00  0.00    +0.002 A 
ATOM     20  C   UNL     1       1.271  -2.602  -2.207  0.00  0.00    -0.052 A 
ATOM     21  C   UNL     1       0.952  -1.861  -3.328  0.00  0.00    +0.048 A 
BRANCH  16  23
ATOM     22  C   UNL     1       0.572   1.676  -4.206  0.00  0.00    +0.277 C 
ATOM     23  O   UNL     1       0.599   0.255  -4.357  0.00  0.00    -0.495 OA
ENDBRANCH  16  23
ENDBRANCH   1  20
BRANCH  14  24
ATOM     24  C   UNL     1       3.714  -3.901  -2.200  0.00  0.00    -0.042 C 
BRANCH  24  25
ATOM     25  C   UNL     1       5.013  -4.419  -2.761  0.00  0.00    -0.064 A 
ATOM     26  C   UNL     1       5.591  -5.555  -2.224  0.00  0.00    +0.002 A 
ATOM     27  C   UNL     1       6.781  -6.034  -2.734  0.00  0.00    +0.010 A 
ATOM     28  C   UNL     1       7.400  -5.371  -3.791  0.00  0.00    +0.003 A 
ATOM     29  C   UNL     1       6.813  -4.227  -4.329  0.00  0.00    +0.010 A 
ATOM     30  C   UNL     1       5.620  -3.760  -3.815  0.00  0.00    +0.002 A 
BRANCH  28  31
ATOM     31  C   UNL     1       8.680  -5.881  -4.343  0.00  0.00    +0.102 A 
ATOM     32  C   UNL     1       9.335  -5.269  -5.378  0.00  0.00    +0.097 A 
ATOM     33  S   UNL     1      10.681  -6.255  -5.570  0.00  0.00    +0.029 S 
ATOM     34  N   UNL     1      10.388  -7.341  -4.408  0.00  0.00    -0.110 NA
ATOM     35  N   UNL     1       9.281  -6.962  -3.871  0.00  0.00    -0.141 NA
ENDBRANCH  28  31
ENDBRANCH  24  25
ENDBRANCH  14  24
TORSDOF 5
