REMARK  Name = ZINC39560673
REMARK  7 active torsions:
REMARK  status: ('A' for Active; 'I' for Inactive)
REMARK    1  A    between atoms: C_1  and  N_2
REMARK    2  A    between atoms: C_3  and  C_12
REMARK    3  A    between atoms: C_5  and  C_7
REMARK    4  A    between atoms: C_21  and  C_23
REMARK    5  A    between atoms: C_23  and  N_24
REMARK    6  A    between atoms: N_24  and  C_25
REMARK    7  A    between atoms: C_25  and  C_26
REMARK                            x       y       z     vdW  Elec       q    Type
REMARK                         _______ _______ _______ _____ _____    ______ ____
ROOT
ATOM      1  C   UNL     1      -0.081  -0.129  -2.452  0.00  0.00    +0.024 C 
ATOM      2  C   UNL     1       1.313  -0.171  -3.082  0.00  0.00    -0.069 C 
ATOM      3  N   UNL     1       1.288  -0.984  -4.300  0.00  0.00    +0.381 N 
ATOM      4  C   UNL     1       0.377  -0.404  -5.289  0.00  0.00    -0.078 C 
ATOM      5  C   UNL     1      -1.048  -0.369  -4.733  0.00  0.00    -0.015 C 
ATOM      6  C   UNL     1      -1.043  -0.957  -3.315  0.00  0.00    -0.007 C 
ATOM      7  C   UNL     1      -0.509  -2.393  -3.392  0.00  0.00    -0.013 C 
ATOM      8  C   UNL     1       0.904  -2.364  -3.992  0.00  0.00    -0.086 C 
ATOM      9  H   UNL     1       2.216  -0.992  -4.697  0.00  0.00    -0.082 HD
ENDROOT
BRANCH   1  12
ATOM     10  C   UNL     1       1.999   0.533  -0.251  0.00  0.00    +0.172 C 
ATOM     11  N   UNL     1       0.887  -0.411  -0.112  0.00  0.00    -0.271 N 
ATOM     12  C   UNL     1      -0.025  -0.708  -1.062  0.00  0.00    +0.041 A 
ATOM     13  C   UNL     1      -0.880  -1.619  -0.542  0.00  0.00    +0.048 A 
ATOM     14  C   UNL     1      -0.477  -1.888   0.770  0.00  0.00    +0.066 A 
ATOM     15  N   UNL     1       0.586  -1.169   1.027  0.00  0.00    -0.176 NA
BRANCH  14  16
ATOM     16  C   UNL     1      -1.146  -2.846   1.722  0.00  0.00    +0.040 C 
ATOM     17  C   UNL     1      -1.760  -4.025   0.940  0.00  0.00    +0.010 C 
ATOM     18  C   UNL     1      -3.080  -4.332   1.690  0.00  0.00    +0.001 C 
ATOM     19  C   UNL     1      -3.590  -2.922   2.075  0.00  0.00    +0.001 C 
ATOM     20  C   UNL     1      -2.310  -2.144   2.444  0.00  0.00    +0.010 C 
ENDBRANCH  14  16
ENDBRANCH   1  12
BRANCH   8  21
ATOM     21  C   UNL     1       1.897  -2.954  -2.988  0.00  0.00    -0.098 C 
BRANCH  21  22
ATOM     22  N   UNL     1       3.261  -2.829  -3.517  0.00  0.00    +0.383 N 
ATOM     23  H   UNL     1       3.330  -3.328  -4.391  0.00  0.00    -0.085 HD
ATOM     24  H   UNL     1       3.476  -1.855  -3.667  0.00  0.00    -0.085 HD
BRANCH  22  25
ATOM     25  C   UNL     1       4.214  -3.397  -2.553  0.00  0.00    -0.007 C 
BRANCH  25  26
ATOM     26  C   UNL     1       5.614  -3.268  -3.095  0.00  0.00    +0.088 A 
ATOM     27  C   UNL     1       6.443  -2.228  -2.895  0.00  0.00    +0.042 A 
ATOM     28  C   UNL     1       7.644  -2.524  -3.579  0.00  0.00    +0.041 A 
ATOM     29  C   UNL     1       7.477  -3.727  -4.157  0.00  0.00    +0.195 A 
ATOM     30  O   UNL     1       6.248  -4.176  -3.856  0.00  0.00    -0.470 OA
ENDBRANCH  25  26
ENDBRANCH  22  25
ENDBRANCH  21  22
ENDBRANCH   8  21
TORSDOF 6
