REMARK  Name = ZINC13562997
REMARK  6 active torsions:
REMARK  status: ('A' for Active; 'I' for Inactive)
REMARK    1  A    between atoms: C_3  and  O_30
REMARK    2  A    between atoms: C_6  and  C_7
REMARK    3  A    between atoms: C_9  and  C_21
REMARK    4  A    between atoms: C_11  and  C_16
REMARK    5  A    between atoms: C_11  and  O_20
REMARK    6  A    between atoms: C_21  and  C_23
REMARK                            x       y       z     vdW  Elec       q    Type
REMARK                         _______ _______ _______ _____ _____    ______ ____
ROOT
ATOM      1  C   UNL     1      -2.515   3.914   0.004  0.00  0.00    +0.120 C 
ATOM      2  C   UNL     1      -3.076   4.051  -1.416  0.00  0.00    +0.144 C 
ATOM      3  C   UNL     1      -4.472   4.678  -1.331  0.00  0.00    +0.243 C 
ATOM      4  N   UNL     1      -5.308   3.869  -0.442  0.00  0.00    -0.264 N 
ATOM      5  C   UNL     1      -4.774   3.165   0.568  0.00  0.00    +0.302 C 
ATOM      6  O   UNL     1      -5.515   2.517   1.282  0.00  0.00    -0.253 OA
ATOM      7  N   UNL     1      -3.457   3.147   0.821  0.00  0.00    -0.292 N 
ATOM      8  H   UNL     1      -6.266   3.842  -0.586  0.00  0.00    +0.153 HD
ATOM      9  H   UNL     1      -3.121   2.615   1.559  0.00  0.00    +0.151 HD
ENDROOT
BRANCH   1  15
ATOM     10  C   UNL     1      -1.154   1.815  -0.058  0.00  0.00    +0.009 A 
ATOM     11  C   UNL     1       0.059   1.155  -0.097  0.00  0.00    +0.046 A 
ATOM     12  C   UNL     1       1.241   1.880  -0.135  0.00  0.00    +0.117 A 
ATOM     13  C   UNL     1       1.202   3.267  -0.128  0.00  0.00    +0.046 A 
ATOM     14  C   UNL     1      -0.014   3.922  -0.083  0.00  0.00    +0.009 A 
ATOM     15  C   UNL     1      -1.190   3.197  -0.045  0.00  0.00    -0.026 A 
BRANCH  12  16
ATOM     16  O   UNL     1       2.435   1.233  -0.178  0.00  0.00    -0.507 OA
ATOM     17  H   UNL     1       2.751   1.050  -1.074  0.00  0.00    +0.292 HD
ENDBRANCH  12  16
ENDBRANCH   1  15
BRANCH   3  18
ATOM     18  C   UNL     1      -5.099   4.720  -2.725  0.00  0.00    +0.436 C 
ATOM     19  F   UNL     1      -5.322   3.414  -3.176  0.00  0.00    -0.166 F 
ATOM     20  F   UNL     1      -6.316   5.408  -2.668  0.00  0.00    -0.166 F 
ATOM     21  F   UNL     1      -4.233   5.376  -3.607  0.00  0.00    -0.166 F 
ENDBRANCH   3  18
BRANCH   3  22
ATOM     22  O   UNL     1      -4.368   6.006  -0.813  0.00  0.00    -0.364 OA
ATOM     23  H   UNL     1      -5.216   6.463  -0.732  0.00  0.00    +0.212 HD
ENDBRANCH   3  22
BRANCH   2  24
ATOM     24  C   UNL     1      -3.166   2.691  -2.059  0.00  0.00    +0.173 C 
ATOM     25  O   UNL     1      -3.921   1.857  -1.608  0.00  0.00    -0.292 OA
BRANCH  24  26
ATOM     26  C   UNL     1      -2.337   2.376  -3.232  0.00  0.00    +0.018 A 
ATOM     27  C   UNL     1      -1.549   3.370  -3.822  0.00  0.00    +0.014 A 
ATOM     28  C   UNL     1      -0.771   3.067  -4.918  0.00  0.00    +0.039 A 
ATOM     29  C   UNL     1      -0.776   1.782  -5.442  0.00  0.00    +0.123 A 
ATOM     30  C   UNL     1      -1.559   0.794  -4.864  0.00  0.00    +0.039 A 
ATOM     31  C   UNL     1      -2.338   1.083  -3.765  0.00  0.00    +0.014 A 
ATOM     32  F   UNL     1      -0.015   1.493  -6.521  0.00  0.00    -0.205 F 
ENDBRANCH  24  26
ENDBRANCH   2  24
TORSDOF 6
