REMARK  Name = ZINC35858207
REMARK  11 active torsions:
REMARK  status: ('A' for Active; 'I' for Inactive)
REMARK    1  A    between atoms: C_1  and  N_2
REMARK    2  A    between atoms: N_2  and  C_3
REMARK    3  A    between atoms: N_2  and  C_4
REMARK    4  A    between atoms: C_4  and  C_5
REMARK    5  A    between atoms: C_5  and  N_6
REMARK    6  A    between atoms: C_7  and  C_9
REMARK    7  A    between atoms: C_12  and  C_14
REMARK    8  A    between atoms: C_14  and  O_15
REMARK    9  A    between atoms: O_15  and  C_16
REMARK   10  A    between atoms: C_22  and  C_32
REMARK   11  A    between atoms: C_27  and  C_29
REMARK                            x       y       z     vdW  Elec       q    Type
REMARK                         _______ _______ _______ _____ _____    ______ ____
ROOT
ATOM      1  C   UNL     1       6.601  -3.259   8.252  0.00  0.00    +0.121 A 
ATOM      2  C   UNL     1       7.186  -4.515   8.336  0.00  0.00    +0.046 A 
ATOM      3  C   UNL     1       8.557  -4.636   8.273  0.00  0.00    +0.007 A 
ATOM      4  C   UNL     1       9.362  -3.513   8.121  0.00  0.00    -0.040 A 
ATOM      5  C   UNL     1       8.782  -2.267   8.028  0.00  0.00    -0.016 A 
ATOM      6  C   UNL     1       7.401  -2.141   8.094  0.00  0.00    +0.051 A 
ATOM      7  C   UNL     1       9.593  -1.011   7.835  0.00  0.00    +0.137 C 
ATOM      8  N   UNL     1      11.015  -1.304   8.048  0.00  0.00    -0.290 N 
ATOM      9  C   UNL     1      11.553  -2.528   7.432  0.00  0.00    +0.113 C 
ATOM     10  C   UNL     1      10.853  -3.724   8.075  0.00  0.00    +0.054 C 
ATOM     11  C   UNL     1      11.797  -0.484   8.778  0.00  0.00    +0.219 C 
ATOM     12  O   UNL     1      11.313   0.477   9.337  0.00  0.00    -0.275 OA
ENDROOT
BRANCH   7  13
ATOM     13  C   UNL     1       9.144   0.034   8.823  0.00  0.00    -0.022 A 
ATOM     14  C   UNL     1       9.132  -0.253  10.175  0.00  0.00    +0.008 A 
ATOM     15  C   UNL     1       8.720   0.705  11.082  0.00  0.00    +0.038 A 
ATOM     16  C   UNL     1       8.319   1.953  10.636  0.00  0.00    +0.123 A 
ATOM     17  C   UNL     1       8.331   2.239   9.281  0.00  0.00    +0.038 A 
ATOM     18  C   UNL     1       8.749   1.282   8.377  0.00  0.00    +0.008 A 
ATOM     19  F   UNL     1       7.916   2.890  11.521  0.00  0.00    -0.205 F 
ENDBRANCH   7  13
BRANCH  11  20
ATOM     20  C   UNL     1      13.273  -0.763   8.900  0.00  0.00    +0.075 C 
ATOM     21  C   UNL     1      13.799  -1.199  10.270  0.00  0.00    +0.013 C 
ATOM     22  C   UNL     1      14.107   0.204   9.743  0.00  0.00    +0.013 C 
ENDBRANCH  11  20
BRANCH   1  23
ATOM     23  O   UNL     1       5.250  -3.129   8.319  0.00  0.00    -0.485 OA
BRANCH  23  24
ATOM     24  C   UNL     1       4.490  -4.328   8.483  0.00  0.00    +0.291 C 
BRANCH  24  28
ATOM     25  C   UNL     1       0.908  -3.591   7.815  0.00  0.00    +0.133 A 
ATOM     26  C   UNL     1       0.610  -3.374   9.134  0.00  0.00    +0.080 A 
ATOM     27  S   UNL     1       2.092  -3.626   9.886  0.00  0.00    -0.076 S 
ATOM     28  C   UNL     1       3.022  -3.989   8.537  0.00  0.00    +0.116 A 
ATOM     29  N   UNL     1       2.177  -3.915   7.545  0.00  0.00    -0.236 NA
BRANCH  25  31
ATOM     30  N   UNL     1       0.226  -3.706   5.472  0.00  0.00    -0.312 N 
ATOM     31  C   UNL     1      -0.110  -3.479   6.758  0.00  0.00    +0.263 C 
ATOM     32  O   UNL     1      -1.255  -3.183   7.044  0.00  0.00    -0.269 OA
ATOM     33  H   UNL     1       1.138  -3.943   5.244  0.00  0.00    +0.149 HD
BRANCH  30  34
ATOM     34  C   UNL     1      -0.788  -3.595   4.420  0.00  0.00    +0.086 C 
BRANCH  34  35
ATOM     35  C   UNL     1      -0.149  -3.900   3.063  0.00  0.00    -0.061 C 
BRANCH  35  37
ATOM     36  C   UNL     1      -1.626  -2.397   1.917  0.00  0.00    -0.097 C 
ATOM     37  N   UNL     1      -1.165  -3.789   2.008  0.00  0.00    +0.377 N 
ATOM     38  C   UNL     1      -0.583  -4.197   0.723  0.00  0.00    -0.097 C 
ATOM     39  H   UNL     1      -1.947  -4.388   2.229  0.00  0.00    -0.083 HD
ENDBRANCH  35  37
ENDBRANCH  34  35
ENDBRANCH  30  34
ENDBRANCH  25  31
ENDBRANCH  24  28
ENDBRANCH  23  24
ENDBRANCH   1  23
TORSDOF 9
