REMARK  Name = ZINC13163982
REMARK  8 active torsions:
REMARK  status: ('A' for Active; 'I' for Inactive)
REMARK    1  A    between atoms: C_1  and  C_2
REMARK    2  A    between atoms: C_2  and  C_4
REMARK    3  A    between atoms: C_2  and  N_18
REMARK    4  A    between atoms: N_6  and  C_7
REMARK    5  A    between atoms: C_8  and  C_15
REMARK    6  A    between atoms: N_21  and  S_24
REMARK    7  A    between atoms: S_24  and  C_27
REMARK    8  A    between atoms: C_28  and  C_29
REMARK                            x       y       z     vdW  Elec       q    Type
REMARK                         _______ _______ _______ _____ _____    ______ ____
ROOT
ATOM      1  C   UNL     1      -0.019   1.526   0.010  0.00  0.00    +0.034 C 
ATOM      2  C   UNL     1       0.002  -0.004   0.002  0.00  0.00    +0.140 C 
ENDROOT
BRANCH   2   3
ATOM      3  N   UNL     1       0.713  -0.491   1.192  0.00  0.00    -0.289 NA
ATOM      4  C   UNL     1       0.061  -0.022   2.422  0.00  0.00    +0.102 C 
ATOM      5  C   UNL     1       0.719  -0.694   3.633  0.00  0.00    +0.125 C 
ATOM      6  N   UNL     1       2.169  -0.458   3.568  0.00  0.00    -0.175 NA
ATOM      7  C   UNL     1       2.870  -0.776   2.315  0.00  0.00    +0.125 C 
ATOM      8  C   UNL     1       2.128  -0.100   1.156  0.00  0.00    +0.102 C 
BRANCH   6   9
ATOM      9  S   UNL     1       2.990   0.150   4.871  0.00  0.00    +0.054 S 
ATOM     10  O   UNL     1       4.162   0.771   4.359  0.00  0.00    -0.153 OA
ATOM     11  O   UNL     1       2.039   0.851   5.660  0.00  0.00    -0.153 OA
BRANCH   9  12
ATOM     12  C   UNL     1       3.529  -1.224   5.834  0.00  0.00    +0.153 C 
ATOM     13  C   UNL     1       4.824  -1.471   5.971  0.00  0.00    +0.028 C 
BRANCH  13  14
ATOM     14  C   UNL     1       5.275  -2.623   6.779  0.00  0.00    -0.024 A 
ATOM     15  C   UNL     1       4.340  -3.457   7.394  0.00  0.00    +0.008 A 
ATOM     16  C   UNL     1       4.768  -4.531   8.147  0.00  0.00    +0.001 A 
ATOM     17  C   UNL     1       6.121  -4.782   8.293  0.00  0.00    +0.000 A 
ATOM     18  C   UNL     1       7.053  -3.960   7.686  0.00  0.00    +0.001 A 
ATOM     19  C   UNL     1       6.638  -2.886   6.925  0.00  0.00    +0.008 A 
ENDBRANCH  13  14
ENDBRANCH   9  12
ENDBRANCH   6   9
ENDBRANCH   2   3
BRANCH   2  20
ATOM     20  C   UNL     1      -1.412  -0.526   0.013  0.00  0.00    +0.235 C 
ATOM     21  O   UNL     1      -1.790  -1.233   0.922  0.00  0.00    -0.274 OA
ATOM     22  N   UNL     1      -2.256  -0.206  -0.988  0.00  0.00    -0.278 N 
ATOM     23  H   UNL     1      -1.953   0.360  -1.716  0.00  0.00    +0.155 HD
BRANCH  22  24
ATOM     24  C   UNL     1      -3.556  -0.686  -0.979  0.00  0.00    +0.084 A 
ATOM     25  C   UNL     1      -4.550  -0.468  -1.915  0.00  0.00    +0.068 A 
ATOM     26  C   UNL     1      -5.849  -1.093  -1.671  0.00  0.00    -0.023 A 
ATOM     27  C   UNL     1      -5.906  -1.815  -0.537  0.00  0.00    -0.004 A 
ATOM     28  S   UNL     1      -4.284  -1.670   0.168  0.00  0.00    -0.077 S 
ATOM     29  C   UNL     1      -7.263  -2.432  -0.333  0.00  0.00    +0.043 C 
ATOM     30  C   UNL     1      -8.195  -1.648  -1.284  0.00  0.00    +0.010 C 
ATOM     31  C   UNL     1      -7.208  -1.164  -2.365  0.00  0.00    +0.037 C 
BRANCH  25  32
ATOM     32  C   UNL     1      -4.311   0.356  -3.104  0.00  0.00    +0.244 C 
ATOM     33  O   UNL     1      -3.900  -0.158  -4.128  0.00  0.00    -0.270 OA
ATOM     34  N   UNL     1      -4.547   1.682  -3.062  0.00  0.00    -0.325 N 
ATOM     35  H   UNL     1      -4.875   2.092  -2.246  0.00  0.00    +0.145 HD
ATOM     36  H   UNL     1      -4.389   2.228  -3.849  0.00  0.00    +0.145 HD
ENDBRANCH  25  32
ENDBRANCH  22  24
ENDBRANCH   2  20
TORSDOF 7
