REMARK  Name = ZINC30564714
REMARK  4 active torsions:
REMARK  status: ('A' for Active; 'I' for Inactive)
REMARK    1  A    between atoms: C_6  and  N_7
REMARK    2  A    between atoms: C_8  and  C_27
REMARK    3  A    between atoms: C_11  and  C_13
REMARK    4  A    between atoms: C_18  and  C_21
REMARK                            x       y       z     vdW  Elec       q    Type
REMARK                         _______ _______ _______ _____ _____    ______ ____
ROOT
ATOM      1  N   UNL     1      -2.424  10.484   0.067  0.00  0.00    -0.212 N 
ATOM      2  C   UNL     1      -3.883  10.675   0.075  0.00  0.00    +0.189 C 
ATOM      3  C   UNL     1      -4.439   9.237   0.065  0.00  0.00    +0.096 C 
ATOM      4  C   UNL     1      -3.202   8.367   0.060  0.00  0.00    +0.123 C 
ATOM      5  N   UNL     1      -2.147   9.118   0.058  0.00  0.00    -0.178 NA
ENDROOT
BRANCH   4   6
ATOM      6  C   UNL     1      -3.199   6.905   0.053  0.00  0.00    +0.265 C 
ATOM      7  O   UNL     1      -4.251   6.294   0.055  0.00  0.00    -0.268 OA
ATOM      8  N   UNL     1      -2.030   6.235   0.044  0.00  0.00    -0.260 N 
ATOM      9  C   UNL     1      -2.026   4.847   0.037  0.00  0.00    +0.165 A 
ATOM     10  N   UNL     1      -1.001   4.015   0.028  0.00  0.00    -0.224 NA
ATOM     11  C   UNL     1      -1.183   2.697   0.023  0.00  0.00    +0.087 A 
ATOM     12  C   UNL     1      -2.458   2.199   0.021  0.00  0.00    +0.077 A 
ATOM     13  S   UNL     1      -3.408   3.713   0.039  0.00  0.00    -0.060 S 
ATOM     14  H   UNL     1      -1.078   6.787   0.042  0.00  0.00    +0.157 HD
BRANCH  11  15
ATOM     15  C   UNL     1      -0.022   1.781   0.012  0.00  0.00    +0.040 A 
ATOM     16  C   UNL     1       1.313   2.082   0.001  0.00  0.00    +0.019 A 
ATOM     17  C   UNL     1       2.225   1.047  -0.014  0.00  0.00    +0.028 A 
ATOM     18  C   UNL     1       1.772  -0.233  -0.016  0.00  0.00    +0.079 A 
ATOM     19  S   UNL     1       0.002  -0.004   0.002  0.00  0.00    -0.075 S 
ATOM     20 CL   UNL     1       2.681  -1.712  -0.033  0.00  0.00    -0.076 Cl
ENDBRANCH  11  15
ENDBRANCH   4   6
BRANCH   1  26
ATOM     21  C   UNL     1      -1.876  12.834   0.069  0.00  0.00    +0.028 A 
ATOM     22  C   UNL     1      -0.933  13.842   0.075  0.00  0.00    +0.040 A 
ATOM     23  C   UNL     1       0.417  13.529   0.066  0.00  0.00    +0.124 A 
ATOM     24  C   UNL     1       0.823  12.205   0.057  0.00  0.00    +0.040 A 
ATOM     25  C   UNL     1      -0.117  11.194   0.058  0.00  0.00    +0.028 A 
ATOM     26  C   UNL     1      -1.472  11.505   0.066  0.00  0.00    +0.053 A 
ATOM     27  F   UNL     1       1.338  14.517   0.066  0.00  0.00    -0.205 F 
ENDBRANCH   1  26
BRANCH   2  28
ATOM     28  C   UNL     1      -4.327  11.421  -1.156  0.00  0.00    +0.233 C 
ATOM     29  O   UNL     1      -3.600  11.479  -2.125  0.00  0.00    -0.274 OA
ATOM     30  N   UNL     1      -5.532  12.025  -1.180  0.00  0.00    -0.328 N 
ATOM     31  H   UNL     1      -5.856  12.570  -2.079  0.00  0.00    +0.145 HD
ATOM     32  H   UNL     1      -6.191  11.973  -0.301  0.00  0.00    +0.145 HD
ENDBRANCH   2  28
TORSDOF 4
