REMARK  Name = ZINC39686412
REMARK  10 active torsions:
REMARK  status: ('A' for Active; 'I' for Inactive)
REMARK    1  A    between atoms: C_1  and  C_2
REMARK    2  A    between atoms: C_2  and  C_4
REMARK    3  A    between atoms: C_2  and  N_13
REMARK    4  A    between atoms: C_4  and  C_5
REMARK    5  A    between atoms: C_10  and  O_11
REMARK    6  A    between atoms: O_11  and  C_12
REMARK    7  A    between atoms: C_14  and  C_16
REMARK    8  A    between atoms: C_27  and  C_29
REMARK    9  A    between atoms: C_33  and  O_35
REMARK   10  A    between atoms: O_35  and  C_36
REMARK                            x       y       z     vdW  Elec       q    Type
REMARK                         _______ _______ _______ _____ _____    ______ ____
ROOT
ATOM      1  C   UNL     1       1.275  -1.374   3.949  0.00  0.00    +0.100 C 
ATOM      2  C   UNL     1       2.294  -0.218   4.066  0.00  0.00    +0.121 C 
ATOM      3  N   UNL     1       1.693   0.712   5.051  0.00  0.00    -0.296 N 
ATOM      4  C   UNL     1       1.090  -0.175   6.075  0.00  0.00    +0.115 C 
ATOM      5  C   UNL     1       0.489  -1.344   5.270  0.00  0.00    -0.004 C 
ATOM      6  C   UNL     1      -0.991  -1.091   5.000  0.00  0.00    -0.010 C 
ATOM      7  C   UNL     1      -1.759  -1.123   6.324  0.00  0.00    -0.082 C 
ATOM      8  N   UNL     1      -1.575  -2.429   6.968  0.00  0.00    +0.379 N 
ATOM      9  C   UNL     1      -0.161  -2.624   7.309  0.00  0.00    -0.082 C 
ATOM     10  C   UNL     1       0.676  -2.656   6.026  0.00  0.00    -0.010 C 
ATOM     11  C   UNL     1       1.694   2.059   5.023  0.00  0.00    +0.247 C 
ATOM     12  O   UNL     1       2.135   2.646   4.054  0.00  0.00    -0.270 OA
ATOM     13  H   UNL     1      -2.131  -2.469   7.809  0.00  0.00    -0.086 HD
ATOM     14  H   UNL     1      -1.871  -3.158   6.337  0.00  0.00    -0.086 HD
ENDROOT
BRANCH  11  15
ATOM     15  C   UNL     1       1.158   2.824   6.169  0.00  0.00    +0.040 A 
ATOM     16  C   UNL     1       1.066   2.226   7.428  0.00  0.00    +0.013 A 
ATOM     17  C   UNL     1       0.566   2.942   8.495  0.00  0.00    +0.004 A 
ATOM     18  C   UNL     1       0.154   4.251   8.324  0.00  0.00    +0.045 A 
ATOM     19  C   UNL     1       0.242   4.854   7.076  0.00  0.00    +0.121 A 
ATOM     20  C   UNL     1       0.749   4.146   5.999  0.00  0.00    +0.058 A 
BRANCH  19  21
ATOM     21  O   UNL     1      -0.164   6.141   6.913  0.00  0.00    -0.495 OA
ATOM     22  C   UNL     1      -0.670   6.812   8.069  0.00  0.00    +0.277 C 
ENDBRANCH  19  21
ENDBRANCH  11  15
BRANCH   1  24
ATOM     23  N   UNL     1      -0.143  -2.188   2.093  0.00  0.00    -0.312 N 
ATOM     24  C   UNL     1       0.349  -1.140   2.783  0.00  0.00    +0.218 C 
ATOM     25  O   UNL     1       0.047  -0.009   2.465  0.00  0.00    -0.275 OA
ATOM     26  H   UNL     1       0.098  -3.093   2.347  0.00  0.00    +0.149 HD
BRANCH  23  28
ATOM     27  C   UNL     1      -0.218  -1.705  -0.304  0.00  0.00    +0.028 C 
ATOM     28  C   UNL     1      -1.043  -1.961   0.959  0.00  0.00    +0.074 C 
BRANCH  28  29
ATOM     29  C   UNL     1      -1.923  -3.195   0.752  0.00  0.00    +0.060 C 
BRANCH  29  30
ATOM     30  C   UNL     1      -2.825  -3.376   1.946  0.00  0.00    -0.004 A 
ATOM     31  C   UNL     1      -2.448  -4.218   2.975  0.00  0.00    +0.007 A 
ATOM     32  C   UNL     1      -3.275  -4.385   4.071  0.00  0.00    +0.000 A 
ATOM     33  C   UNL     1      -4.479  -3.709   4.141  0.00  0.00    +0.004 A 
ATOM     34  C   UNL     1      -4.859  -2.865   3.115  0.00  0.00    +0.046 A 
ATOM     35  C   UNL     1      -4.029  -2.692   2.017  0.00  0.00    +0.123 A 
BRANCH  35  36
ATOM     36  O   UNL     1      -4.399  -1.859   1.009  0.00  0.00    -0.495 OA
ATOM     37  C   UNL     1      -5.653  -1.188   1.149  0.00  0.00    +0.277 C 
ENDBRANCH  35  36
ENDBRANCH  29  30
ENDBRANCH  28  29
ENDBRANCH  23  28
ENDBRANCH   1  24
TORSDOF 7
