REMARK  Name = ZINC21257442
REMARK  10 active torsions:
REMARK  status: ('A' for Active; 'I' for Inactive)
REMARK    1  A    between atoms: C_1  and  C_2
REMARK    2  A    between atoms: C_2  and  O_3
REMARK    3  A    between atoms: O_3  and  C_4
REMARK    4  A    between atoms: C_7  and  C_10
REMARK    5  A    between atoms: C_15  and  C_25
REMARK    6  A    between atoms: C_29  and  O_34
REMARK    7  A    between atoms: C_30  and  O_31
REMARK    8  A    between atoms: O_31  and  C_32
REMARK    9  A    between atoms: C_32  and  C_33
REMARK   10  A    between atoms: O_34  and  C_35
REMARK                            x       y       z     vdW  Elec       q    Type
REMARK                         _______ _______ _______ _____ _____    ______ ____
ROOT
ATOM      1  C   UNL     1       2.603   5.105   4.052  0.00  0.00    +0.032 C 
ATOM      2  C   UNL     1       1.158   4.612   4.113  0.00  0.00    +0.059 C 
ATOM      3  C   UNL     1       0.641   4.351   2.708  0.00  0.00    +0.017 C 
ATOM      4  C   UNL     1       1.472   3.908   1.750  0.00  0.00    +0.037 C 
ATOM      5  C   UNL     1       1.088   3.572   0.329  0.00  0.00    +0.140 C 
ATOM      6  N   UNL     1      -0.240   4.008  -0.051  0.00  0.00    -0.331 N 
ATOM      7  C   UNL     1      -1.375   3.478   0.560  0.00  0.00    +0.049 A 
ATOM      8  C   UNL     1      -2.262   2.673  -0.138  0.00  0.00    +0.025 A 
ATOM      9  C   UNL     1      -3.317   2.082   0.535  0.00  0.00    +0.002 A 
ATOM     10  C   UNL     1      -3.488   2.292   1.891  0.00  0.00    +0.002 A 
ATOM     11  C   UNL     1      -2.615   3.112   2.587  0.00  0.00    +0.025 A 
ATOM     12  C   UNL     1      -1.570   3.717   1.912  0.00  0.00    +0.052 A 
ATOM     13  N   UNL     1      -0.685   4.587   2.539  0.00  0.00    -0.316 N 
ATOM     14  C   UNL     1       2.847   3.721   2.030  0.00  0.00    +0.163 C 
ATOM     15  O   UNL     1       3.572   3.307   1.147  0.00  0.00    -0.292 OA
ATOM     16  C   UNL     1       3.440   4.014   3.375  0.00  0.00    +0.088 C 
ATOM     17  H   UNL     1      -0.365   4.770  -0.834  0.00  0.00    +0.147 HD
ATOM     18  H   UNL     1      -1.129   5.521   2.912  0.00  0.00    +0.152 HD
ENDROOT
BRANCH   1  22
ATOM     19  C   UNL     1       4.063   5.803   8.007  0.00  0.00    +0.121 A 
ATOM     20  C   UNL     1       4.018   6.843   7.090  0.00  0.00    +0.046 A 
ATOM     21  C   UNL     1       3.545   6.614   5.812  0.00  0.00    +0.007 A 
ATOM     22  C   UNL     1       3.117   5.351   5.447  0.00  0.00    -0.043 A 
ATOM     23  C   UNL     1       3.156   4.315   6.362  0.00  0.00    +0.007 A 
ATOM     24  C   UNL     1       3.632   4.537   7.639  0.00  0.00    +0.046 A 
BRANCH  19  25
ATOM     25  O   UNL     1       4.527   6.025   9.265  0.00  0.00    -0.492 OA
BRANCH  25  27
ATOM     26  C   UNL     1       5.095   5.349  11.515  0.00  0.00    +0.048 C 
ATOM     27  C   UNL     1       4.544   4.909  10.157  0.00  0.00    +0.225 C 
ENDBRANCH  25  27
ENDBRANCH  19  25
ENDBRANCH   1  22
BRANCH   5  28
ATOM     28  C   UNL     1       1.169   2.077   0.152  0.00  0.00    +0.023 A 
ATOM     29  C   UNL     1       1.151   1.249   1.259  0.00  0.00    +0.009 A 
ATOM     30  C   UNL     1       1.225  -0.122   1.101  0.00  0.00    +0.004 A 
ATOM     31  C   UNL     1       1.316  -0.672  -0.164  0.00  0.00    +0.049 A 
ATOM     32  C   UNL     1       1.334   0.153  -1.278  0.00  0.00    +0.162 A 
ATOM     33  C   UNL     1       1.260   1.534  -1.118  0.00  0.00    +0.167 A 
BRANCH  32  34
ATOM     34  O   UNL     1       1.423  -0.386  -2.523  0.00  0.00    -0.491 OA
ATOM     35  C   UNL     1       1.494  -1.810  -2.610  0.00  0.00    +0.277 C 
ENDBRANCH  32  34
BRANCH  33  36
ATOM     36  O   UNL     1       1.277   2.347  -2.208  0.00  0.00    -0.488 OA
BRANCH  36  37
ATOM     37  C   UNL     1       0.031   2.571  -2.871  0.00  0.00    +0.226 C 
ATOM     38  C   UNL     1       0.268   3.396  -4.137  0.00  0.00    +0.048 C 
ENDBRANCH  36  37
ENDBRANCH  33  36
ENDBRANCH   5  28
TORSDOF 7
