REMARK  Name = ZINC39608905
REMARK  7 active torsions:
REMARK  status: ('A' for Active; 'I' for Inactive)
REMARK    1  A    between atoms: C_4  and  C_7
REMARK    2  A    between atoms: C_7  and  O_8
REMARK    3  A    between atoms: O_8  and  C_9
REMARK    4  A    between atoms: C_14  and  N_16
REMARK    5  A    between atoms: C_17  and  C_19
REMARK    6  A    between atoms: C_30  and  C_32
REMARK    7  A    between atoms: C_37  and  C_38
REMARK                            x       y       z     vdW  Elec       q    Type
REMARK                         _______ _______ _______ _____ _____    ______ ____
ROOT
ATOM      1  C   UNL     1       9.564   1.340   2.529  0.00  0.00    +0.100 C 
ATOM      2  C   UNL     1      10.448   0.077   2.632  0.00  0.00    +0.121 C 
ATOM      3  N   UNL     1      11.654   0.524   3.369  0.00  0.00    -0.296 N 
ATOM      4  C   UNL     1      11.132   1.444   4.408  0.00  0.00    +0.115 C 
ATOM      5  C   UNL     1      10.015   2.234   3.697  0.00  0.00    -0.004 C 
ATOM      6  C   UNL     1       8.852   2.480   4.654  0.00  0.00    -0.010 C 
ATOM      7  C   UNL     1       9.309   3.418   5.774  0.00  0.00    -0.082 C 
ATOM      8  N   UNL     1       9.770   4.687   5.196  0.00  0.00    +0.379 N 
ATOM      9  C   UNL     1      10.946   4.453   4.350  0.00  0.00    -0.082 C 
ATOM     10  C   UNL     1      10.559   3.558   3.169  0.00  0.00    -0.010 C 
ATOM     11  C   UNL     1      12.936   0.172   3.146  0.00  0.00    +0.247 C 
ATOM     12  O   UNL     1      13.809   0.546   3.904  0.00  0.00    -0.270 OA
ATOM     13  H   UNL     1       9.031   5.089   4.639  0.00  0.00    -0.086 HD
ATOM     14  H   UNL     1      10.012   5.325   5.939  0.00  0.00    -0.086 HD
ENDROOT
BRANCH  11  15
ATOM     15  C   UNL     1      13.280  -0.668   1.979  0.00  0.00    +0.049 A 
ATOM     16  C   UNL     1      12.418  -1.688   1.572  0.00  0.00    +0.013 A 
ATOM     17  C   UNL     1      12.745  -2.468   0.482  0.00  0.00    +0.001 A 
ATOM     18  C   UNL     1      13.924  -2.241  -0.207  0.00  0.00    +0.001 A 
ATOM     19  C   UNL     1      14.782  -1.233   0.192  0.00  0.00    +0.013 A 
ATOM     20  C   UNL     1      14.464  -0.441   1.277  0.00  0.00    +0.067 A 
BRANCH  20  21
ATOM     21  C   UNL     1      15.398   0.661   1.707  0.00  0.00    +0.418 C 
ATOM     22  F   UNL     1      16.507   0.691   0.855  0.00  0.00    -0.166 F 
ATOM     23  F   UNL     1      14.729   1.889   1.645  0.00  0.00    -0.166 F 
ATOM     24  F   UNL     1      15.823   0.427   3.019  0.00  0.00    -0.166 F 
ENDBRANCH  20  21
ENDBRANCH  11  15
BRANCH   1  26
ATOM     25  N   UNL     1       7.163   1.719   2.073  0.00  0.00    -0.310 N 
ATOM     26  C   UNL     1       8.110   0.976   2.679  0.00  0.00    +0.218 C 
ATOM     27  O   UNL     1       7.791   0.014   3.345  0.00  0.00    -0.275 OA
ATOM     28  H   UNL     1       7.418   2.489   1.540  0.00  0.00    +0.149 HD
BRANCH  25  33
ATOM     29  C   UNL     1       4.869   2.611   2.010  0.00  0.00    +0.139 C 
ATOM     30  C   UNL     1       3.960   2.312   0.800  0.00  0.00    +0.033 C 
ATOM     31  C   UNL     1       4.729   1.228   0.005  0.00  0.00    +0.004 C 
ATOM     32  C   UNL     1       5.342   0.352   1.127  0.00  0.00    +0.025 C 
ATOM     33  C   UNL     1       5.749   1.365   2.218  0.00  0.00    +0.102 C 
BRANCH  29  34
ATOM     34  O   UNL     1       4.074   2.848   3.173  0.00  0.00    -0.370 OA
BRANCH  34  35
ATOM     35  C   UNL     1       3.753   4.224   3.387  0.00  0.00    +0.195 C 
BRANCH  35  39
ATOM     36  C   UNL     1       1.383   4.604   6.920  0.00  0.00    +0.000 A 
ATOM     37  C   UNL     1       2.761   4.672   7.002  0.00  0.00    +0.000 A 
ATOM     38  C   UNL     1       3.528   4.549   5.858  0.00  0.00    +0.006 A 
ATOM     39  C   UNL     1       2.917   4.357   4.633  0.00  0.00    -0.022 A 
ATOM     40  C   UNL     1       1.538   4.287   4.552  0.00  0.00    +0.006 A 
ATOM     41  C   UNL     1       0.771   4.412   5.695  0.00  0.00    +0.000 A 
ENDBRANCH  35  39
ENDBRANCH  34  35
ENDBRANCH  29  34
ENDBRANCH  25  33
ENDBRANCH   1  26
TORSDOF 7
