REMARK  Name = ZINC13064140
REMARK  12 active torsions:
REMARK  status: ('A' for Active; 'I' for Inactive)
REMARK    1  A    between atoms: C_1  and  C_2
REMARK    2  A    between atoms: C_2  and  C_3
REMARK    3  A    between atoms: C_3  and  C_5
REMARK    4  A    between atoms: C_3  and  N_73
REMARK    5  A    between atoms: N_9  and  C_10
REMARK    6  A    between atoms: C_16  and  C_17
REMARK    7  A    between atoms: C_16  and  N_73
REMARK    8  A    between atoms: C_20  and  C_23
REMARK    9  A    between atoms: C_24  and  C_25
REMARK   10  A    between atoms: C_24  and  N_73
REMARK   11  A    between atoms: C_29  and  O_37
REMARK   12  A    between atoms: O_37  and  C_38
REMARK                            x       y       z     vdW  Elec       q    Type
REMARK                         _______ _______ _______ _____ _____    ______ ____
ROOT
ATOM      1  N   UNL     1      -3.483   4.752   1.822  0.00  0.00    +0.392 N 
ATOM      2  H   UNL     1      -3.039   5.252   2.602  0.00  0.00    -0.080 HD
ENDROOT
BRANCH   1   3
ATOM      3  C   UNL     1      -4.595   5.571   1.297  0.00  0.00    +0.003 C 
BRANCH   3   4
ATOM      4  C   UNL     1      -4.201   7.023   1.372  0.00  0.00    +0.138 A 
ATOM      5  N   UNL     1      -3.068   7.548   0.972  0.00  0.00    -0.115 NA
ATOM      6  N   UNL     1      -3.113   8.815   1.204  0.00  0.00    -0.023 NA
ATOM      7  N   UNL     1      -4.245   9.111   1.742  0.00  0.00    -0.044 NA
ATOM      8  N   UNL     1      -4.946   8.034   1.857  0.00  0.00    -0.228 N 
BRANCH   8   9
ATOM      9  C   UNL     1      -6.296   7.930   2.414  0.00  0.00    +0.111 C 
ATOM     10  C   UNL     1      -7.276   8.694   1.521  0.00  0.00    +0.027 C 
ATOM     11  C   UNL     1      -8.687   8.586   2.103  0.00  0.00    +0.002 C 
ATOM     12  C   UNL     1      -8.706   9.186   3.510  0.00  0.00    +0.000 C 
ATOM     13  C   UNL     1      -7.726   8.422   4.403  0.00  0.00    +0.002 C 
ATOM     14  C   UNL     1      -6.315   8.530   3.821  0.00  0.00    +0.027 C 
ENDBRANCH   8   9
ENDBRANCH   3   4
BRANCH   3  16
ATOM     15  C   UNL     1      -5.439   3.769  -0.215  0.00  0.00    +0.002 C 
ATOM     16  C   UNL     1      -4.893   5.197  -0.157  0.00  0.00    -0.011 C 
ENDBRANCH   3  16
ENDBRANCH   1   3
BRANCH   1  17
ATOM     17  C   UNL     1      -3.997   3.457   2.314  0.00  0.00    -0.042 C 
BRANCH  17  18
ATOM     18  C   UNL     1      -4.707   3.684   3.624  0.00  0.00    -0.064 A 
ATOM     19  C   UNL     1      -3.984   3.735   4.802  0.00  0.00    +0.002 A 
ATOM     20  C   UNL     1      -4.634   3.947   6.003  0.00  0.00    +0.003 A 
ATOM     21  C   UNL     1      -6.008   4.100   6.028  0.00  0.00    -0.050 A 
ATOM     22  C   UNL     1      -6.731   4.045   4.851  0.00  0.00    +0.003 A 
ATOM     23  C   UNL     1      -6.080   3.836   3.650  0.00  0.00    +0.002 A 
ATOM     24  C   UNL     1      -6.717   4.328   7.338  0.00  0.00    +0.044 C 
ENDBRANCH  17  18
ENDBRANCH   1  17
BRANCH   1  25
ATOM     25  C   UNL     1      -2.477   4.526   0.763  0.00  0.00    -0.036 C 
BRANCH  25  26
ATOM     26  C   UNL     1      -1.207   4.025   1.400  0.00  0.00    +0.001 A 
ATOM     27  C   UNL     1      -0.963   2.692   1.462  0.00  0.00    +0.017 A 
ATOM     28  C   UNL     1       0.283   2.238   2.083  0.00  0.00    +0.002 A 
ATOM     29  C   UNL     1       0.590   0.876   2.172  0.00  0.00    +0.055 A 
ATOM     30  C   UNL     1       1.770   0.481   2.769  0.00  0.00    +0.121 A 
ATOM     31  C   UNL     1       2.651   1.431   3.281  0.00  0.00    +0.047 A 
ATOM     32  C   UNL     1       2.360   2.774   3.199  0.00  0.00    +0.030 A 
ATOM     33  C   UNL     1       1.176   3.194   2.602  0.00  0.00    +0.049 A 
ATOM     34  N   UNL     1       0.866   4.535   2.510  0.00  0.00    -0.322 N 
ATOM     35  H   UNL     1       1.482   5.194   2.868  0.00  0.00    +0.169 HD
ATOM     36  C   UNL     1      -0.278   4.943   1.934  0.00  0.00    +0.251 A 
ATOM     37  O   UNL     1      -0.519   6.137   1.871  0.00  0.00    -0.268 OA
BRANCH  30  38
ATOM     38  O   UNL     1       2.073  -0.841   2.859  0.00  0.00    -0.495 OA
ATOM     39  C   UNL     1       3.310  -1.182   3.489  0.00  0.00    +0.277 C 
ENDBRANCH  30  38
ENDBRANCH  25  26
ENDBRANCH   1  25
TORSDOF 9
