REMARK  Name = ZINC27550485
REMARK  9 active torsions:
REMARK  status: ('A' for Active; 'I' for Inactive)
REMARK    1  A    between atoms: C_1  and  C_2
REMARK    2  A    between atoms: C_4  and  C_8
REMARK    3  A    between atoms: C_5  and  C_7
REMARK    4  A    between atoms: C_10  and  C_33
REMARK    5  A    between atoms: C_11  and  N_32
REMARK    6  A    between atoms: N_12  and  C_22
REMARK    7  A    between atoms: C_18  and  C_20
REMARK    8  A    between atoms: C_18  and  C_21
REMARK    9  A    between atoms: C_24  and  N_29
REMARK                            x       y       z     vdW  Elec       q    Type
REMARK                         _______ _______ _______ _____ _____    ______ ____
ROOT
ATOM      1  C   UNL     1      -2.521   1.012   0.024  0.00  0.00    +0.098 C 
ATOM      2  C   UNL     1      -2.668   0.291  -1.284  0.00  0.00    +0.077 C 
ATOM      3  C   UNL     1      -2.444  -1.045  -1.377  0.00  0.00    +0.107 C 
ATOM      4  N   UNL     1      -2.084  -1.765  -0.261  0.00  0.00    -0.259 N 
ATOM      5  C   UNL     1      -2.324  -1.270   0.994  0.00  0.00    +0.025 C 
ATOM      6  C   UNL     1      -2.546   0.048   1.183  0.00  0.00    +0.025 C 
ATOM      7  C   UNL     1      -2.809   0.562   2.465  0.00  0.00    +0.162 C 
ATOM      8  O   UNL     1      -2.997   1.754   2.602  0.00  0.00    -0.292 OA
ATOM      9  C   UNL     1      -2.861  -0.336   3.670  0.00  0.00    +0.086 C 
ATOM     10  C   UNL     1      -3.299  -1.737   3.230  0.00  0.00    -0.023 C 
ATOM     11  C   UNL     1      -2.329  -2.233   2.156  0.00  0.00    +0.058 C 
ATOM     12  C   UNL     1      -4.715  -1.676   2.656  0.00  0.00    +0.011 C 
ATOM     13  C   UNL     1      -3.270  -2.689   4.428  0.00  0.00    +0.011 C 
ENDROOT
BRANCH   1  17
ATOM     14  C   UNL     1       2.542   1.314  -0.437  0.00  0.00    +0.051 C 
ATOM     15  C   UNL     1       1.135   1.800  -0.201  0.00  0.00    -0.013 A 
ATOM     16  C   UNL     1      -0.024   1.096  -0.209  0.00  0.00    +0.015 A 
ATOM     17  C   UNL     1      -1.212   1.760   0.032  0.00  0.00    -0.025 A 
ATOM     18  C   UNL     1      -1.183   3.092   0.280  0.00  0.00    -0.009 A 
ATOM     19  S   UNL     1       0.562   3.451   0.163  0.00  0.00    -0.098 S 
ATOM     20  C   UNL     1      -2.327   4.029   0.571  0.00  0.00    +0.052 C 
ENDBRANCH   1  17
BRANCH   4  21
ATOM     21  C   UNL     1      -1.467  -3.013  -0.409  0.00  0.00    +0.060 A 
ATOM     22  C   UNL     1      -2.239  -4.156  -0.570  0.00  0.00    +0.058 A 
ATOM     23  C   UNL     1      -1.628  -5.386  -0.722  0.00  0.00    +0.128 A 
ATOM     24  C   UNL     1      -0.248  -5.481  -0.702  0.00  0.00    +0.034 A 
ATOM     25  C   UNL     1       0.524  -4.346  -0.536  0.00  0.00    +0.024 A 
ATOM     26  C   UNL     1      -0.081  -3.112  -0.390  0.00  0.00    +0.063 A 
ATOM     27 CL   UNL     1       0.889  -1.688  -0.182  0.00  0.00    -0.082 Cl
BRANCH  23  28
ATOM     28  N   UNL     1      -2.451  -6.603  -0.900  0.00  0.00    +0.056 N 
ATOM     29  O   UNL     1      -1.913  -7.688  -1.028  0.00  0.00    -0.126 OA
ATOM     30  O   UNL     1      -3.666  -6.520  -0.917  0.00  0.00    -0.126 OA
ENDBRANCH  23  28
ENDBRANCH   4  21
BRANCH   3  31
ATOM     31  N   UNL     1      -2.578  -1.680  -2.589  0.00  0.00    -0.345 N 
ATOM     32  H   UNL     1      -2.397  -2.762  -2.666  0.00  0.00    +0.144 HD
ATOM     33  H   UNL     1      -2.866  -1.105  -3.482  0.00  0.00    +0.144 HD
ENDBRANCH   3  31
BRANCH   2  34
ATOM     34  C   UNL     1      -3.051   1.025  -2.453  0.00  0.00    +0.099 C 
ATOM     35  N   UNL     1      -3.354   1.606  -3.380  0.00  0.00    -0.191 NA
ENDBRANCH   2  34
TORSDOF 5
