REMARK  Name = ZINC64343503
REMARK  9 active torsions:
REMARK  status: ('A' for Active; 'I' for Inactive)
REMARK    1  A    between atoms: C_1  and  C_2
REMARK    2  A    between atoms: C_2  and  C_4
REMARK    3  A    between atoms: C_2  and  N_11
REMARK    4  A    between atoms: N_9  and  C_10
REMARK    5  A    between atoms: N_11  and  C_12
REMARK    6  A    between atoms: C_12  and  C_13
REMARK    7  A    between atoms: C_13  and  C_15
REMARK    8  A    between atoms: C_13  and  C_21
REMARK    9  A    between atoms: C_29  and  C_31
REMARK                            x       y       z     vdW  Elec       q    Type
REMARK                         _______ _______ _______ _____ _____    ______ ____
ROOT
ATOM      1  C   UNL     1       2.816  -0.564  -2.418  0.00  0.00    +0.031 C 
ENDROOT
BRANCH   1   2
ATOM      2  C   UNL     1       4.188   0.056  -2.491  0.00  0.00    -0.028 C 
ATOM      3  C   UNL     1       4.851   0.684  -1.493  0.00  0.00    +0.000 A 
ATOM      4  C   UNL     1       4.506   0.968  -0.095  0.00  0.00    +0.010 A 
ATOM      5  C   UNL     1       5.395   1.632   0.678  0.00  0.00    +0.001 A 
ATOM      6  C   UNL     1       6.635   2.054   0.179  0.00  0.00    +0.002 A 
ATOM      7  C   UNL     1       7.023   1.830  -1.095  0.00  0.00    +0.026 A 
ATOM      8  C   UNL     1       6.166   1.141  -1.996  0.00  0.00    +0.043 A 
ATOM      9  N   UNL     1       6.311   0.808  -3.256  0.00  0.00    -0.374 N 
ATOM     10  C   UNL     1       5.105   0.096  -3.693  0.00  0.00    +0.137 C 
ATOM     11  H   UNL     1       7.087   0.997  -3.806  0.00  0.00    +0.161 HD
BRANCH  10  12
ATOM     12  C   UNL     1       4.446   0.843  -4.824  0.00  0.00    -0.021 A 
ATOM     13  C   UNL     1       4.451   2.226  -4.835  0.00  0.00    +0.006 A 
ATOM     14  C   UNL     1       3.847   2.911  -5.872  0.00  0.00    +0.000 A 
ATOM     15  C   UNL     1       3.238   2.214  -6.899  0.00  0.00    +0.000 A 
ATOM     16  C   UNL     1       3.233   0.832  -6.889  0.00  0.00    +0.000 A 
ATOM     17  C   UNL     1       3.841   0.146  -5.854  0.00  0.00    +0.006 A 
ENDBRANCH  10  12
ENDBRANCH   1   2
BRANCH   1  18
ATOM     18  C   UNL     1       2.937  -2.063  -2.513  0.00  0.00    -0.042 A 
ATOM     19  C   UNL     1       3.664  -2.760  -1.567  0.00  0.00    +0.004 A 
ATOM     20  C   UNL     1       3.775  -4.135  -1.654  0.00  0.00    +0.000 A 
ATOM     21  C   UNL     1       3.158  -4.813  -2.689  0.00  0.00    +0.000 A 
ATOM     22  C   UNL     1       2.430  -4.117  -3.635  0.00  0.00    +0.000 A 
ATOM     23  C   UNL     1       2.316  -2.742  -3.545  0.00  0.00    +0.004 A 
ENDBRANCH   1  18
BRANCH   1  24
ATOM     24  C   UNL     1       2.158  -0.189  -1.089  0.00  0.00    -0.069 C 
BRANCH  24  25
ATOM     25  N   UNL     1       0.768  -0.666  -1.079  0.00  0.00    +0.387 N 
ATOM     26  H   UNL     1       0.757  -1.669  -1.189  0.00  0.00    -0.085 HD
ATOM     27  H   UNL     1       0.260  -0.239  -1.839  0.00  0.00    -0.085 HD
BRANCH  25  29
ATOM     28  C   UNL     1       0.041   1.217   0.307  0.00  0.00    -0.004 C 
ATOM     29  C   UNL     1       0.136  -0.306   0.197  0.00  0.00    +0.013 C 
BRANCH  29  30
ATOM     30  C   UNL     1      -1.248  -0.901   0.258  0.00  0.00    +0.206 C 
ATOM     31  O   UNL     1      -1.665  -1.560  -0.671  0.00  0.00    -0.277 OA
ATOM     32  N   UNL     1      -2.020  -0.701   1.343  0.00  0.00    -0.242 N 
ATOM     33  C   UNL     1      -3.257  -1.233   1.397  0.00  0.00    +0.306 C 
ATOM     34  O   UNL     1      -3.676  -1.894   0.467  0.00  0.00    -0.252 OA
ATOM     35  N   UNL     1      -4.030  -1.033   2.483  0.00  0.00    -0.302 N 
ATOM     36  C   UNL     1      -5.375  -1.612   2.542  0.00  0.00    +0.129 C 
ATOM     37  H   UNL     1      -1.686  -0.174   2.086  0.00  0.00    +0.159 HD
ATOM     38  H   UNL     1      -3.696  -0.506   3.226  0.00  0.00    +0.150 HD
ENDBRANCH  29  30
ENDBRANCH  25  29
ENDBRANCH  24  25
ENDBRANCH   1  24
TORSDOF 7
