REMARK  Name = ZINC13127580
REMARK  7 active torsions:
REMARK  status: ('A' for Active; 'I' for Inactive)
REMARK    1  A    between atoms: C_1  and  C_2
REMARK    2  A    between atoms: C_2  and  N_9
REMARK    3  A    between atoms: C_10  and  C_12
REMARK    4  A    between atoms: C_12  and  S_13
REMARK    5  A    between atoms: S_13  and  C_14
REMARK    6  A    between atoms: C_22  and  N_24
REMARK    7  A    between atoms: N_24  and  C_25
REMARK                            x       y       z     vdW  Elec       q    Type
REMARK                         _______ _______ _______ _____ _____    ______ ____
ROOT
ATOM      1  C   UNL     1      -0.052  -0.011  -0.529  0.00  0.00    +0.191 A 
ATOM      2  N   UNL     1       1.086  -0.630  -0.784  0.00  0.00    -0.222 NA
ATOM      3  C   UNL     1       1.141  -1.970  -0.793  0.00  0.00    +0.077 A 
ATOM      4  C   UNL     1       2.332  -2.660  -1.058  0.00  0.00    +0.028 A 
ATOM      5  C   UNL     1       2.335  -4.024  -1.054  0.00  0.00    +0.002 A 
ATOM      6  C   UNL     1       1.173  -4.743  -0.790  0.00  0.00    +0.001 A 
ATOM      7  C   UNL     1      -0.003  -4.102  -0.527  0.00  0.00    +0.013 A 
ATOM      8  C   UNL     1      -0.040  -2.704  -0.524  0.00  0.00    +0.041 A 
ATOM      9  C   UNL     1      -1.232  -1.985  -0.257  0.00  0.00    +0.135 A 
ATOM     10  N   UNL     1      -1.183  -0.661  -0.267  0.00  0.00    -0.206 NA
ENDROOT
BRANCH   9  11
ATOM     11  N   UNL     1      -2.412  -2.646   0.011  0.00  0.00    -0.298 N 
ATOM     12  H   UNL     1      -2.414  -3.611   0.116  0.00  0.00    +0.154 HD
BRANCH  11  13
ATOM     13  C   UNL     1      -3.605  -1.927   0.132  0.00  0.00    +0.051 A 
ATOM     14  C   UNL     1      -3.724  -0.672  -0.452  0.00  0.00    +0.025 A 
ATOM     15  C   UNL     1      -4.905   0.033  -0.336  0.00  0.00    +0.002 A 
ATOM     16  C   UNL     1      -5.967  -0.503   0.371  0.00  0.00    +0.002 A 
ATOM     17  C   UNL     1      -5.851  -1.750   0.958  0.00  0.00    +0.022 A 
ATOM     18  C   UNL     1      -4.673  -2.464   0.841  0.00  0.00    +0.062 A 
ATOM     19 CL   UNL     1      -4.529  -4.029   1.578  0.00  0.00    -0.082 Cl
ENDBRANCH  11  13
ENDBRANCH   9  11
BRANCH   1  20
ATOM     20  S   UNL     1      -0.072   1.751  -0.529  0.00  0.00    -0.077 S 
BRANCH  20  21
ATOM     21  C   UNL     1       1.663   2.085  -0.922  0.00  0.00    +0.173 C 
BRANCH  21  23
ATOM     22  N   UNL     1       3.114   4.061  -1.255  0.00  0.00    -0.308 N 
ATOM     23  C   UNL     1       1.889   3.574  -0.977  0.00  0.00    +0.224 C 
ATOM     24  O   UNL     1       0.967   4.335  -0.771  0.00  0.00    -0.275 OA
ATOM     25  H   UNL     1       3.852   3.452  -1.419  0.00  0.00    +0.149 HD
BRANCH  22  27
ATOM     26  C   UNL     1       3.029   6.100   0.070  0.00  0.00    +0.033 C 
ATOM     27  C   UNL     1       3.333   5.508  -1.308  0.00  0.00    +0.052 C 
ATOM     28  C   UNL     1       2.363   6.113  -2.322  0.00  0.00    +0.049 C 
ATOM     29  C   UNL     1       2.964   7.407  -2.939  0.00  0.00    +0.168 C 
ATOM     30  S   UNL     1       4.724   6.873  -3.116  0.00  0.00    -0.029 S 
ATOM     31  O   UNL     1       5.574   7.994  -2.914  0.00  0.00    -0.174 OA
ATOM     32  O   UNL     1       4.859   6.090  -4.294  0.00  0.00    -0.174 OA
ATOM     33  C   UNL     1       4.814   5.772  -1.643  0.00  0.00    +0.191 C 
ENDBRANCH  22  27
ENDBRANCH  21  23
ENDBRANCH  20  21
ENDBRANCH   1  20
TORSDOF 6
