REMARK  Name = ZINC36156637
REMARK  11 active torsions:
REMARK  status: ('A' for Active; 'I' for Inactive)
REMARK    1  A    between atoms: C_4  and  C_7
REMARK    2  A    between atoms: C_7  and  N_8
REMARK    3  A    between atoms: N_8  and  C_9
REMARK    4  A    between atoms: N_8  and  C_25
REMARK    5  A    between atoms: C_9  and  C_10
REMARK    6  A    between atoms: C_25  and  C_26
REMARK    7  A    between atoms: C_26  and  C_28
REMARK    8  A    between atoms: C_26  and  O_37
REMARK    9  A    between atoms: C_28  and  O_29
REMARK   10  A    between atoms: O_29  and  C_30
REMARK   11  A    between atoms: C_30  and  C_31
REMARK                            x       y       z     vdW  Elec       q    Type
REMARK                         _______ _______ _______ _____ _____    ______ ____
ROOT
ATOM      1  N   UNL     1       4.379  -1.064   1.301  0.00  0.00    +0.389 N 
ATOM      2  H   UNL     1       4.490  -0.138   1.688  0.00  0.00    -0.081 HD
ENDROOT
BRANCH   1   3
ATOM      3  C   UNL     1       3.950  -0.961  -0.100  0.00  0.00    -0.042 C 
BRANCH   3   7
ATOM      4  C   UNL     1       0.431   1.449  -0.340  0.00  0.00    +0.000 A 
ATOM      5  C   UNL     1       1.676   2.047  -0.288  0.00  0.00    +0.000 A 
ATOM      6  C   UNL     1       2.815   1.268  -0.210  0.00  0.00    +0.002 A 
ATOM      7  C   UNL     1       2.708  -0.111  -0.184  0.00  0.00    -0.064 A 
ATOM      8  C   UNL     1       1.463  -0.709  -0.234  0.00  0.00    +0.002 A 
ATOM      9  C   UNL     1       0.325   0.071  -0.313  0.00  0.00    +0.000 A 
ENDBRANCH   3   7
ENDBRANCH   1   3
BRANCH   1  10
ATOM     10  C   UNL     1       3.366  -1.797   2.071  0.00  0.00    -0.003 C 
BRANCH  10  11
ATOM     11  C   UNL     1       3.721  -1.759   3.535  0.00  0.00    +0.094 A 
ATOM     12  N   UNL     1       2.994  -2.491   4.418  0.00  0.00    -0.312 N 
ATOM     13  H   UNL     1       2.255  -3.029   4.093  0.00  0.00    +0.170 HD
ATOM     14  C   UNL     1       3.278  -2.485   5.734  0.00  0.00    +0.260 A 
ATOM     15  O   UNL     1       2.616  -3.148   6.513  0.00  0.00    -0.267 OA
ATOM     16  C   UNL     1       4.372  -1.687   6.203  0.00  0.00    +0.075 A 
ATOM     17  C   UNL     1       4.858  -1.527   7.573  0.00  0.00    -0.023 A 
ATOM     18  C   UNL     1       5.916  -0.710   7.755  0.00  0.00    -0.004 A 
ATOM     19  S   UNL     1       6.322  -0.114   6.136  0.00  0.00    -0.073 S 
ATOM     20  C   UNL     1       5.064  -0.966   5.217  0.00  0.00    +0.116 A 
ATOM     21  N   UNL     1       4.728  -1.026   3.932  0.00  0.00    -0.229 NA
ATOM     22  C   UNL     1       6.596  -0.380   9.049  0.00  0.00    +0.043 C 
ATOM     23  C   UNL     1       5.682  -0.818  10.202  0.00  0.00    +0.005 C 
ATOM     24  C   UNL     1       5.196  -2.244   9.928  0.00  0.00    +0.005 C 
ATOM     25  C   UNL     1       4.212  -2.242   8.756  0.00  0.00    +0.037 C 
ENDBRANCH  10  11
ENDBRANCH   1  10
BRANCH   1  26
ATOM     26  C   UNL     1       5.660  -1.780   1.370  0.00  0.00    -0.044 C 
BRANCH  26  27
ATOM     27  C   UNL     1       6.744  -0.955   0.674  0.00  0.00    +0.124 C 
BRANCH  27  28
ATOM     28  O   UNL     1       6.952   0.261   1.395  0.00  0.00    -0.391 OA
ATOM     29  H   UNL     1       7.235   0.133   2.310  0.00  0.00    +0.210 HD
ENDBRANCH  27  28
BRANCH  27  30
ATOM     30  C   UNL     1       8.048  -1.755   0.635  0.00  0.00    +0.189 C 
BRANCH  30  31
ATOM     31  O   UNL     1       9.027  -1.034  -0.115  0.00  0.00    -0.373 OA
BRANCH  31  32
ATOM     32  C   UNL     1      10.289  -1.697  -0.213  0.00  0.00    +0.195 C 
BRANCH  32  33
ATOM     33  C   UNL     1      11.239  -0.852  -1.021  0.00  0.00    -0.022 A 
ATOM     34  C   UNL     1      11.306  -1.006  -2.393  0.00  0.00    +0.006 A 
ATOM     35  C   UNL     1      12.178  -0.231  -3.135  0.00  0.00    +0.000 A 
ATOM     36  C   UNL     1      12.983   0.700  -2.504  0.00  0.00    +0.000 A 
ATOM     37  C   UNL     1      12.915   0.855  -1.132  0.00  0.00    +0.000 A 
ATOM     38  C   UNL     1      12.040   0.083  -0.391  0.00  0.00    +0.006 A 
ENDBRANCH  32  33
ENDBRANCH  31  32
ENDBRANCH  30  31
ENDBRANCH  27  30
ENDBRANCH  26  27
ENDBRANCH   1  26
TORSDOF 11
