REMARK  Name = ZINC35246740
REMARK  8 active torsions:
REMARK  status: ('A' for Active; 'I' for Inactive)
REMARK    1  A    between atoms: C_4  and  C_7
REMARK    2  A    between atoms: C_7  and  N_8
REMARK    3  A    between atoms: N_8  and  C_9
REMARK    4  A    between atoms: N_8  and  C_17
REMARK    5  A    between atoms: C_9  and  C_10
REMARK    6  A    between atoms: C_17  and  C_18
REMARK    7  A    between atoms: C_21  and  C_23
REMARK    8  A    between atoms: N_25  and  C_26
REMARK                            x       y       z     vdW  Elec       q    Type
REMARK                         _______ _______ _______ _____ _____    ______ ____
ROOT
ATOM      1  C   UNL     1       3.183  -1.685   1.966  0.00  0.00    -0.002 C 
ENDROOT
BRANCH   1   2
ATOM      2  C   UNL     1       1.843  -1.000   1.895  0.00  0.00    +0.090 A 
ATOM      3  C   UNL     1       0.952  -1.116   0.885  0.00  0.00    +0.043 A 
ATOM      4  C   UNL     1      -0.155  -0.321   1.218  0.00  0.00    +0.055 A 
ATOM      5  C   UNL     1       0.119   0.248   2.428  0.00  0.00    +0.189 A 
ATOM      6  O   UNL     1       1.335  -0.181   2.825  0.00  0.00    -0.457 OA
BRANCH   5   7
ATOM      7  C   UNL     1      -0.757   1.162   3.170  0.00  0.00    +0.280 C 
ATOM      8  O   UNL     1      -1.839   1.475   2.709  0.00  0.00    -0.267 OA
ATOM      9  N   UNL     1      -0.363   1.654   4.361  0.00  0.00    -0.298 N 
ATOM     10  H   UNL     1       0.499   1.405   4.728  0.00  0.00    +0.150 HD
BRANCH   9  11
ATOM     11  C   UNL     1      -1.238   2.567   5.101  0.00  0.00    +0.159 C 
ATOM     12  C   UNL     1      -0.905   2.501   6.594  0.00  0.00    +0.032 C 
ATOM     13  C   UNL     1      -2.101   2.917   7.430  0.00  0.00    +0.004 C 
ATOM     14  C   UNL     1      -2.478   4.379   7.277  0.00  0.00    +0.019 C 
ATOM     15  C   UNL     1      -2.997   4.664   5.866  0.00  0.00    +0.104 C 
ATOM     16  N   UNL     1      -1.849   4.958   4.993  0.00  0.00    -0.314 N 
ATOM     17  C   UNL     1      -1.019   3.985   4.618  0.00  0.00    +0.233 C 
ATOM     18  O   UNL     1      -0.082   4.238   3.891  0.00  0.00    -0.274 OA
ATOM     19  H   UNL     1      -1.698   5.866   4.685  0.00  0.00    +0.149 HD
ENDBRANCH   9  11
ENDBRANCH   5   7
ENDBRANCH   1   2
BRANCH   1  20
ATOM     20  N   UNL     1       4.181  -0.882   1.246  0.00  0.00    +0.390 N 
ATOM     21  H   UNL     1       3.859  -0.709   0.306  0.00  0.00    -0.080 HD
BRANCH  20  22
ATOM     22  C   UNL     1       5.456  -1.612   1.200  0.00  0.00    -0.042 C 
BRANCH  22  26
ATOM     23  C   UNL     1       4.990  -5.146  -1.153  0.00  0.00    +0.000 A 
ATOM     24  C   UNL     1       5.261  -3.938  -1.767  0.00  0.00    +0.000 A 
ATOM     25  C   UNL     1       5.412  -2.794  -1.005  0.00  0.00    +0.002 A 
ATOM     26  C   UNL     1       5.291  -2.858   0.370  0.00  0.00    -0.064 A 
ATOM     27  C   UNL     1       5.019  -4.067   0.984  0.00  0.00    +0.002 A 
ATOM     28  C   UNL     1       4.870  -5.211   0.223  0.00  0.00    +0.000 A 
ENDBRANCH  22  26
ENDBRANCH  20  22
BRANCH  20  29
ATOM     29  C   UNL     1       4.375   0.398   1.942  0.00  0.00    -0.042 C 
BRANCH  29  30
ATOM     30  C   UNL     1       5.305   1.270   1.139  0.00  0.00    -0.064 A 
ATOM     31  C   UNL     1       6.669   1.206   1.353  0.00  0.00    +0.004 A 
ATOM     32  C   UNL     1       7.523   2.005   0.617  0.00  0.00    +0.038 A 
ATOM     33  C   UNL     1       7.012   2.870  -0.335  0.00  0.00    +0.123 A 
ATOM     34  C   UNL     1       5.646   2.934  -0.549  0.00  0.00    +0.038 A 
ATOM     35  C   UNL     1       4.794   2.130   0.185  0.00  0.00    +0.004 A 
ATOM     36  F   UNL     1       7.846   3.652  -1.055  0.00  0.00    -0.205 F 
ENDBRANCH  29  30
ENDBRANCH  20  29
ENDBRANCH   1  20
TORSDOF 8
