REMARK  Name = ZINC08125229
REMARK  10 active torsions:
REMARK  status: ('A' for Active; 'I' for Inactive)
REMARK    1  A    between atoms: C_1  and  C_2
REMARK    2  A    between atoms: C_2  and  C_3
REMARK    3  A    between atoms: C_3  and  C_5
REMARK    4  A    between atoms: C_3  and  C_6
REMARK    5  A    between atoms: C_6  and  C_8
REMARK    6  A    between atoms: C_6  and  N_21
REMARK    7  A    between atoms: N_10  and  C_11
REMARK    8  A    between atoms: C_11  and  C_12
REMARK    9  A    between atoms: C_12  and  S_13
REMARK   10  A    between atoms: S_13  and  C_14
REMARK                            x       y       z     vdW  Elec       q    Type
REMARK                         _______ _______ _______ _____ _____    ______ ____
ROOT
ATOM      1  C   UNL     1      -3.043   1.993   0.338  0.00  0.00    +0.234 C 
ATOM      2  O   UNL     1      -2.938   1.135   1.188  0.00  0.00    -0.274 OA
ATOM      3  N   UNL     1      -4.245   2.546   0.083  0.00  0.00    -0.313 N 
ATOM      4  H   UNL     1      -4.343   3.179  -0.645  0.00  0.00    +0.149 HD
ENDROOT
BRANCH   1   5
ATOM      5  C   UNL     1      -1.829   2.441  -0.435  0.00  0.00    +0.163 C 
BRANCH   5   6
ATOM      6  N   UNL     1      -0.631   1.815   0.132  0.00  0.00    -0.288 N 
ATOM      7  C   UNL     1       0.499   2.534   0.279  0.00  0.00    +0.298 C 
ATOM      8  O   UNL     1       0.550   3.678  -0.132  0.00  0.00    -0.253 OA
ATOM      9  N   UNL     1       1.573   1.986   0.882  0.00  0.00    -0.313 N 
ATOM     10  H   UNL     1      -0.651   0.883   0.398  0.00  0.00    +0.151 HD
ATOM     11  H   UNL     1       1.532   1.074   1.210  0.00  0.00    +0.146 HD
ATOM     12  H   UNL     1       2.387   2.504   0.988  0.00  0.00    +0.146 HD
ENDBRANCH   5   6
BRANCH   5  13
ATOM     13  C   UNL     1      -1.975   2.027  -1.900  0.00  0.00    +0.015 C 
ATOM     14  C   UNL     1      -0.817   2.610  -2.713  0.00  0.00    +0.010 C 
BRANCH  13  16
ATOM     15  C   UNL     1      -3.249  -0.069  -1.425  0.00  0.00    +0.004 C 
ATOM     16  C   UNL     1      -1.953   0.500  -2.004  0.00  0.00    +0.002 C 
ENDBRANCH  13  16
ENDBRANCH   5  13
ENDBRANCH   1   5
BRANCH   3  17
ATOM     17  C   UNL     1      -5.403   2.193   0.908  0.00  0.00    +0.115 C 
BRANCH  17  18
ATOM     18  C   UNL     1      -6.634   2.955   0.412  0.00  0.00    +0.093 C 
BRANCH  18  19
ATOM     19  S   UNL     1      -8.068   2.517   1.433  0.00  0.00    -0.124 S 
BRANCH  19  20
ATOM     20  C   UNL     1      -9.386   3.463   0.745  0.00  0.00    +0.008 A 
ATOM     21  C   UNL     1      -9.149   4.301  -0.338  0.00  0.00    +0.016 A 
ATOM     22  C   UNL     1     -10.185   5.038  -0.878  0.00  0.00    +0.021 A 
ATOM     23  C   UNL     1     -11.455   4.949  -0.336  0.00  0.00    +0.041 A 
ATOM     24  C   UNL     1     -11.693   4.120   0.746  0.00  0.00    +0.021 A 
ATOM     25  C   UNL     1     -10.662   3.377   1.287  0.00  0.00    +0.016 A 
ATOM     26 CL   UNL     1     -12.754   5.881  -1.014  0.00  0.00    -0.084 Cl
ENDBRANCH  19  20
ENDBRANCH  18  19
ENDBRANCH  17  18
ENDBRANCH   3  17
TORSDOF 8
