REMARK  Name = ZINC52166824
REMARK  9 active torsions:
REMARK  status: ('A' for Active; 'I' for Inactive)
REMARK    1  A    between atoms: C_1  and  C_2
REMARK    2  A    between atoms: C_2  and  C_3
REMARK    3  A    between atoms: C_4  and  C_12
REMARK    4  A    between atoms: C_13  and  C_14
REMARK    5  A    between atoms: N_16  and  C_17
REMARK    6  A    between atoms: C_17  and  C_19
REMARK    7  A    between atoms: C_17  and  C_20
REMARK    8  A    between atoms: C_24  and  S_26
REMARK    9  A    between atoms: S_26  and  N_29
REMARK                            x       y       z     vdW  Elec       q    Type
REMARK                         _______ _______ _______ _____ _____    ______ ____
ROOT
ATOM      1  C   UNL     1      -1.531  -1.506  -4.722  0.00  0.00    +0.237 C 
ATOM      2  O   UNL     1      -1.035  -0.459  -5.098  0.00  0.00    -0.271 OA
ATOM      3  N   UNL     1      -1.705  -2.520  -5.592  0.00  0.00    -0.305 N 
ATOM      4  H   UNL     1      -2.100  -3.354  -5.293  0.00  0.00    +0.150 HD
ENDROOT
BRANCH   1   6
ATOM      5  C   UNL     1      -1.749  -0.639  -2.496  0.00  0.00    +0.017 C 
ATOM      6  C   UNL     1      -1.924  -1.658  -3.370  0.00  0.00    +0.068 C 
BRANCH   5   8
ATOM      7  C   UNL     1      -1.412  -0.526   0.013  0.00  0.00    +0.113 A 
ATOM      8  C   UNL     1      -2.156  -0.796  -1.097  0.00  0.00    +0.024 A 
ATOM      9  C   UNL     1      -3.459  -1.280  -0.596  0.00  0.00    +0.028 A 
ATOM     10  C   UNL     1      -4.633  -1.711  -1.204  0.00  0.00    +0.012 A 
ATOM     11  C   UNL     1      -5.699  -2.107  -0.425  0.00  0.00    +0.001 A 
ATOM     12  C   UNL     1      -5.601  -2.076   0.958  0.00  0.00    +0.004 A 
ATOM     13  C   UNL     1      -4.442  -1.651   1.572  0.00  0.00    +0.047 A 
ATOM     14  C   UNL     1      -3.357  -1.248   0.802  0.00  0.00    +0.136 A 
ATOM     15  O   UNL     1      -2.124  -0.799   1.113  0.00  0.00    -0.459 OA
BRANCH   7  17
ATOM     16  C   UNL     1      -0.019   1.526   0.010  0.00  0.00    +0.012 C 
ATOM     17  C   UNL     1       0.002  -0.004   0.002  0.00  0.00    +0.071 C 
ENDBRANCH   7  17
ENDBRANCH   5   8
ENDBRANCH   1   6
BRANCH   3  18
ATOM     18  C   UNL     1      -1.298  -2.363  -6.991  0.00  0.00    +0.100 C 
ATOM     19  C   UNL     1       0.189  -2.694  -7.130  0.00  0.00    +0.033 C 
BRANCH  18  20
ATOM     20  C   UNL     1      -2.103  -3.298  -7.856  0.00  0.00    -0.026 A 
ATOM     21  C   UNL     1      -2.388  -4.576  -7.415  0.00  0.00    +0.005 A 
ATOM     22  C   UNL     1      -3.127  -5.434  -8.208  0.00  0.00    +0.002 A 
ATOM     23  C   UNL     1      -3.582  -5.012  -9.444  0.00  0.00    +0.028 A 
ATOM     24  C   UNL     1      -3.298  -3.733  -9.885  0.00  0.00    +0.105 A 
ATOM     25  C   UNL     1      -2.563  -2.874  -9.089  0.00  0.00    +0.034 A 
BRANCH  24  26
ATOM     26  S   UNL     1      -3.877  -3.196 -11.460  0.00  0.00    +0.056 S 
ATOM     27  O   UNL     1      -3.015  -2.144 -11.873  0.00  0.00    -0.153 OA
ATOM     28  O   UNL     1      -4.078  -4.367 -12.240  0.00  0.00    -0.153 OA
BRANCH  26  29
ATOM     29  N   UNL     1      -5.371  -2.520 -11.228  0.00  0.00    -0.204 NA
ATOM     30  H   UNL     1      -5.676  -1.807 -11.811  0.00  0.00    +0.144 HD
ATOM     31  H   UNL     1      -5.940  -2.837 -10.510  0.00  0.00    +0.144 HD
ENDBRANCH  26  29
ENDBRANCH  24  26
ENDBRANCH  18  20
ENDBRANCH   3  18
TORSDOF 7
