REMARK  Name = ZINC59166595
REMARK  12 active torsions:
REMARK  status: ('A' for Active; 'I' for Inactive)
REMARK    1  A    between atoms: C_1  and  C_2
REMARK    2  A    between atoms: C_2  and  C_3
REMARK    3  A    between atoms: C_2  and  C_4
REMARK    4  A    between atoms: C_2  and  C_10
REMARK    5  A    between atoms: C_13  and  O_16
REMARK    6  A    between atoms: O_16  and  C_17
REMARK    7  A    between atoms: C_17  and  C_18
REMARK    8  A    between atoms: N_20  and  N_21
REMARK    9  A    between atoms: C_22  and  C_23
REMARK   10  A    between atoms: C_24  and  O_31
REMARK   11  A    between atoms: C_26  and  O_30
REMARK   12  A    between atoms: C_28  and  O_29
REMARK                            x       y       z     vdW  Elec       q    Type
REMARK                         _______ _______ _______ _____ _____    ______ ____
ROOT
ATOM      1  C   UNL     1       4.634  -2.065  -5.990  0.00  0.00    +0.270 C 
ATOM      2  O   UNL     1       3.905  -2.676  -6.744  0.00  0.00    -0.270 OA
ATOM      3  N   UNL     1       5.933  -1.890  -6.304  0.00  0.00    -0.204 N 
ATOM      4  H   UNL     1       6.516  -1.401  -5.701  0.00  0.00    +0.177 HD
ENDROOT
BRANCH   3   5
ATOM      5  N   UNL     1       6.442  -2.413  -7.500  0.00  0.00    -0.187 NA
ATOM      6  C   UNL     1       7.694  -2.244  -7.801  0.00  0.00    +0.145 C 
BRANCH   6   7
ATOM      7  C   UNL     1       8.229  -2.793  -9.058  0.00  0.00    +0.078 A 
ATOM      8  C   UNL     1       7.388  -3.495  -9.934  0.00  0.00    +0.132 A 
ATOM      9  C   UNL     1       7.898  -4.008 -11.113  0.00  0.00    +0.091 A 
ATOM     10  C   UNL     1       9.238  -3.831 -11.430  0.00  0.00    +0.124 A 
ATOM     11  C   UNL     1      10.076  -3.137 -10.568  0.00  0.00    +0.091 A 
ATOM     12  C   UNL     1       9.579  -2.613  -9.387  0.00  0.00    +0.132 A 
BRANCH  12  13
ATOM     13  O   UNL     1      10.400  -1.931  -8.547  0.00  0.00    -0.506 OA
ATOM     14  H   UNL     1      10.839  -2.486  -7.889  0.00  0.00    +0.292 HD
ENDBRANCH  12  13
BRANCH  10  15
ATOM     15  O   UNL     1       9.731  -4.338 -12.589  0.00  0.00    -0.507 OA
ATOM     16  H   UNL     1       9.676  -3.731 -13.339  0.00  0.00    +0.292 HD
ENDBRANCH  10  15
BRANCH   8  17
ATOM     17  O   UNL     1       6.077  -3.671  -9.626  0.00  0.00    -0.506 OA
ATOM     18  H   UNL     1       5.499  -2.967  -9.950  0.00  0.00    +0.292 HD
ENDBRANCH   8  17
ENDBRANCH   6   7
ENDBRANCH   3   5
BRANCH   1  19
ATOM     19  C   UNL     1       4.087  -1.502  -4.704  0.00  0.00    +0.326 C 
BRANCH  19  20
ATOM     20  O   UNL     1       2.697  -1.817  -4.600  0.00  0.00    -0.483 OA
BRANCH  20  24
ATOM     21  C   UNL     1       0.723  -0.489  -1.229  0.00  0.00    -0.037 A 
ATOM     22  C   UNL     1       0.037  -1.204  -2.194  0.00  0.00    +0.008 A 
ATOM     23  C   UNL     1       0.696  -1.649  -3.324  0.00  0.00    +0.046 A 
ATOM     24  C   UNL     1       2.046  -1.379  -3.490  0.00  0.00    +0.121 A 
ATOM     25  C   UNL     1       2.732  -0.661  -2.521  0.00  0.00    +0.046 A 
ATOM     26  C   UNL     1       2.068  -0.213  -1.395  0.00  0.00    +0.008 A 
BRANCH  21  28
ATOM     27  C   UNL     1      -1.120   0.953  -0.407  0.00  0.00    +0.021 C 
ATOM     28  C   UNL     1       0.002  -0.004   0.002  0.00  0.00    +0.015 C 
ATOM     29  C   UNL     1       0.988   0.727   0.915  0.00  0.00    +0.021 C 
BRANCH  28  30
ATOM     30  C   UNL     1      -0.585  -1.182   0.737  0.00  0.00    -0.037 A 
ATOM     31  C   UNL     1       0.225  -2.238   1.108  0.00  0.00    +0.004 A 
ATOM     32  C   UNL     1      -0.313  -3.318   1.782  0.00  0.00    +0.000 A 
ATOM     33  C   UNL     1      -1.662  -3.342   2.085  0.00  0.00    +0.000 A 
ATOM     34  C   UNL     1      -2.472  -2.285   1.714  0.00  0.00    +0.000 A 
ATOM     35  C   UNL     1      -1.933  -1.202   1.044  0.00  0.00    +0.004 A 
ENDBRANCH  28  30
ENDBRANCH  21  28
ENDBRANCH  20  24
ENDBRANCH  19  20
ENDBRANCH   1  19
TORSDOF 10
