REMARK  Name = ZINC44737511
REMARK  7 active torsions:
REMARK  status: ('A' for Active; 'I' for Inactive)
REMARK    1  A    between atoms: C_1  and  C_2
REMARK    2  A    between atoms: C_9  and  C_11
REMARK    3  A    between atoms: C_11  and  C_13
REMARK    4  A    between atoms: C_11  and  N_14
REMARK    5  A    between atoms: C_15  and  C_17
REMARK    6  A    between atoms: C_28  and  C_30
REMARK    7  A    between atoms: C_33  and  C_35
REMARK                            x       y       z     vdW  Elec       q    Type
REMARK                         _______ _______ _______ _____ _____    ______ ____
ROOT
ATOM      1  C   UNL     1       1.859  -8.940   1.133  0.00  0.00    +0.100 C 
ATOM      2  C   UNL     1       3.044  -8.361   0.328  0.00  0.00    +0.121 C 
ATOM      3  N   UNL     1       4.246  -8.737   1.109  0.00  0.00    -0.294 N 
ATOM      4  C   UNL     1       3.961 -10.111   1.588  0.00  0.00    +0.115 C 
ATOM      5  C   UNL     1       2.464 -10.090   1.956  0.00  0.00    -0.004 C 
ATOM      6  C   UNL     1       1.808 -11.414   1.575  0.00  0.00    -0.010 C 
ATOM      7  C   UNL     1       2.385 -12.533   2.447  0.00  0.00    -0.082 C 
ATOM      8  N   UNL     1       2.138 -12.230   3.862  0.00  0.00    +0.379 N 
ATOM      9  C   UNL     1       2.849 -11.004   4.243  0.00  0.00    -0.082 C 
ATOM     10  C   UNL     1       2.292  -9.820   3.447  0.00  0.00    -0.010 C 
ATOM     11  C   UNL     1       5.350  -7.996   1.334  0.00  0.00    +0.282 C 
ATOM     12  O   UNL     1       6.297  -8.479   1.926  0.00  0.00    -0.267 OA
ATOM     13  H   UNL     1       1.147 -12.103   4.009  0.00  0.00    -0.086 HD
ATOM     14  H   UNL     1       2.463 -12.997   4.431  0.00  0.00    -0.086 HD
ENDROOT
BRANCH  11  15
ATOM     15  C   UNL     1       5.409  -6.609   0.866  0.00  0.00    +0.190 A 
ATOM     16  C   UNL     1       6.505  -5.777   0.938  0.00  0.00    +0.055 A 
ATOM     17  C   UNL     1       6.120  -4.554   0.380  0.00  0.00    +0.050 A 
ATOM     18  C   UNL     1       4.818  -4.683  -0.010  0.00  0.00    +0.136 A 
ATOM     19  O   UNL     1       4.402  -5.926   0.282  0.00  0.00    -0.450 OA
BRANCH  18  20
ATOM     20  C   UNL     1       4.004  -3.631  -0.651  0.00  0.00    +0.017 A 
ATOM     21  C   UNL     1       4.588  -2.415  -1.014  0.00  0.00    +0.014 A 
ATOM     22  C   UNL     1       3.824  -1.437  -1.613  0.00  0.00    +0.039 A 
ATOM     23  C   UNL     1       2.477  -1.658  -1.856  0.00  0.00    +0.123 A 
ATOM     24  C   UNL     1       1.891  -2.862  -1.497  0.00  0.00    +0.039 A 
ATOM     25  C   UNL     1       2.647  -3.850  -0.903  0.00  0.00    +0.014 A 
ATOM     26  F   UNL     1       1.732  -0.696  -2.443  0.00  0.00    -0.205 F 
ENDBRANCH  18  20
ENDBRANCH  11  15
BRANCH   1  28
ATOM     27  N   UNL     1      -0.017  -7.943   2.400  0.00  0.00    -0.305 N 
ATOM     28  C   UNL     1       1.282  -7.889   2.046  0.00  0.00    +0.219 C 
ATOM     29  O   UNL     1       1.988  -6.994   2.463  0.00  0.00    -0.275 OA
ATOM     30  H   UNL     1      -0.563  -8.696   2.127  0.00  0.00    +0.149 HD
BRANCH  27  31
ATOM     31  C   UNL     1      -0.605  -6.863   3.196  0.00  0.00    +0.136 C 
ATOM     32  C   UNL     1      -0.380  -7.145   4.683  0.00  0.00    +0.036 C 
BRANCH  31  41
ATOM     33  C   UNL     1      -7.784  -5.181   2.189  0.00  0.00    +0.044 C 
ATOM     34  C   UNL     1      -6.483  -5.939   2.250  0.00  0.00    -0.048 A 
ATOM     35  C   UNL     1      -6.450  -7.281   1.898  0.00  0.00    +0.005 A 
ATOM     36  C   UNL     1      -5.281  -7.986   1.947  0.00  0.00    +0.030 A 
ATOM     37  C   UNL     1      -4.104  -7.354   2.355  0.00  0.00    +0.089 A 
ATOM     38  C   UNL     1      -4.136  -5.995   2.711  0.00  0.00    +0.067 A 
ATOM     39  C   UNL     1      -5.333  -5.294   2.651  0.00  0.00    +0.031 A 
ATOM     40  N   UNL     1      -2.844  -5.662   3.063  0.00  0.00    -0.340 N 
ATOM     41  C   UNL     1      -2.084  -6.781   2.918  0.00  0.00    +0.128 A 
ATOM     42  N   UNL     1      -2.820  -7.771   2.504  0.00  0.00    -0.231 NA
ATOM     43  H   UNL     1      -2.534  -4.791   3.358  0.00  0.00    +0.167 HD
ENDBRANCH  31  41
ENDBRANCH  27  31
ENDBRANCH   1  28
TORSDOF 5
