REMARK  Name = ZINC59387830
REMARK  11 active torsions:
REMARK  status: ('A' for Active; 'I' for Inactive)
REMARK    1  A    between atoms: C_1  and  C_2
REMARK    2  A    between atoms: C_2  and  C_4
REMARK    3  A    between atoms: C_2  and  N_12
REMARK    4  A    between atoms: N_12  and  C_13
REMARK    5  A    between atoms: N_12  and  C_14
REMARK    6  A    between atoms: C_14  and  C_15
REMARK    7  A    between atoms: N_17  and  C_18
REMARK    8  A    between atoms: C_18  and  C_20
REMARK    9  A    between atoms: C_18  and  C_31
REMARK   10  A    between atoms: C_31  and  C_32
REMARK   11  A    between atoms: C_31  and  C_33
REMARK                            x       y       z     vdW  Elec       q    Type
REMARK                         _______ _______ _______ _____ _____    ______ ____
ROOT
ATOM      1  C   UNL     1      -3.532  -0.445  -1.106  0.00  0.00    +0.197 C 
ATOM      2  O   UNL     1      -3.932  -1.085  -0.157  0.00  0.00    -0.278 OA
ATOM      3  N   UNL     1      -4.382  -0.107  -2.096  0.00  0.00    -0.310 N 
ATOM      4  H   UNL     1      -4.062   0.405  -2.855  0.00  0.00    +0.149 HD
ENDROOT
BRANCH   1   5
ATOM      5  C   UNL     1      -2.087  -0.026  -1.178  0.00  0.00    +0.019 C 
BRANCH   5   6
ATOM      6  N   UNL     1      -1.376  -0.512   0.012  0.00  0.00    +0.388 N 
ATOM      7  C   UNL     1      -1.356  -1.981   0.004  0.00  0.00    -0.095 C 
ATOM      8  H   UNL     1      -1.848  -0.187   0.843  0.00  0.00    -0.081 HD
BRANCH   6  10
ATOM      9  C   UNL     1      -0.019   1.526   0.010  0.00  0.00    -0.008 C 
ATOM     10  C   UNL     1       0.002  -0.004   0.002  0.00  0.00    -0.038 C 
BRANCH  10  11
ATOM     11  C   UNL     1       0.731  -0.503   1.223  0.00  0.00    -0.023 A 
ATOM     12  C   UNL     1       0.018  -0.951   2.319  0.00  0.00    +0.043 A 
ATOM     13  C   UNL     1       0.687  -1.410   3.440  0.00  0.00    +0.124 A 
ATOM     14  C   UNL     1       2.071  -1.421   3.464  0.00  0.00    +0.041 A 
ATOM     15  C   UNL     1       2.785  -0.973   2.368  0.00  0.00    +0.041 A 
ATOM     16  C   UNL     1       2.115  -0.519   1.244  0.00  0.00    +0.125 A 
ATOM     17  F   UNL     1       2.812  -0.086   0.171  0.00  0.00    -0.205 F 
ATOM     18  F   UNL     1      -0.010  -1.847   4.512  0.00  0.00    -0.205 F 
ENDBRANCH  10  11
ENDBRANCH   6  10
ENDBRANCH   5   6
ENDBRANCH   1   5
BRANCH   3  19
ATOM     19  C   UNL     1      -5.787  -0.514  -2.026  0.00  0.00    +0.106 C 
BRANCH  19  20
ATOM     20  C   UNL     1      -6.626   0.435  -2.843  0.00  0.00    -0.023 A 
ATOM     21  C   UNL     1      -6.160   0.893  -4.061  0.00  0.00    +0.009 A 
ATOM     22  C   UNL     1      -6.925   1.764  -4.816  0.00  0.00    +0.050 A 
ATOM     23  C   UNL     1      -8.161   2.176  -4.347  0.00  0.00    +0.162 A 
ATOM     24  C   UNL     1      -8.629   1.716  -3.124  0.00  0.00    +0.162 A 
ATOM     25  C   UNL     1      -7.863   0.841  -2.373  0.00  0.00    +0.055 A 
ATOM     26  O   UNL     1      -9.849   2.127  -2.671  0.00  0.00    -0.488 OA
ATOM     27  C   UNL     1      -9.949   3.506  -2.309  0.00  0.00    +0.232 C 
ATOM     28  C   UNL     1     -10.238   4.364  -3.531  0.00  0.00    +0.082 C 
ATOM     29  C   UNL     1      -9.097   4.343  -4.536  0.00  0.00    +0.232 C 
ATOM     30  O   UNL     1      -8.926   3.034  -5.082  0.00  0.00    -0.488 OA
ENDBRANCH  19  20
BRANCH  19  31
ATOM     31  C   UNL     1      -5.936  -1.932  -2.581  0.00  0.00    +0.008 C 
ATOM     32  C   UNL     1      -5.084  -2.896  -1.752  0.00  0.00    +0.009 C 
ATOM     33  C   UNL     1      -7.404  -2.357  -2.508  0.00  0.00    +0.009 C 
ENDBRANCH  19  31
ENDBRANCH   3  19
TORSDOF 7
