REMARK  Name = ZINC36954747
REMARK  4 active torsions:
REMARK  status: ('A' for Active; 'I' for Inactive)
REMARK    1  A    between atoms: C_3  and  O_21
REMARK    2  A    between atoms: C_4  and  C_8
REMARK    3  A    between atoms: C_8  and  N_9
REMARK    4  A    between atoms: N_9  and  C_10
REMARK                            x       y       z     vdW  Elec       q    Type
REMARK                         _______ _______ _______ _____ _____    ______ ____
ROOT
ATOM      1  N   UNL     1       4.267  -0.753   1.317  0.00  0.00    -0.339 N 
ATOM      2  H   UNL     1       3.788  -0.336   2.050  0.00  0.00    +0.146 HD
ENDROOT
BRANCH   1   3
ATOM      3  C   UNL     1       5.491  -1.389   1.553  0.00  0.00    +0.045 A 
ATOM      4  C   UNL     1       6.181  -1.980   0.504  0.00  0.00    +0.073 A 
ATOM      5  C   UNL     1       7.393  -2.610   0.738  0.00  0.00    +0.164 A 
ATOM      6  C   UNL     1       7.918  -2.648   2.025  0.00  0.00    +0.163 A 
ATOM      7  C   UNL     1       7.226  -2.058   3.071  0.00  0.00    +0.066 A 
ATOM      8  C   UNL     1       6.020  -1.425   2.837  0.00  0.00    +0.042 A 
ATOM      9 BR   UNL     1       5.084  -0.615   4.267  0.00  0.00    -0.048 Br
ATOM     10  O   UNL     1       9.112  -3.255   2.272  0.00  0.00    -0.485 OA
ATOM     11  C   UNL     1       9.595  -4.157   1.271  0.00  0.00    +0.270 C 
ATOM     12  C   UNL     1       9.443  -3.481  -0.099  0.00  0.00    +0.270 C 
ATOM     13  O   UNL     1       8.056  -3.189  -0.301  0.00  0.00    -0.485 OA
ENDBRANCH   1   3
BRANCH   1  14
ATOM     14  C   UNL     1       3.711  -0.715  -0.038  0.00  0.00    +0.140 C 
BRANCH  14  18
ATOM     15  C   UNL     1      -0.017   1.379   0.010  0.00  0.00    +0.023 A 
ATOM     16  C   UNL     1       1.170   2.087   0.002  0.00  0.00    +0.047 A 
ATOM     17  C   UNL     1       2.380   1.410  -0.013  0.00  0.00    +0.122 A 
ATOM     18  C   UNL     1       2.397   0.023  -0.021  0.00  0.00    +0.012 A 
ATOM     19  C   UNL     1       1.209  -0.681  -0.013  0.00  0.00    +0.028 A 
ATOM     20  C   UNL     1       0.002  -0.004   0.002  0.00  0.00    +0.042 A 
ATOM     21 CL   UNL     1      -1.490  -0.891   0.011  0.00  0.00    -0.084 Cl
BRANCH  17  22
ATOM     22  O   UNL     1       3.549   2.105  -0.021  0.00  0.00    -0.506 OA
ATOM     23  H   UNL     1       3.895   2.301   0.860  0.00  0.00    +0.292 HD
ENDBRANCH  17  22
ENDBRANCH  14  18
ENDBRANCH   1  14
TORSDOF 4
