REMARK  Name = ZINC11270635
REMARK  10 active torsions:
REMARK  status: ('A' for Active; 'I' for Inactive)
REMARK    1  A    between atoms: C_1  and  C_2
REMARK    2  A    between atoms: N_10  and  N_14
REMARK    3  A    between atoms: C_15  and  C_17
REMARK    4  A    between atoms: C_17  and  N_18
REMARK    5  A    between atoms: C_21  and  C_25
REMARK    6  A    between atoms: C_21  and  C_26
REMARK    7  A    between atoms: C_29  and  C_32
REMARK    8  A    between atoms: C_32  and  C_33
REMARK    9  A    between atoms: C_32  and  C_34
REMARK   10  A    between atoms: C_32  and  C_35
REMARK                            x       y       z     vdW  Elec       q    Type
REMARK                         _______ _______ _______ _____ _____    ______ ____
ROOT
ATOM      1  C   UNL     1       0.206   3.461  -3.138  0.00  0.00    +0.215 C 
ENDROOT
BRANCH   1   2
ATOM      2  N   UNL     1       0.355   2.760  -1.860  0.00  0.00    -0.215 N 
ATOM      3  C   UNL     1      -0.619   2.035  -1.276  0.00  0.00    +0.251 C 
ATOM      4  O   UNL     1      -1.742   1.847  -1.692  0.00  0.00    -0.272 OA
ATOM      5  C   UNL     1      -0.018   1.503   0.010  0.00  0.00    +0.135 C 
ATOM      6  N   UNL     1       1.353   2.040   0.000  0.00  0.00    -0.281 N 
ATOM      7  C   UNL     1       1.476   2.759  -1.130  0.00  0.00    +0.310 C 
ATOM      8  O   UNL     1       2.492   3.344  -1.451  0.00  0.00    -0.252 OA
ATOM      9  C   UNL     1      -0.791   2.022   1.224  0.00  0.00    +0.047 C 
ATOM     10  H   UNL     1       2.035   1.901   0.676  0.00  0.00    +0.152 HD
BRANCH   5  11
ATOM     11  C   UNL     1       0.002  -0.004   0.002  0.00  0.00    -0.015 A 
ATOM     12  C   UNL     1      -1.018  -0.706  -0.612  0.00  0.00    +0.006 A 
ATOM     13  C   UNL     1      -0.998  -2.088  -0.623  0.00  0.00    +0.004 A 
ATOM     14  C   UNL     1       0.039  -2.768  -0.013  0.00  0.00    -0.042 A 
ATOM     15  C   UNL     1       1.057  -2.067   0.606  0.00  0.00    +0.004 A 
ATOM     16  C   UNL     1       1.038  -0.685   0.613  0.00  0.00    +0.006 A 
BRANCH  14  17
ATOM     17  C   UNL     1       0.059  -4.275  -0.020  0.00  0.00    -0.013 C 
ATOM     18  C   UNL     1       0.044  -4.793   1.419  0.00  0.00    +0.015 C 
ATOM     19  C   UNL     1      -1.172  -4.798  -0.763  0.00  0.00    +0.015 C 
ATOM     20  C   UNL     1       1.326  -4.765  -0.725  0.00  0.00    +0.015 C 
ENDBRANCH  14  17
ENDBRANCH   5  11
ENDBRANCH   1   2
BRANCH   1  22
ATOM     21  N   UNL     1       0.546   2.975  -5.539  0.00  0.00    -0.222 N 
ATOM     22  C   UNL     1       0.603   2.542  -4.264  0.00  0.00    +0.248 C 
ATOM     23  O   UNL     1       0.975   1.413  -4.024  0.00  0.00    -0.273 OA
ATOM     24  H   UNL     1       0.249   3.878  -5.732  0.00  0.00    +0.174 HD
BRANCH  21  34
ATOM     25  C   UNL     1       3.110  -1.568 -11.516  0.00  0.00    +0.007 C 
ATOM     26  C   UNL     1       3.180  -0.430 -10.495  0.00  0.00    -0.014 C 
ATOM     27  C   UNL     1       3.105  -1.009  -9.081  0.00  0.00    +0.006 C 
ATOM     28  C   UNL     1       3.185   0.130  -8.060  0.00  0.00    +0.035 C 
ATOM     29  C   UNL     1       2.034   1.103  -8.291  0.00  0.00    +0.114 C 
ATOM     30  C   UNL     1       2.084   1.672  -9.705  0.00  0.00    +0.035 C 
ATOM     31  C   UNL     1       2.008   0.528 -10.719  0.00  0.00    +0.006 C 
ATOM     32  C   UNL     1       2.071   2.221  -7.275  0.00  0.00    +0.263 C 
ATOM     33  O   UNL     1       2.955   3.035  -7.111  0.00  0.00    -0.271 OA
ATOM     34  N   UNL     1       0.915   2.121  -6.587  0.00  0.00    -0.137 N 
ATOM     35  C   UNL     1       0.162   1.108  -7.033  0.00  0.00    +0.326 C 
ATOM     36  O   UNL     1      -0.926   0.822  -6.573  0.00  0.00    -0.251 OA
ATOM     37  N   UNL     1       0.746   0.442  -8.048  0.00  0.00    -0.284 N 
ATOM     38  H   UNL     1       0.386  -0.322  -8.524  0.00  0.00    +0.151 HD
ENDBRANCH  21  34
ENDBRANCH   1  22
TORSDOF 5
