REMARK  Name = ZINC06930255
REMARK  3 active torsions:
REMARK  status: ('A' for Active; 'I' for Inactive)
REMARK    1  A    between atoms: C_5  and  N_7
REMARK    2  A    between atoms: N_7  and  S_8
REMARK    3  A    between atoms: S_8  and  C_11
REMARK                            x       y       z     vdW  Elec       q    Type
REMARK                         _______ _______ _______ _____ _____    ______ ____
ROOT
ATOM      1  C   UNL     1      -6.670   0.269   0.134  0.00  0.00    +0.109 A 
ATOM      2  C   UNL     1      -6.872   0.460   1.491  0.00  0.00    +0.031 A 
ATOM      3  C   UNL     1      -5.863   0.896   2.333  0.00  0.00    +0.028 A 
ATOM      4  C   UNL     1      -4.619   1.137   1.755  0.00  0.00    +0.047 A 
ATOM      5  C   UNL     1      -4.418   0.940   0.365  0.00  0.00    +0.005 A 
ATOM      6  C   UNL     1      -5.455   0.499  -0.463  0.00  0.00    +0.039 A 
ATOM      7  C   UNL     1      -3.033   1.279   0.109  0.00  0.00    -0.019 A 
ATOM      8  C   UNL     1      -2.489   1.643   1.290  0.00  0.00    +0.020 A 
ATOM      9  N   UNL     1      -3.433   1.563   2.280  0.00  0.00    -0.358 N 
ATOM     10  H   UNL     1      -3.281   1.776   3.214  0.00  0.00    +0.166 HD
ATOM     11  C   UNL     1      -1.048   2.068   1.455  0.00  0.00    +0.053 C 
ATOM     12  C   UNL     1      -0.262   1.615   0.220  0.00  0.00    +0.006 C 
ATOM     13  C   UNL     1      -0.997   2.065  -1.046  0.00  0.00    +0.005 C 
ATOM     14  C   UNL     1      -2.286   1.249  -1.200  0.00  0.00    +0.037 C 
ENDROOT
BRANCH   1  15
ATOM     15  S   UNL     1      -8.016  -0.288  -0.858  0.00  0.00    +0.072 S 
ATOM     16  O   UNL     1      -9.205   0.086  -0.175  0.00  0.00    -0.150 OA
ATOM     17  O   UNL     1      -7.739   0.128  -2.188  0.00  0.00    -0.150 OA
BRANCH  15  18
ATOM     18  N   UNL     1      -7.971  -1.943  -0.860  0.00  0.00    -0.215 N 
ATOM     19  H   UNL     1      -7.861  -2.424  -1.694  0.00  0.00    +0.174 HD
BRANCH  18  24
ATOM     20  C   UNL     1      -9.045  -2.872   2.531  0.00  0.00    +0.002 A 
ATOM     21  C   UNL     1      -8.329  -4.039   2.722  0.00  0.00    +0.002 A 
ATOM     22  C   UNL     1      -7.495  -4.513   1.726  0.00  0.00    +0.022 A 
ATOM     23  C   UNL     1      -7.373  -3.820   0.537  0.00  0.00    +0.063 A 
ATOM     24  C   UNL     1      -8.091  -2.647   0.342  0.00  0.00    +0.066 A 
ATOM     25  C   UNL     1      -8.925  -2.171   1.346  0.00  0.00    +0.026 A 
ATOM     26 CL   UNL     1      -6.324  -4.415  -0.712  0.00  0.00    -0.082 Cl
ENDBRANCH  18  24
ENDBRANCH  15  18
ENDBRANCH   1  15
TORSDOF 3
