REMARK  Name = ZINC12508630
REMARK  9 active torsions:
REMARK  status: ('A' for Active; 'I' for Inactive)
REMARK    1  A    between atoms: C_4  and  N_7
REMARK    2  A    between atoms: C_9  and  C_12
REMARK    3  A    between atoms: C_12  and  C_13
REMARK    4  A    between atoms: C_13  and  N_72
REMARK    5  A    between atoms: C_14  and  N_72
REMARK    6  A    between atoms: N_17  and  C_20
REMARK    7  A    between atoms: C_23  and  C_26
REMARK    8  A    between atoms: C_32  and  C_35
REMARK    9  A    between atoms: C_35  and  O_36
REMARK                            x       y       z     vdW  Elec       q    Type
REMARK                         _______ _______ _______ _____ _____    ______ ____
ROOT
ATOM      1  C   UNL     1      -4.975   5.095  -8.301  0.00  0.00    -0.069 C 
ATOM      2  C   UNL     1      -5.103   3.609  -7.953  0.00  0.00    +0.003 C 
ATOM      3  C   UNL     1      -4.382   3.336  -6.631  0.00  0.00    +0.103 C 
ATOM      4  N   UNL     1      -2.967   3.707  -6.758  0.00  0.00    -0.330 N 
ATOM      5  C   UNL     1      -2.818   5.139  -7.045  0.00  0.00    +0.103 C 
ATOM      6  C   UNL     1      -3.492   5.466  -8.379  0.00  0.00    +0.003 C 
ENDROOT
BRANCH   4   7
ATOM      7  C   UNL     1      -2.255   3.350  -5.618  0.00  0.00    +0.030 A 
ATOM      8  C   UNL     1      -0.890   3.617  -5.540  0.00  0.00    +0.024 A 
ATOM      9  C   UNL     1      -0.182   3.266  -4.414  0.00  0.00    +0.015 A 
ATOM     10  C   UNL     1      -0.834   2.639  -3.348  0.00  0.00    +0.037 A 
ATOM     11  C   UNL     1      -2.203   2.367  -3.432  0.00  0.00    +0.015 A 
ATOM     12  C   UNL     1      -2.906   2.726  -4.558  0.00  0.00    +0.024 A 
BRANCH  10  13
ATOM     13  C   UNL     1      -0.078   2.260  -2.139  0.00  0.00    +0.247 C 
ATOM     14  O   UNL     1       1.032   1.776  -2.243  0.00  0.00    -0.270 OA
ATOM     15  N   UNL     1      -0.618   2.452  -0.919  0.00  0.00    -0.297 N 
ATOM     16  C   UNL     1      -1.901   3.151  -0.769  0.00  0.00    +0.108 C 
ATOM     17  C   UNL     1      -1.723   4.302   0.225  0.00  0.00    +0.019 C 
ATOM     18  C   UNL     1      -1.149   3.756   1.534  0.00  0.00    +0.009 C 
ATOM     19  C   UNL     1       0.225   3.127   1.271  0.00  0.00    +0.032 C 
ATOM     20  C   UNL     1       0.066   1.964   0.287  0.00  0.00    +0.113 C 
BRANCH  19  21
ATOM     21  C   UNL     1       0.815   2.608   2.584  0.00  0.00    +0.160 C 
BRANCH  21  22
ATOM     22  O   UNL     1       2.140   2.125   2.353  0.00  0.00    -0.395 OA
ATOM     23  H   UNL     1       2.576   1.780   3.144  0.00  0.00    +0.209 HD
ENDBRANCH  21  22
ENDBRANCH  19  21
ENDBRANCH  10  13
ENDBRANCH   4   7
BRANCH   1  24
ATOM     24  N   UNL     1      -5.617   5.345  -9.605  0.00  0.00    +0.381 N 
ATOM     25  H   UNL     1      -4.947   5.141 -10.357  0.00  0.00    -0.086 HD
ATOM     26  H   UNL     1      -6.436   4.734  -9.703  0.00  0.00    -0.086 HD
BRANCH  24  27
ATOM     27  C   UNL     1      -6.045   6.753  -9.704  0.00  0.00    -0.077 C 
BRANCH  27  28
ATOM     28  C   UNL     1      -6.705   6.982 -11.065  0.00  0.00    +0.019 C 
BRANCH  28  31
ATOM     29  N   UNL     1      -7.159  10.565 -11.586  0.00  0.00    -0.240 N 
ATOM     30  C   UNL     1      -6.406   9.444 -11.659  0.00  0.00    +0.118 A 
ATOM     31  C   UNL     1      -7.145   8.419 -11.174  0.00  0.00    -0.011 A 
ATOM     32  C   UNL     1      -8.393   8.928 -10.798  0.00  0.00    +0.138 A 
ATOM     33  N   UNL     1      -8.400  10.214 -11.039  0.00  0.00    -0.175 NA
BRANCH  29  37
ATOM     34  C   UNL     1      -5.993  14.385 -12.779  0.00  0.00    +0.000 A 
ATOM     35  C   UNL     1      -7.255  14.182 -12.252  0.00  0.00    +0.002 A 
ATOM     36  C   UNL     1      -7.644  12.917 -11.856  0.00  0.00    +0.028 A 
ATOM     37  C   UNL     1      -6.767  11.849 -11.987  0.00  0.00    +0.065 A 
ATOM     38  C   UNL     1      -5.498  12.057 -12.511  0.00  0.00    +0.028 A 
ATOM     39  C   UNL     1      -5.117  13.323 -12.911  0.00  0.00    +0.002 A 
ENDBRANCH  29  37
ENDBRANCH  28  31
ENDBRANCH  27  28
ENDBRANCH  24  27
ENDBRANCH   1  24
TORSDOF 9
