REMARK  Name = ZINC38009094
REMARK  4 active torsions:
REMARK  status: ('A' for Active; 'I' for Inactive)
REMARK    1  A    between atoms: C_4  and  N_8
REMARK    2  A    between atoms: N_8  and  S_9
REMARK    3  A    between atoms: S_9  and  C_12
REMARK    4  A    between atoms: N_18  and  N_19
REMARK                            x       y       z     vdW  Elec       q    Type
REMARK                         _______ _______ _______ _____ _____    ______ ____
ROOT
ATOM      1  S   UNL     1       3.645  -2.309  -0.047  0.00  0.00    +0.092 S 
ATOM      2  O   UNL     1       3.113  -2.730   1.202  0.00  0.00    -0.148 OA
ATOM      3  O   UNL     1       3.087  -2.716  -1.288  0.00  0.00    -0.148 OA
ENDROOT
BRANCH   1   4
ATOM      4  C   UNL     1       5.335  -2.806  -0.067  0.00  0.00    +0.115 A 
ATOM      5  C   UNL     1       6.006  -2.994  -1.268  0.00  0.00    +0.046 A 
ATOM      6  C   UNL     1       7.330  -3.383  -1.250  0.00  0.00    +0.086 A 
ATOM      7  N   UNL     1       7.963  -3.577  -0.108  0.00  0.00    -0.349 N 
ATOM      8  C   UNL     1       7.358  -3.408   1.058  0.00  0.00    +0.112 A 
ATOM      9  C   UNL     1       6.026  -3.011   1.114  0.00  0.00    +0.071 A 
ATOM     10  N   UNL     1       8.063  -3.624   2.236  0.00  0.00    -0.269 N 
ATOM     11  H   UNL     1       7.624  -3.502   3.093  0.00  0.00    +0.167 HD
ATOM     12  H   UNL     1       8.893  -3.850  -0.123  0.00  0.00    +0.167 HD
BRANCH  10  13
ATOM     13  N   UNL     1       9.373  -4.008   2.188  0.00  0.00    -0.255 NA
ATOM     14  H   UNL     1       9.923  -3.351   1.656  0.00  0.00    +0.140 HD
ATOM     15  H   UNL     1       9.749  -4.126   3.117  0.00  0.00    +0.140 HD
ENDBRANCH  10  13
ENDBRANCH   1   4
BRANCH   1  16
ATOM     16  N   UNL     1       3.621  -0.653  -0.037  0.00  0.00    -0.095 NA
BRANCH  16  20
ATOM     17  C   UNL     1      -0.017   1.379   0.010  0.00  0.00    +0.018 A 
ATOM     18  C   UNL     1       1.170   2.090   0.002  0.00  0.00    +0.041 A 
ATOM     19  C   UNL     1       2.379   1.419  -0.013  0.00  0.00    +0.148 A 
ATOM     20  C   UNL     1       2.400   0.029  -0.021  0.00  0.00    +0.110 A 
ATOM     21  C   UNL     1       1.208  -0.681  -0.013  0.00  0.00    +0.045 A 
ATOM     22  C   UNL     1       0.002  -0.004   0.002  0.00  0.00    +0.020 A 
ATOM     23 BR   UNL     1      -1.623  -0.971   0.012  0.00  0.00    -0.050 Br
ATOM     24  F   UNL     1       3.537   2.114  -0.022  0.00  0.00    -0.203 F 
ENDBRANCH  16  20
ENDBRANCH   1  16
TORSDOF 4
