REMARK  Name = ZINC19797047
REMARK  6 active torsions:
REMARK  status: ('A' for Active; 'I' for Inactive)
REMARK    1  A    between atoms: C_1  and  C_2
REMARK    2  A    between atoms: N_13  and  N_25
REMARK    3  A    between atoms: C_14  and  S_16
REMARK    4  A    between atoms: S_16  and  C_17
REMARK    5  A    between atoms: C_17  and  C_18
REMARK    6  A    between atoms: C_18  and  N_19
REMARK                            x       y       z     vdW  Elec       q    Type
REMARK                         _______ _______ _______ _____ _____    ______ ____
ROOT
ATOM      1  C   UNL     1      -5.715   4.363  10.234  0.00  0.00    +0.008 C 
ATOM      2  C   UNL     1      -4.730   4.467   9.068  0.00  0.00    -0.009 C 
ATOM      3  C   UNL     1      -5.167   5.587   8.119  0.00  0.00    +0.008 C 
ATOM      4  C   UNL     1      -4.064   5.861   7.096  0.00  0.00    +0.037 C 
ATOM      5  C   UNL     1      -3.674   4.545   6.428  0.00  0.00    -0.023 A 
ATOM      6  C   UNL     1      -3.985   3.364   6.998  0.00  0.00    -0.004 A 
ATOM      7  S   UNL     1      -3.348   2.135   5.891  0.00  0.00    -0.073 S 
ATOM      8  C   UNL     1      -2.663   3.216   4.660  0.00  0.00    +0.117 A 
ATOM      9  C   UNL     1      -2.954   4.499   5.153  0.00  0.00    +0.077 A 
ATOM     10  C   UNL     1      -2.510   5.593   4.345  0.00  0.00    +0.280 A 
ATOM     11  O   UNL     1      -2.718   6.742   4.693  0.00  0.00    -0.265 OA
ATOM     12  N   UNL     1      -1.858   5.335   3.196  0.00  0.00    -0.209 N 
ATOM     13  C   UNL     1      -1.616   4.054   2.791  0.00  0.00    +0.190 A 
ATOM     14  N   UNL     1      -2.019   3.029   3.514  0.00  0.00    -0.215 NA
ATOM     15  C   UNL     1      -4.711   3.143   8.290  0.00  0.00    +0.046 C 
ENDROOT
BRANCH  12  16
ATOM     16  N   UNL     1      -1.431   6.375   2.420  0.00  0.00    -0.293 N 
ATOM     17  H   UNL     1      -0.897   6.176   1.479  0.00  0.00    +0.163 HD
ATOM     18  H   UNL     1      -1.621   7.411   2.737  0.00  0.00    +0.163 HD
ENDBRANCH  12  16
BRANCH  13  19
ATOM     19  S   UNL     1      -0.758   3.768   1.279  0.00  0.00    -0.085 S 
BRANCH  19  20
ATOM     20  C   UNL     1      -0.734   1.958   1.269  0.00  0.00    +0.093 C 
BRANCH  20  21
ATOM     21  C   UNL     1      -0.018   1.465   0.010  0.00  0.00    +0.095 C 
BRANCH  21  22
ATOM     22  N   UNL     1       0.002  -0.004   0.002  0.00  0.00    -0.297 NA
ATOM     23  C   UNL     1       0.833  -0.526   1.097  0.00  0.00    +0.112 C 
ATOM     24  C   UNL     1       0.778  -2.056   1.087  0.00  0.00    +0.175 C 
ATOM     25  O   UNL     1       1.203  -2.535  -0.191  0.00  0.00    -0.377 OA
ATOM     26  C   UNL     1       0.415  -2.048  -1.280  0.00  0.00    +0.175 C 
ATOM     27  C   UNL     1       0.466  -0.517  -1.295  0.00  0.00    +0.112 C 
ENDBRANCH  21  22
ENDBRANCH  20  21
ENDBRANCH  19  20
ENDBRANCH  13  19
TORSDOF 5
