REMARK  Name = ZINC36604407
REMARK  14 active torsions:
REMARK  status: ('A' for Active; 'I' for Inactive)
REMARK    1  A    between atoms: C_1  and  C_2
REMARK    2  A    between atoms: C_2  and  C_3
REMARK    3  A    between atoms: C_2  and  C_4
REMARK    4  A    between atoms: C_2  and  N_5
REMARK    5  A    between atoms: C_6  and  C_8
REMARK    6  A    between atoms: C_8  and  C_10
REMARK    7  A    between atoms: C_8  and  N_19
REMARK    8  A    between atoms: C_11  and  O_18
REMARK    9  A    between atoms: C_13  and  O_17
REMARK   10  A    between atoms: C_15  and  O_16
REMARK   11  A    between atoms: N_19  and  C_20
REMARK   12  A    between atoms: C_26  and  C_28
REMARK   13  A    between atoms: C_33  and  O_34
REMARK   14  A    between atoms: O_34  and  C_35
REMARK                            x       y       z     vdW  Elec       q    Type
REMARK                         _______ _______ _______ _____ _____    ______ ____
ROOT
ATOM      1  C   UNL     1       3.124  -0.406  -1.596  0.00  0.00    +0.204 C 
ENDROOT
BRANCH   1   2
ATOM      2  C   UNL     1       3.486  -1.703  -0.918  0.00  0.00    +0.065 A 
ATOM      3  C   UNL     1       4.681  -1.811  -0.223  0.00  0.00    +0.129 A 
ATOM      4  C   UNL     1       5.014  -3.004   0.402  0.00  0.00    +0.091 A 
ATOM      5  C   UNL     1       4.152  -4.088   0.332  0.00  0.00    +0.124 A 
ATOM      6  C   UNL     1       2.956  -3.979  -0.363  0.00  0.00    +0.091 A 
ATOM      7  C   UNL     1       2.622  -2.785  -0.984  0.00  0.00    +0.129 A 
BRANCH   7   8
ATOM      8  O   UNL     1       1.448  -2.676  -1.660  0.00  0.00    -0.506 OA
ATOM      9  H   UNL     1       1.508  -2.920  -2.594  0.00  0.00    +0.292 HD
ENDBRANCH   7   8
BRANCH   5  10
ATOM     10  O   UNL     1       4.479  -5.257   0.943  0.00  0.00    -0.507 OA
ATOM     11  H   UNL     1       4.170  -5.322   1.857  0.00  0.00    +0.292 HD
ENDBRANCH   5  10
BRANCH   3  12
ATOM     12  O   UNL     1       5.526  -0.749  -0.154  0.00  0.00    -0.506 OA
ATOM     13  H   UNL     1       5.419  -0.212   0.643  0.00  0.00    +0.292 HD
ENDBRANCH   3  12
ENDBRANCH   1   2
BRANCH   1  15
ATOM     14  N   UNL     1       2.050   0.552   0.415  0.00  0.00    -0.309 N 
ATOM     15  C   UNL     1       2.972   0.677  -0.560  0.00  0.00    +0.239 C 
ATOM     16  O   UNL     1       3.678   1.662  -0.604  0.00  0.00    -0.273 OA
ATOM     17  H   UNL     1       1.485  -0.236   0.451  0.00  0.00    +0.149 HD
BRANCH  14  19
ATOM     18  C   UNL     1       1.534   2.921   0.734  0.00  0.00    +0.031 C 
ATOM     19  C   UNL     1       1.902   1.606   1.423  0.00  0.00    +0.026 C 
ATOM     20  C   UNL     1       3.220   1.777   2.179  0.00  0.00    +0.031 C 
ATOM     21  C   UNL     1       0.795   1.219   2.406  0.00  0.00    +0.031 C 
ENDBRANCH  14  19
ENDBRANCH   1  15
BRANCH   1  22
ATOM     22  N   UNL     1       4.184  -0.036  -2.538  0.00  0.00    -0.251 N 
ATOM     23  C   UNL     1       4.117   1.136  -3.200  0.00  0.00    +0.255 C 
ATOM     24  O   UNL     1       4.896   1.368  -4.104  0.00  0.00    -0.269 OA
BRANCH  22  25
ATOM     25  C   UNL     1       5.264  -0.898  -2.749  0.00  0.00    +0.038 A 
ATOM     26  C   UNL     1       5.049  -2.174  -3.255  0.00  0.00    +0.023 A 
ATOM     27  C   UNL     1       6.118  -3.022  -3.463  0.00  0.00    +0.002 A 
ATOM     28  C   UNL     1       7.403  -2.604  -3.168  0.00  0.00    +0.000 A 
ATOM     29  C   UNL     1       7.621  -1.334  -2.665  0.00  0.00    +0.002 A 
ATOM     30  C   UNL     1       6.556  -0.479  -2.459  0.00  0.00    +0.023 A 
ENDBRANCH  22  25
BRANCH  23  31
ATOM     31  C   UNL     1       3.098   2.136  -2.829  0.00  0.00    +0.079 A 
ATOM     32  C   UNL     1       1.939   1.741  -2.156  0.00  0.00    +0.017 A 
ATOM     33  C   UNL     1       0.991   2.680  -1.812  0.00  0.00    +0.001 A 
ATOM     34  C   UNL     1       1.182   4.015  -2.131  0.00  0.00    +0.004 A 
ATOM     35  C   UNL     1       2.322   4.419  -2.796  0.00  0.00    +0.046 A 
ATOM     36  C   UNL     1       3.290   3.488  -3.144  0.00  0.00    +0.132 A 
BRANCH  36  37
ATOM     37  O   UNL     1       4.414   3.884  -3.793  0.00  0.00    -0.494 OA
ATOM     38  C   UNL     1       4.540   5.277  -4.081  0.00  0.00    +0.277 C 
ENDBRANCH  36  37
ENDBRANCH  23  31
ENDBRANCH   1  22
TORSDOF 10
