REMARK  Name = ZINC63848199
REMARK  7 active torsions:
REMARK  status: ('A' for Active; 'I' for Inactive)
REMARK    1  A    between atoms: C_1  and  N_2
REMARK    2  A    between atoms: N_2  and  C_3
REMARK    3  A    between atoms: N_2  and  C_16
REMARK    4  A    between atoms: C_3  and  C_4
REMARK    5  A    between atoms: C_7  and  S_9
REMARK    6  A    between atoms: S_9  and  C_10
REMARK    7  A    between atoms: C_16  and  C_17
REMARK                            x       y       z     vdW  Elec       q    Type
REMARK                         _______ _______ _______ _____ _____    ______ ____
ROOT
ATOM      1  C   UNL     1      -0.018   1.465   0.010  0.00  0.00    -0.096 C 
ATOM      2  N   UNL     1       0.002  -0.004   0.002  0.00  0.00    +0.384 N 
ATOM      3  H   UNL     1      -0.945  -0.353   0.009  0.00  0.00    -0.082 HD
ENDROOT
BRANCH   2   4
ATOM      4  C   UNL     1       0.713  -0.491   1.192  0.00  0.00    -0.003 C 
BRANCH   4   5
ATOM      5  C   UNL     1      -0.059  -0.109   2.429  0.00  0.00    +0.090 A 
ATOM      6  C   UNL     1      -1.010  -0.853   3.022  0.00  0.00    +0.044 A 
ATOM      7  C   UNL     1      -1.467  -0.121   4.141  0.00  0.00    +0.057 A 
ATOM      8  C   UNL     1      -0.763   1.035   4.167  0.00  0.00    +0.169 A 
ATOM      9  O   UNL     1       0.091   1.030   3.129  0.00  0.00    -0.455 OA
BRANCH   8  10
ATOM     10  S   UNL     1      -0.932   2.321   5.359  0.00  0.00    -0.012 S 
BRANCH  10  11
ATOM     11  C   UNL     1       0.242   3.531   4.851  0.00  0.00    +0.196 A 
ATOM     12  N   UNL     1       0.977   3.306   3.771  0.00  0.00    -0.230 NA
ATOM     13  C   UNL     1       1.868   4.194   3.362  0.00  0.00    +0.115 A 
ATOM     14  C   UNL     1       2.027   5.371   4.077  0.00  0.00    +0.039 A 
ATOM     15  C   UNL     1       1.242   5.574   5.202  0.00  0.00    +0.115 A 
ATOM     16  N   UNL     1       0.367   4.648   5.554  0.00  0.00    -0.230 NA
ENDBRANCH  10  11
ENDBRANCH   8  10
ENDBRANCH   4   5
ENDBRANCH   2   4
BRANCH   2  17
ATOM     17  C   UNL     1       0.690  -0.478  -1.207  0.00  0.00    -0.054 C 
BRANCH  17  18
ATOM     18  C   UNL     1      -0.118  -0.077  -2.443  0.00  0.00    +0.083 C 
ATOM     19  C   UNL     1       0.476  -0.694  -3.684  0.00  0.00    -0.035 C 
ATOM     20  C   UNL     1      -0.445  -1.484  -4.212  0.00  0.00    +0.019 C 
ATOM     21  C   UNL     1      -0.228  -2.287  -5.478  0.00  0.00    +0.052 C 
ATOM     22  C   UNL     1       0.982  -1.712  -6.222  0.00  0.00    +0.006 C 
ATOM     23  C   UNL     1       2.161  -1.582  -5.253  0.00  0.00    +0.005 C 
ATOM     24  C   UNL     1       1.857  -0.470  -4.241  0.00  0.00    +0.034 C 
ATOM     25  N   UNL     1      -1.603  -1.468  -3.458  0.00  0.00    -0.284 N 
ATOM     26  N   UNL     1      -1.482  -0.640  -2.375  0.00  0.00    -0.238 NA
ATOM     27  H   UNL     1      -2.401  -1.977  -3.669  0.00  0.00    +0.166 HD
ATOM     28  H   UNL     1      -2.177   0.092  -2.397  0.00  0.00    +0.145 HD
ENDBRANCH  17  18
ENDBRANCH   2  17
TORSDOF 6
