REMARK  Name = ZINC02614008
REMARK  4 active torsions:
REMARK  status: ('A' for Active; 'I' for Inactive)
REMARK    1  A    between atoms: C_4  and  C_7
REMARK    2  A    between atoms: C_16  and  S_18
REMARK    3  A    between atoms: S_18  and  C_19
REMARK    4  A    between atoms: C_19  and  C_20
REMARK                            x       y       z     vdW  Elec       q    Type
REMARK                         _______ _______ _______ _____ _____    ______ ____
ROOT
ATOM      1  C   UNL     1      -2.617   1.393   0.036  0.00  0.00    +0.004 A 
ATOM      2  C   UNL     1      -3.654   2.263   0.051  0.00  0.00    +0.056 A 
ATOM      3  S   UNL     1      -2.856   3.857   0.050  0.00  0.00    -0.076 S 
ATOM      4  C   UNL     1      -1.164   3.324   0.031  0.00  0.00    +0.117 A 
ATOM      5  C   UNL     1      -1.256   1.921   0.018  0.00  0.00    +0.080 A 
ATOM      6  C   UNL     1      -0.015   1.215   0.009  0.00  0.00    +0.261 A 
ATOM      7  O   UNL     1       0.002  -0.004   0.002  0.00  0.00    -0.267 OA
ATOM      8  N   UNL     1       1.137   1.912   0.002  0.00  0.00    -0.301 N 
ATOM      9  H   UNL     1       2.008   1.421  -0.009  0.00  0.00    +0.171 HD
ATOM     10  C   UNL     1       1.137   3.276   0.008  0.00  0.00    +0.170 A 
ATOM     11  N   UNL     1       0.006   3.952   0.022  0.00  0.00    -0.216 NA
ENDROOT
BRANCH   1  15
ATOM     12  C   UNL     1      -3.311  -2.801   0.023  0.00  0.00    +0.000 A 
ATOM     13  C   UNL     1      -3.950  -2.000   0.953  0.00  0.00    +0.001 A 
ATOM     14  C   UNL     1      -3.728  -0.638   0.962  0.00  0.00    +0.008 A 
ATOM     15  C   UNL     1      -2.859  -0.069   0.032  0.00  0.00    -0.017 A 
ATOM     16  C   UNL     1      -2.223  -0.881  -0.906  0.00  0.00    +0.008 A 
ATOM     17  C   UNL     1      -2.447  -2.243  -0.902  0.00  0.00    +0.001 A 
ENDBRANCH   1  15
BRANCH  10  18
ATOM     18  S   UNL     1       2.670   4.146  -0.002  0.00  0.00    -0.078 S 
BRANCH  18  19
ATOM     19  C   UNL     1       2.064   5.851   0.012  0.00  0.00    +0.173 C 
BRANCH  19  20
ATOM     20  C   UNL     1       3.234   6.800   0.006  0.00  0.00    +0.231 C 
ATOM     21  O   UNL     1       4.366   6.367  -0.007  0.00  0.00    -0.274 OA
ATOM     22  N   UNL     1       3.023   8.131   0.015  0.00  0.00    -0.240 N 
ATOM     23  C   UNL     1       4.070   8.980   0.009  0.00  0.00    +0.303 C 
ATOM     24  O   UNL     1       5.205   8.545  -0.005  0.00  0.00    -0.253 OA
ATOM     25  N   UNL     1       3.858  10.311   0.018  0.00  0.00    -0.313 N 
ATOM     26  H   UNL     1       2.117   8.479   0.025  0.00  0.00    +0.159 HD
ATOM     27  H   UNL     1       2.953  10.658   0.028  0.00  0.00    +0.146 HD
ATOM     28  H   UNL     1       4.612  10.922   0.013  0.00  0.00    +0.146 HD
ENDBRANCH  19  20
ENDBRANCH  18  19
ENDBRANCH  10  18
TORSDOF 4
