REMARK  Name = ZINC10792919
REMARK  10 active torsions:
REMARK  status: ('A' for Active; 'I' for Inactive)
REMARK    1  A    between atoms: C_1  and  C_2
REMARK    2  A    between atoms: C_2  and  N_3
REMARK    3  A    between atoms: C_7  and  C_9
REMARK    4  A    between atoms: C_9  and  C_11
REMARK    5  A    between atoms: C_9  and  S_12
REMARK    6  A    between atoms: S_12  and  C_13
REMARK    7  A    between atoms: C_17  and  C_20
REMARK    8  A    between atoms: C_23  and  C_27
REMARK    9  A    between atoms: C_24  and  C_26
REMARK   10  A    between atoms: N_30  and  C_31
REMARK                            x       y       z     vdW  Elec       q    Type
REMARK                         _______ _______ _______ _____ _____    ______ ____
ROOT
ATOM      1  C   UNL     1       3.606  -2.049   2.562  0.00  0.00    +0.173 A 
ATOM      2  N   UNL     1       4.401  -1.589   1.618  0.00  0.00    -0.216 NA
ATOM      3  C   UNL     1       4.013  -0.601   0.820  0.00  0.00    +0.117 A 
ATOM      4  C   UNL     1       2.748   0.000   0.940  0.00  0.00    +0.080 A 
ATOM      5  C   UNL     1       2.481   1.072  -0.015  0.00  0.00    +0.004 A 
ATOM      6  C   UNL     1       3.436   1.392  -0.918  0.00  0.00    +0.056 A 
ATOM      7  S   UNL     1       4.767   0.272  -0.528  0.00  0.00    -0.076 S 
ATOM      8  C   UNL     1       1.907  -0.518   1.973  0.00  0.00    +0.263 A 
ATOM      9  O   UNL     1       0.792  -0.057   2.150  0.00  0.00    -0.267 OA
ATOM     10  N   UNL     1       2.361  -1.521   2.746  0.00  0.00    -0.290 N 
ATOM     11  C   UNL     1       1.502  -2.056   3.807  0.00  0.00    +0.154 C 
ENDROOT
BRANCH   5  12
ATOM     12  C   UNL     1       1.185   1.791   0.000  0.00  0.00    -0.016 A 
ATOM     13  C   UNL     1      -0.013   1.076   0.008  0.00  0.00    +0.009 A 
ATOM     14  C   UNL     1      -1.216   1.751   0.017  0.00  0.00    +0.004 A 
ATOM     15  C   UNL     1      -1.236   3.134   0.030  0.00  0.00    -0.048 A 
ATOM     16  C   UNL     1      -0.052   3.849   0.022  0.00  0.00    -0.047 A 
ATOM     17  C   UNL     1       1.158   3.185   0.008  0.00  0.00    +0.012 A 
ATOM     18  C   UNL     1      -0.083   5.355   0.030  0.00  0.00    +0.044 C 
ATOM     19  C   UNL     1      -2.554   3.865   0.046  0.00  0.00    +0.044 C 
ENDBRANCH   5  12
BRANCH   1  20
ATOM     20  S   UNL     1       4.157  -3.361   3.601  0.00  0.00    -0.075 S 
BRANCH  20  21
ATOM     21  C   UNL     1       5.809  -3.633   2.914  0.00  0.00    +0.137 C 
ATOM     22  C   UNL     1       6.672  -2.393   3.154  0.00  0.00    +0.029 C 
BRANCH  21  27
ATOM     23  N   UNL     1       9.062  -7.171   3.001  0.00  0.00    -0.299 N 
ATOM     24  C   UNL     1       8.035  -6.530   3.594  0.00  0.00    +0.306 C 
ATOM     25  O   UNL     1       7.620  -6.912   4.670  0.00  0.00    -0.252 OA
ATOM     26  N   UNL     1       7.469  -5.465   2.993  0.00  0.00    -0.239 N 
ATOM     27  C   UNL     1       6.442  -4.824   3.586  0.00  0.00    +0.233 C 
ATOM     28  O   UNL     1       6.028  -5.205   4.659  0.00  0.00    -0.274 OA
ATOM     29  H   UNL     1       9.438  -6.825   2.026  0.00  0.00    +0.150 HD
ATOM     30  H   UNL     1       7.845  -5.119   2.018  0.00  0.00    +0.159 HD
BRANCH  23  32
ATOM     31  C   UNL     1      10.811  -8.866   2.777  0.00  0.00    +0.024 C 
ATOM     32  C   UNL     1       9.678  -8.329   3.654  0.00  0.00    +0.102 C 
ENDBRANCH  23  32
ENDBRANCH  21  27
ENDBRANCH  20  21
ENDBRANCH   1  20
TORSDOF 5
