REMARK  Name = ZINC21247254
REMARK  10 active torsions:
REMARK  status: ('A' for Active; 'I' for Inactive)
REMARK    1  A    between atoms: C_1  and  O_2
REMARK    2  A    between atoms: O_2  and  C_3
REMARK    3  A    between atoms: C_8  and  C_9
REMARK    4  A    between atoms: C_14  and  C_24
REMARK    5  A    between atoms: C_26  and  O_34
REMARK    6  A    between atoms: C_27  and  O_32
REMARK    7  A    between atoms: C_28  and  O_30
REMARK    8  A    between atoms: O_30  and  C_31
REMARK    9  A    between atoms: O_32  and  C_33
REMARK   10  A    between atoms: O_34  and  C_35
REMARK                            x       y       z     vdW  Elec       q    Type
REMARK                         _______ _______ _______ _____ _____    ______ ____
ROOT
ATOM      1  C   UNL     1      -7.131  -2.880  -2.006  0.00  0.00    +0.035 C 
ATOM      2  C   UNL     1      -7.257  -1.379  -2.258  0.00  0.00    +0.060 C 
ATOM      3  C   UNL     1      -7.067  -0.617  -0.957  0.00  0.00    +0.017 C 
ATOM      4  C   UNL     1      -6.239  -1.086  -0.008  0.00  0.00    +0.036 C 
ATOM      5  C   UNL     1      -5.940  -0.421   1.315  0.00  0.00    +0.136 C 
ATOM      6  N   UNL     1      -6.822   0.679   1.642  0.00  0.00    -0.331 N 
ATOM      7  C   UNL     1      -6.844   1.841   0.876  0.00  0.00    +0.049 A 
ATOM      8  C   UNL     1      -6.388   3.049   1.378  0.00  0.00    +0.025 A 
ATOM      9  C   UNL     1      -6.328   4.152   0.545  0.00  0.00    +0.002 A 
ATOM     10  C   UNL     1      -6.722   4.053  -0.777  0.00  0.00    +0.002 A 
ATOM     11  C   UNL     1      -7.198   2.853  -1.276  0.00  0.00    +0.025 A 
ATOM     12  C   UNL     1      -7.274   1.753  -0.440  0.00  0.00    +0.052 A 
ATOM     13  N   UNL     1      -7.785   0.531  -0.863  0.00  0.00    -0.316 N 
ATOM     14  C   UNL     1      -5.557  -2.311  -0.200  0.00  0.00    +0.163 C 
ATOM     15  O   UNL     1      -4.802  -2.703   0.668  0.00  0.00    -0.292 OA
ATOM     16  C   UNL     1      -5.732  -3.142  -1.436  0.00  0.00    +0.088 C 
ATOM     17  H   UNL     1      -7.492   0.607   2.511  0.00  0.00    +0.147 HD
ATOM     18  H   UNL     1      -8.851   0.536  -1.132  0.00  0.00    +0.152 HD
ENDROOT
BRANCH   1  24
ATOM     19  C   UNL     1      -8.307  -4.581  -3.424  0.00  0.00    +0.124 A 
ATOM     20  C   UNL     1      -8.464  -5.271  -4.617  0.00  0.00    +0.046 A 
ATOM     21  C   UNL     1      -7.620  -5.012  -5.680  0.00  0.00    +0.004 A 
ATOM     22  C   UNL     1      -6.620  -4.065  -5.554  0.00  0.00    +0.001 A 
ATOM     23  C   UNL     1      -6.465  -3.372  -4.368  0.00  0.00    +0.007 A 
ATOM     24  C   UNL     1      -7.303  -3.632  -3.301  0.00  0.00    -0.002 A 
BRANCH  19  26
ATOM     25  C   UNL     1     -10.148  -5.825  -2.576  0.00  0.00    +0.277 C 
ATOM     26  O   UNL     1      -9.136  -4.834  -2.377  0.00  0.00    -0.495 OA
ENDBRANCH  19  26
ENDBRANCH   1  24
BRANCH   5  27
ATOM     27  C   UNL     1      -4.524   0.094   1.281  0.00  0.00    -0.016 A 
ATOM     28  C   UNL     1      -4.157   1.037   0.339  0.00  0.00    +0.055 A 
ATOM     29  C   UNL     1      -2.855   1.514   0.304  0.00  0.00    +0.165 A 
ATOM     30  C   UNL     1      -1.920   1.043   1.218  0.00  0.00    +0.204 A 
ATOM     31  C   UNL     1      -2.292   0.091   2.160  0.00  0.00    +0.165 A 
ATOM     32  C   UNL     1      -3.597  -0.377   2.192  0.00  0.00    +0.055 A 
BRANCH  31  33
ATOM     33  O   UNL     1      -1.380  -0.377   3.053  0.00  0.00    -0.491 OA
ATOM     34  C   UNL     1      -1.801  -1.433   3.919  0.00  0.00    +0.277 C 
ENDBRANCH  31  33
BRANCH  30  35
ATOM     35  O   UNL     1      -0.641   1.508   1.187  0.00  0.00    -0.488 OA
ATOM     36  C   UNL     1      -0.351   2.661   1.979  0.00  0.00    +0.277 C 
ENDBRANCH  30  35
BRANCH  29  37
ATOM     37  O   UNL     1      -2.494   2.441  -0.623  0.00  0.00    -0.491 OA
ATOM     38  C   UNL     1      -3.507   2.880  -1.530  0.00  0.00    +0.277 C 
ENDBRANCH  29  37
ENDBRANCH   5  27
TORSDOF 6
