REMARK  Name = ZINC12808508
REMARK  9 active torsions:
REMARK  status: ('A' for Active; 'I' for Inactive)
REMARK    1  A    between atoms: C_1  and  C_2
REMARK    2  A    between atoms: C_7  and  N_8
REMARK    3  A    between atoms: C_9  and  C_11
REMARK    4  A    between atoms: C_11  and  N_12
REMARK    5  A    between atoms: N_15  and  C_16
REMARK    6  A    between atoms: C_16  and  C_18
REMARK    7  A    between atoms: C_16  and  C_19
REMARK    8  A    between atoms: C_19  and  C_20
REMARK    9  A    between atoms: C_20  and  C_21
REMARK                            x       y       z     vdW  Elec       q    Type
REMARK                         _______ _______ _______ _____ _____    ______ ____
ROOT
ATOM      1  N   UNL     1       8.583  -0.619   0.143  0.00  0.00    -0.291 N 
ATOM      2  C   UNL     1       7.628  -1.402  -0.397  0.00  0.00    +0.300 C 
ATOM      3  O   UNL     1       7.754  -2.611  -0.385  0.00  0.00    -0.253 OA
ATOM      4  N   UNL     1       6.533  -0.845  -0.951  0.00  0.00    -0.297 N 
ATOM      5  H   UNL     1       8.482   0.345   0.134  0.00  0.00    +0.151 HD
ATOM      6  H   UNL     1       6.432   0.120  -0.961  0.00  0.00    +0.151 HD
ENDROOT
BRANCH   4   7
ATOM      7  C   UNL     1       5.495  -1.695  -1.538  0.00  0.00    +0.072 C 
ATOM      8  C   UNL     1       5.872  -2.036  -2.982  0.00  0.00    +0.028 C 
BRANCH   7   9
ATOM      9  C   UNL     1       4.158  -0.953  -1.522  0.00  0.00    +0.026 C 
BRANCH   9  10
ATOM     10  C   UNL     1       3.720  -0.722  -0.074  0.00  0.00    +0.037 C 
BRANCH  10  11
ATOM     11  C   UNL     1       2.402   0.009  -0.058  0.00  0.00    -0.047 A 
ATOM     12  C   UNL     1       1.217  -0.702  -0.059  0.00  0.00    +0.003 A 
ATOM     13  C   UNL     1       0.009  -0.031  -0.045  0.00  0.00    +0.000 A 
ATOM     14  C   UNL     1      -0.015   1.351  -0.029  0.00  0.00    +0.000 A 
ATOM     15  C   UNL     1       1.171   2.062  -0.027  0.00  0.00    +0.000 A 
ATOM     16  C   UNL     1       2.379   1.391  -0.042  0.00  0.00    +0.003 A 
ENDBRANCH  10  11
ENDBRANCH   9  10
ENDBRANCH   7   9
ENDBRANCH   4   7
BRANCH   1  17
ATOM     17  C   UNL     1       9.773  -1.226   0.746  0.00  0.00    +0.202 C 
BRANCH  17  19
ATOM     18  N   UNL     1      11.839  -0.465   1.873  0.00  0.00    -0.284 N 
ATOM     19  C   UNL     1      10.677  -0.141   1.273  0.00  0.00    +0.234 C 
ATOM     20  O   UNL     1      10.358   1.023   1.157  0.00  0.00    -0.274 OA
ATOM     21  H   UNL     1      12.057  -1.396   2.037  0.00  0.00    +0.155 HD
BRANCH  18  28
ATOM     22  C   UNL     1      13.646  -1.016   4.000  0.00  0.00    +0.046 C 
ATOM     23  C   UNL     1      13.631   0.314   3.292  0.00  0.00    -0.028 A 
ATOM     24  C   UNL     1      14.515   1.308   3.668  0.00  0.00    +0.020 A 
ATOM     25  C   UNL     1      14.497   2.531   3.022  0.00  0.00    +0.018 A 
ATOM     26  C   UNL     1      13.599   2.761   1.995  0.00  0.00    +0.017 A 
ATOM     27  C   UNL     1      12.717   1.770   1.612  0.00  0.00    +0.024 A 
ATOM     28  C   UNL     1      12.732   0.541   2.259  0.00  0.00    +0.036 A 
ATOM     29 BR   UNL     1      15.703   3.891   3.544  0.00  0.00    -0.050 Br
ENDBRANCH  18  28
ENDBRANCH  17  19
ENDBRANCH   1  17
TORSDOF 7
