REMARK  Name = ZINC03531210
REMARK  11 active torsions:
REMARK  status: ('A' for Active; 'I' for Inactive)
REMARK    1  A    between atoms: C_1  and  C_2
REMARK    2  A    between atoms: C_2  and  C_3
REMARK    3  A    between atoms: C_2  and  C_4
REMARK    4  A    between atoms: C_2  and  C_5
REMARK    5  A    between atoms: C_8  and  C_11
REMARK    6  A    between atoms: C_14  and  S_17
REMARK    7  A    between atoms: N_15  and  N_16
REMARK    8  A    between atoms: S_17  and  C_18
REMARK    9  A    between atoms: C_18  and  C_19
REMARK   10  A    between atoms: N_24  and  C_25
REMARK   11  A    between atoms: C_25  and  C_26
REMARK                            x       y       z     vdW  Elec       q    Type
REMARK                         _______ _______ _______ _____ _____    ______ ____
ROOT
ATOM      1  C   UNL     1       1.699   5.966  -0.183  0.00  0.00    +0.182 A 
ATOM      2  N   UNL     1       0.405   5.803  -0.035  0.00  0.00    -0.127 NA
ATOM      3  N   UNL     1       0.140   4.562   0.172  0.00  0.00    -0.121 NA
ATOM      4  C   UNL     1       1.251   3.859   0.177  0.00  0.00    +0.209 A 
ATOM      5  N   UNL     1       2.280   4.726  -0.052  0.00  0.00    -0.224 N 
ENDROOT
BRANCH   1   9
ATOM      6  C   UNL     1       3.711   9.632  -0.929  0.00  0.00    -0.042 A 
ATOM      7  C   UNL     1       4.356   8.431  -1.168  0.00  0.00    +0.005 A 
ATOM      8  C   UNL     1       3.708   7.237  -0.928  0.00  0.00    +0.012 A 
ATOM      9  C   UNL     1       2.399   7.242  -0.443  0.00  0.00    +0.021 A 
ATOM     10  C   UNL     1       1.753   8.457  -0.209  0.00  0.00    +0.012 A 
ATOM     11  C   UNL     1       2.414   9.644  -0.449  0.00  0.00    +0.005 A 
BRANCH   6  13
ATOM     12  C   UNL     1       4.816  11.008  -2.671  0.00  0.00    +0.015 C 
ATOM     13  C   UNL     1       4.425  10.932  -1.194  0.00  0.00    -0.013 C 
ATOM     14  C   UNL     1       3.500  12.101  -0.851  0.00  0.00    +0.015 C 
ATOM     15  C   UNL     1       5.685  11.008  -0.328  0.00  0.00    +0.015 C 
ENDBRANCH   6  13
ENDBRANCH   1   9
BRANCH   5  16
ATOM     16  N   UNL     1       3.610   4.426  -0.134  0.00  0.00    -0.295 N 
ATOM     17  H   UNL     1       3.893   4.296  -1.094  0.00  0.00    +0.163 HD
ATOM     18  H   UNL     1       4.170   5.135   0.316  0.00  0.00    +0.163 HD
ENDBRANCH   5  16
BRANCH   4  19
ATOM     19  S   UNL     1       1.385   2.120   0.426  0.00  0.00    -0.075 S 
BRANCH  19  20
ATOM     20  C   UNL     1      -0.360   1.700   0.657  0.00  0.00    +0.173 C 
BRANCH  20  21
ATOM     21  C   UNL     1      -0.493   0.217   0.892  0.00  0.00    +0.231 C 
ATOM     22  O   UNL     1       0.494  -0.486   0.903  0.00  0.00    -0.274 OA
ATOM     23  N   UNL     1      -1.710  -0.327   1.091  0.00  0.00    -0.239 N 
ATOM     24  C   UNL     1      -1.829  -1.653   1.302  0.00  0.00    +0.306 C 
ATOM     25  O   UNL     1      -0.839  -2.358   1.313  0.00  0.00    -0.252 OA
ATOM     26  N   UNL     1      -3.046  -2.197   1.500  0.00  0.00    -0.295 N 
ATOM     27  H   UNL     1      -2.500   0.235   1.082  0.00  0.00    +0.159 HD
ATOM     28  H   UNL     1      -3.836  -1.635   1.492  0.00  0.00    +0.151 HD
BRANCH  26  29
ATOM     29  C   UNL     1      -3.175  -3.639   1.730  0.00  0.00    +0.141 C 
BRANCH  29  30
ATOM     30  C   UNL     1      -4.628  -3.988   1.922  0.00  0.00    -0.030 A 
ATOM     31  C   UNL     1      -5.180  -3.977   3.189  0.00  0.00    +0.005 A 
ATOM     32  C   UNL     1      -6.514  -4.293   3.365  0.00  0.00    +0.000 A 
ATOM     33  C   UNL     1      -7.294  -4.630   2.274  0.00  0.00    +0.000 A 
ATOM     34  C   UNL     1      -6.741  -4.647   1.008  0.00  0.00    +0.000 A 
ATOM     35  C   UNL     1      -5.408  -4.326   0.831  0.00  0.00    +0.005 A 
ENDBRANCH  29  30
ENDBRANCH  26  29
ENDBRANCH  20  21
ENDBRANCH  19  20
ENDBRANCH   4  19
TORSDOF 8
