REMARK  Name = ZINC06442809
REMARK  14 active torsions:
REMARK  status: ('A' for Active; 'I' for Inactive)
REMARK    1  A    between atoms: C_1  and  C_2
REMARK    2  A    between atoms: C_6  and  N_9
REMARK    3  A    between atoms: C_7  and  C_8
REMARK    4  A    between atoms: N_9  and  C_10
REMARK    5  A    between atoms: C_10  and  C_12
REMARK    6  A    between atoms: C_10  and  C_18
REMARK    7  A    between atoms: N_20  and  C_21
REMARK    8  A    between atoms: C_21  and  C_22
REMARK    9  A    between atoms: C_21  and  C_23
REMARK   10  A    between atoms: C_21  and  C_24
REMARK   11  A    between atoms: C_25  and  C_27
REMARK   12  A    between atoms: C_27  and  N_28
REMARK   13  A    between atoms: C_30  and  C_33
REMARK   14  A    between atoms: C_36  and  C_38
REMARK                            x       y       z     vdW  Elec       q    Type
REMARK                         _______ _______ _______ _____ _____    ______ ____
ROOT
ATOM      1  N   UNL     1       1.239   1.804  -0.478  0.00  0.00    -0.254 N 
ATOM      2  C   UNL     1       0.152   1.045  -0.235  0.00  0.00    +0.244 C 
ATOM      3  O   UNL     1       0.283  -0.117   0.084  0.00  0.00    -0.273 OA
ENDROOT
BRANCH   1   9
ATOM      4  C   UNL     1       0.781   5.198  -4.005  0.00  0.00    +0.044 C 
ATOM      5  C   UNL     1       0.863   4.819  -2.549  0.00  0.00    -0.046 A 
ATOM      6  C   UNL     1       0.790   5.798  -1.575  0.00  0.00    +0.004 A 
ATOM      7  C   UNL     1       0.865   5.454  -0.238  0.00  0.00    +0.002 A 
ATOM      8  C   UNL     1       1.008   4.130   0.129  0.00  0.00    +0.024 A 
ATOM      9  C   UNL     1       1.088   3.146  -0.846  0.00  0.00    +0.041 A 
ATOM     10  C   UNL     1       1.012   3.494  -2.189  0.00  0.00    -0.026 A 
ATOM     11  C   UNL     1       1.093   2.428  -3.251  0.00  0.00    +0.046 C 
ENDBRANCH   1   9
BRANCH   1  12
ATOM     12  C   UNL     1       2.579   1.225  -0.355  0.00  0.00    +0.197 C 
BRANCH  12  13
ATOM     13  C   UNL     1       3.605   2.230  -0.812  0.00  0.00    -0.015 A 
ATOM     14  C   UNL     1       3.796   3.415  -0.118  0.00  0.00    +0.025 A 
ATOM     15  C   UNL     1       4.748   4.311  -0.565  0.00  0.00    +0.111 A 
ATOM     16  N   UNL     1       5.464   4.053  -1.642  0.00  0.00    -0.263 NA
ATOM     17  C   UNL     1       5.307   2.939  -2.329  0.00  0.00    +0.111 A 
ATOM     18  C   UNL     1       4.376   1.994  -1.940  0.00  0.00    +0.025 A 
ENDBRANCH  12  13
BRANCH  12  19
ATOM     19  C   UNL     1       2.839   0.860   1.084  0.00  0.00    +0.239 C 
ATOM     20  O   UNL     1       1.989   1.064   1.924  0.00  0.00    -0.273 OA
ATOM     21  N   UNL     1       4.017   0.307   1.436  0.00  0.00    -0.309 N 
ATOM     22  H   UNL     1       4.697   0.144   0.764  0.00  0.00    +0.149 HD
BRANCH  21  23
ATOM     23  C   UNL     1       4.270  -0.047   2.835  0.00  0.00    +0.026 C 
ATOM     24  C   UNL     1       3.228  -1.067   3.299  0.00  0.00    +0.031 C 
ATOM     25  C   UNL     1       5.669  -0.652   2.963  0.00  0.00    +0.031 C 
ATOM     26  C   UNL     1       4.176   1.209   3.704  0.00  0.00    +0.031 C 
ENDBRANCH  21  23
ENDBRANCH  12  19
ENDBRANCH   1  12
BRANCH   2  27
ATOM     27  C   UNL     1      -1.226   1.640  -0.367  0.00  0.00    +0.264 C 
BRANCH  27  28
ATOM     28  N   UNL     1      -2.230   0.618  -0.060  0.00  0.00    -0.154 N 
ATOM     29  N   UNL     1      -2.769  -0.179  -0.918  0.00  0.00    -0.127 NA
ATOM     30  C   UNL     1      -3.619  -0.954  -0.270  0.00  0.00    +0.239 A 
ATOM     31  N   UNL     1      -3.573  -0.580   1.018  0.00  0.00    -0.105 NA
ATOM     32  N   UNL     1      -2.716   0.380   1.108  0.00  0.00    -0.045 NA
BRANCH  30  33
ATOM     33  C   UNL     1      -4.461  -2.022  -0.851  0.00  0.00    +0.175 A 
ATOM     34  C   UNL     1      -5.332  -2.811  -0.168  0.00  0.00    +0.053 A 
ATOM     35  C   UNL     1      -5.916  -3.680  -1.111  0.00  0.00    +0.045 A 
ATOM     36  C   UNL     1      -5.372  -3.387  -2.308  0.00  0.00    +0.103 A 
ATOM     37  O   UNL     1      -4.494  -2.385  -2.148  0.00  0.00    -0.457 OA
ATOM     38  C   UNL     1      -5.696  -4.072  -3.611  0.00  0.00    +0.086 C 
ENDBRANCH  30  33
ENDBRANCH  27  28
ENDBRANCH   2  27
TORSDOF 8
