REMARK  Name = ZINC42860044
REMARK  5 active torsions:
REMARK  status: ('A' for Active; 'I' for Inactive)
REMARK    1  A    between atoms: C_1  and  C_2
REMARK    2  A    between atoms: C_8  and  C_10
REMARK    3  A    between atoms: C_10  and  N_11
REMARK    4  A    between atoms: N_11  and  C_12
REMARK    5  A    between atoms: C_17  and  N_18
REMARK                            x       y       z     vdW  Elec       q    Type
REMARK                         _______ _______ _______ _____ _____    ______ ____
ROOT
ATOM      1  C   UNL     1       0.178  -0.292   4.964  0.00  0.00    +0.048 A 
ATOM      2  C   UNL     1      -0.907   0.558   5.109  0.00  0.00    +0.030 A 
ATOM      3  C   UNL     1      -1.386   0.862   6.369  0.00  0.00    -0.024 A 
ATOM      4  C   UNL     1      -0.781   0.317   7.494  0.00  0.00    +0.038 A 
ATOM      5  C   UNL     1       0.306  -0.535   7.355  0.00  0.00    +0.048 A 
ATOM      6  C   UNL     1       0.784  -0.846   6.091  0.00  0.00    +0.047 A 
ATOM      7  N   UNL     1      -1.269   0.629   8.770  0.00  0.00    -0.285 N 
ATOM      8  C   UNL     1      -2.509   1.130   8.921  0.00  0.00    +0.218 C 
ATOM      9  O   UNL     1      -2.912   1.408  10.031  0.00  0.00    -0.275 OA
ATOM     10  C   UNL     1      -3.401   1.349   7.729  0.00  0.00    +0.101 C 
ATOM     11  C   UNL     1      -2.565   1.787   6.527  0.00  0.00    +0.046 C 
ATOM     12  H   UNL     1      -0.710   0.482   9.549  0.00  0.00    +0.155 HD
ENDROOT
BRANCH   6  13
ATOM     13  N   UNL     1       1.876  -1.710   5.947  0.00  0.00    -0.356 N 
ATOM     14  H   UNL     1       2.212  -1.923   5.063  0.00  0.00    +0.142 HD
ATOM     15  H   UNL     1       2.297  -2.094   6.732  0.00  0.00    +0.142 HD
ENDBRANCH   6  13
BRANCH   1  16
ATOM     16  N   UNL     1       0.663  -0.600   3.684  0.00  0.00    -0.342 N 
ATOM     17  H   UNL     1       1.420  -1.198   3.583  0.00  0.00    +0.146 HD
BRANCH  16  18
ATOM     18  C   UNL     1       0.026  -0.018   2.500  0.00  0.00    +0.105 C 
BRANCH  18  25
ATOM     19  C   UNL     1      -0.019   1.526   0.010  0.00  0.00    +0.008 C 
ATOM     20  C   UNL     1       0.002  -0.004   0.002  0.00  0.00    -0.010 C 
ATOM     21  C   UNL     1       0.718  -0.497  -1.257  0.00  0.00    +0.003 C 
ATOM     22  C   UNL     1       2.154   0.032  -1.268  0.00  0.00    +0.000 C 
ATOM     23  C   UNL     1       2.894  -0.475  -0.028  0.00  0.00    +0.000 C 
ATOM     24  C   UNL     1       2.178   0.019   1.231  0.00  0.00    +0.005 C 
ATOM     25  C   UNL     1       0.742  -0.511   1.242  0.00  0.00    +0.009 C 
ENDBRANCH  18  25
ENDBRANCH  16  18
ENDBRANCH   1  16
TORSDOF 4
