REMARK  Name = ZINC35673311
REMARK  8 active torsions:
REMARK  status: ('A' for Active; 'I' for Inactive)
REMARK    1  A    between atoms: C_1  and  N_2
REMARK    2  A    between atoms: N_2  and  C_3
REMARK    3  A    between atoms: N_2  and  C_4
REMARK    4  A    between atoms: C_4  and  C_10
REMARK    5  A    between atoms: C_10  and  N_11
REMARK    6  A    between atoms: N_11  and  C_12
REMARK    7  A    between atoms: C_13  and  C_23
REMARK    8  A    between atoms: C_15  and  C_17
REMARK                            x       y       z     vdW  Elec       q    Type
REMARK                         _______ _______ _______ _____ _____    ______ ____
ROOT
ATOM      1  N   UNL     1      -1.410  -0.098   2.380  0.00  0.00    -0.314 N 
ATOM      2  H   UNL     1      -0.619  -0.659   2.350  0.00  0.00    +0.149 HD
ENDROOT
BRANCH   1   3
ATOM      3  C   UNL     1      -1.834   0.432   3.579  0.00  0.00    +0.225 A 
ATOM      4  C   UNL     1      -1.236   0.258   4.818  0.00  0.00    +0.201 A 
ATOM      5  N   UNL     1      -1.981   0.953   5.719  0.00  0.00    -0.194 NA
ATOM      6  C   UNL     1      -2.978   1.522   5.086  0.00  0.00    +0.266 A 
ATOM      7  O   UNL     1      -2.906   1.223   3.773  0.00  0.00    -0.418 OA
BRANCH   6   8
ATOM      8  C   UNL     1      -4.009   2.362   5.709  0.00  0.00    +0.191 A 
ATOM      9  C   UNL     1      -4.089   2.684   7.032  0.00  0.00    +0.056 A 
ATOM     10  C   UNL     1      -5.225   3.501   7.182  0.00  0.00    +0.058 A 
ATOM     11  C   UNL     1      -5.779   3.639   5.959  0.00  0.00    +0.171 A 
ATOM     12  O   UNL     1      -5.040   2.955   5.071  0.00  0.00    -0.443 OA
ATOM     13 BR   UNL     1      -7.335   4.636   5.561  0.00  0.00    -0.008 Br
ENDBRANCH   6   8
BRANCH   4  14
ATOM     14  C   UNL     1      -0.058  -0.508   5.096  0.00  0.00    +0.124 C 
ATOM     15  N   UNL     1       0.876  -1.115   5.316  0.00  0.00    -0.189 NA
ENDBRANCH   4  14
ENDBRANCH   1   3
BRANCH   1  16
ATOM     16  C   UNL     1      -2.153   0.187   1.150  0.00  0.00    +0.092 C 
BRANCH  16  17
ATOM     17  C   UNL     1      -1.399  -0.395  -0.048  0.00  0.00    -0.050 C 
ATOM     18  C   UNL     1      -2.105   0.013  -1.342  0.00  0.00    -0.010 C 
ATOM     19  C   UNL     1      -3.538  -0.524  -1.332  0.00  0.00    -0.001 C 
ATOM     20  C   UNL     1      -3.510  -2.050  -1.225  0.00  0.00    -0.000 C 
ATOM     21  C   UNL     1      -2.803  -2.458   0.070  0.00  0.00    -0.001 C 
ATOM     22  C   UNL     1      -1.371  -1.921   0.059  0.00  0.00    -0.010 C 
BRANCH  17  24
ATOM     23  C   UNL     1       0.689  -0.405  -1.230  0.00  0.00    -0.096 C 
ATOM     24  N   UNL     1      -0.023   0.121  -0.057  0.00  0.00    +0.381 N 
ATOM     25  C   UNL     1      -0.051   1.588  -0.118  0.00  0.00    -0.096 C 
ATOM     26  H   UNL     1       0.452  -0.172   0.783  0.00  0.00    -0.082 HD
ENDBRANCH  17  24
ENDBRANCH  16  17
ENDBRANCH   1  16
TORSDOF 6
