REMARK  Name = ZINC16671746
REMARK  7 active torsions:
REMARK  status: ('A' for Active; 'I' for Inactive)
REMARK    1  A    between atoms: C_1  and  C_2
REMARK    2  A    between atoms: N_4  and  C_27
REMARK    3  A    between atoms: C_8  and  N_9
REMARK    4  A    between atoms: N_9  and  C_10
REMARK    5  A    between atoms: C_13  and  S_16
REMARK    6  A    between atoms: S_16  and  N_19
REMARK    7  A    between atoms: N_19  and  C_20
REMARK                            x       y       z     vdW  Elec       q    Type
REMARK                         _______ _______ _______ _____ _____    ______ ____
ROOT
ATOM      1  C   UNL     1      -2.591  -2.851   5.667  0.00  0.00    +0.031 A 
ATOM      2  C   UNL     1      -2.037  -1.622   5.333  0.00  0.00    +0.025 A 
ATOM      3  C   UNL     1      -1.359  -0.889   6.288  0.00  0.00    +0.030 A 
ATOM      4  C   UNL     1      -1.231  -1.378   7.575  0.00  0.00    +0.109 A 
ATOM      5  C   UNL     1      -1.781  -2.602   7.911  0.00  0.00    +0.030 A 
ATOM      6  C   UNL     1      -2.465  -3.337   6.963  0.00  0.00    +0.025 A 
ENDROOT
BRANCH   4   7
ATOM      7  S   UNL     1      -0.365  -0.441   8.789  0.00  0.00    +0.072 S 
ATOM      8  O   UNL     1       0.193  -1.375   9.703  0.00  0.00    -0.150 OA
ATOM      9  O   UNL     1       0.430   0.502   8.083  0.00  0.00    -0.150 OA
BRANCH   7  10
ATOM     10  N   UNL     1      -1.493   0.430   9.633  0.00  0.00    -0.216 N 
ATOM     11  H   UNL     1      -1.615   0.274  10.582  0.00  0.00    +0.174 HD
BRANCH  10  12
ATOM     12  C   UNL     1      -2.270   1.388   8.977  0.00  0.00    +0.048 A 
ATOM     13  C   UNL     1      -1.712   2.609   8.618  0.00  0.00    +0.026 A 
ATOM     14  C   UNL     1      -2.482   3.554   7.969  0.00  0.00    +0.022 A 
ATOM     15  C   UNL     1      -3.808   3.287   7.677  0.00  0.00    +0.041 A 
ATOM     16  C   UNL     1      -4.366   2.071   8.033  0.00  0.00    +0.022 A 
ATOM     17  C   UNL     1      -3.599   1.120   8.677  0.00  0.00    +0.026 A 
ATOM     18 CL   UNL     1      -4.773   4.478   6.862  0.00  0.00    -0.084 Cl
ENDBRANCH  10  12
ENDBRANCH   7  10
ENDBRANCH   4   7
BRANCH   1  19
ATOM     19  N   UNL     1      -3.277  -3.595   4.704  0.00  0.00    -0.320 N 
ATOM     20  H   UNL     1      -3.667  -4.452   4.940  0.00  0.00    +0.152 HD
BRANCH  19  28
ATOM     21  C   UNL     1      -3.840  -2.251   0.392  0.00  0.00    +0.068 C 
ATOM     22  C   UNL     1      -4.309  -3.505   1.083  0.00  0.00    +0.070 C 
ATOM     23  N   UNL     1      -4.984  -4.472   0.541  0.00  0.00    -0.176 NA
ATOM     24  N   UNL     1      -5.253  -5.482   1.464  0.00  0.00    -0.156 N 
ATOM     25  C   UNL     1      -4.731  -5.163   2.666  0.00  0.00    +0.273 C 
ATOM     26  O   UNL     1      -4.785  -5.825   3.689  0.00  0.00    -0.268 OA
ATOM     27  C   UNL     1      -4.079  -3.859   2.491  0.00  0.00    +0.075 C 
ATOM     28  C   UNL     1      -3.398  -3.122   3.446  0.00  0.00    +0.087 C 
BRANCH  24  29
ATOM     29  C   UNL     1      -5.963  -6.657   1.185  0.00  0.00    +0.060 A 
ATOM     30  C   UNL     1      -6.179  -7.595   2.186  0.00  0.00    +0.025 A 
ATOM     31  C   UNL     1      -6.880  -8.751   1.907  0.00  0.00    +0.002 A 
ATOM     32  C   UNL     1      -7.367  -8.976   0.632  0.00  0.00    +0.000 A 
ATOM     33  C   UNL     1      -7.154  -8.044  -0.367  0.00  0.00    +0.002 A 
ATOM     34  C   UNL     1      -6.458  -6.883  -0.093  0.00  0.00    +0.025 A 
ENDBRANCH  24  29
ENDBRANCH  19  28
ENDBRANCH   1  19
TORSDOF 6
