REMARK  Name = ZINC38676423
REMARK  12 active torsions:
REMARK  status: ('A' for Active; 'I' for Inactive)
REMARK    1  A    between atoms: C_1  and  C_2
REMARK    2  A    between atoms: N_5  and  C_17
REMARK    3  A    between atoms: N_8  and  C_9
REMARK    4  A    between atoms: C_12  and  O_15
REMARK    5  A    between atoms: O_15  and  C_16
REMARK    6  A    between atoms: C_17  and  C_18
REMARK    7  A    between atoms: N_20  and  C_21
REMARK    8  A    between atoms: C_25  and  O_35
REMARK    9  A    between atoms: C_29  and  C_31
REMARK   10  A    between atoms: C_31  and  O_33
REMARK   11  A    between atoms: O_33  and  C_34
REMARK   12  A    between atoms: O_35  and  C_36
REMARK                            x       y       z     vdW  Elec       q    Type
REMARK                         _______ _______ _______ _____ _____    ______ ____
ROOT
ATOM      1  C   UNL     1       1.079  -4.987  -3.349  0.00  0.00    +0.231 C 
ATOM      2  O   UNL     1       0.848  -4.860  -2.166  0.00  0.00    -0.274 OA
ATOM      3  N   UNL     1       1.064  -6.212  -3.911  0.00  0.00    -0.285 N 
ATOM      4  H   UNL     1       1.315  -6.321  -4.842  0.00  0.00    +0.155 HD
ENDROOT
BRANCH   3   5
ATOM      5  C   UNL     1       0.694  -7.296  -3.173  0.00  0.00    +0.053 C 
ATOM      6  C   UNL     1       0.711  -8.620  -3.569  0.00  0.00    +0.018 A 
ATOM      7  C   UNL     1       1.088  -9.248  -4.782  0.00  0.00    +0.015 A 
ATOM      8  C   UNL     1       1.002 -10.594  -4.898  0.00  0.00    +0.046 A 
ATOM      9  C   UNL     1       0.544 -11.394  -3.839  0.00  0.00    +0.122 A 
ATOM     10  C   UNL     1       0.165 -10.856  -2.647  0.00  0.00    +0.071 A 
ATOM     11  C   UNL     1       0.230  -9.455  -2.454  0.00  0.00    +0.048 A 
ATOM     12  N   UNL     1      -0.074  -8.703  -1.414  0.00  0.00    -0.367 N 
ATOM     13  C   UNL     1       0.187  -7.299  -1.748  0.00  0.00    +0.234 C 
ATOM     14  H   UNL     1      -0.411  -9.027  -0.564  0.00  0.00    +0.161 HD
BRANCH  13  15
ATOM     15  C   UNL     1      -1.087  -6.500  -1.649  0.00  0.00    +0.335 C 
ATOM     16  O   UNL     1      -2.133  -6.983  -2.015  0.00  0.00    -0.248 OA
BRANCH  15  17
ATOM     17  O   UNL     1      -1.061  -5.253  -1.154  0.00  0.00    -0.466 OA
ATOM     18  C   UNL     1      -2.305  -4.554  -1.089  0.00  0.00    +0.280 C 
ENDBRANCH  15  17
ENDBRANCH  13  15
BRANCH   9  19
ATOM     19  O   UNL     1       0.476 -12.738  -4.009  0.00  0.00    -0.495 OA
ATOM     20  C   UNL     1       0.884 -13.253  -5.278  0.00  0.00    +0.277 C 
ENDBRANCH   9  19
ENDBRANCH   3   5
BRANCH   1  21
ATOM     21  C   UNL     1       1.385  -3.775  -4.191  0.00  0.00    +0.180 C 
BRANCH  21  25
ATOM     22  C   UNL     1       1.385   1.148  -4.094  0.00  0.00    +0.029 C 
ATOM     23  C   UNL     1       1.168  -0.129  -3.280  0.00  0.00    +0.084 C 
ATOM     24  C   UNL     1       1.398  -1.354  -4.171  0.00  0.00    +0.107 C 
ATOM     25  N   UNL     1       1.341  -2.571  -3.351  0.00  0.00    -0.291 NA
ATOM     26  C   UNL     1       2.415  -2.589  -2.349  0.00  0.00    +0.104 C 
ATOM     27  C   UNL     1       2.226  -1.415  -1.382  0.00  0.00    +0.121 C 
ATOM     28  N   UNL     1       2.125  -0.172  -2.164  0.00  0.00    -0.325 N 
BRANCH  28  29
ATOM     29  C   UNL     1       2.922   0.937  -1.858  0.00  0.00    +0.030 A 
ATOM     30  C   UNL     1       4.220   1.016  -2.347  0.00  0.00    +0.027 A 
ATOM     31  C   UNL     1       5.005   2.111  -2.045  0.00  0.00    +0.047 A 
ATOM     32  C   UNL     1       4.498   3.131  -1.254  0.00  0.00    +0.120 A 
ATOM     33  C   UNL     1       3.203   3.053  -0.765  0.00  0.00    +0.047 A 
ATOM     34  C   UNL     1       2.414   1.961  -1.070  0.00  0.00    +0.027 A 
BRANCH  32  35
ATOM     35  O   UNL     1       5.273   4.209  -0.957  0.00  0.00    -0.495 OA
ATOM     36  C   UNL     1       4.687   5.223  -0.137  0.00  0.00    +0.277 C 
ENDBRANCH  32  35
ENDBRANCH  28  29
ENDBRANCH  21  25
ENDBRANCH   1  21
TORSDOF 8
