REMARK  Name = ZINC00754848
REMARK  3 active torsions:
REMARK  status: ('A' for Active; 'I' for Inactive)
REMARK    1  A    between atoms: C_6  and  O_7
REMARK    2  A    between atoms: C_9  and  N_24
REMARK    3  A    between atoms: C_10  and  C_22
REMARK                            x       y       z     vdW  Elec       q    Type
REMARK                         _______ _______ _______ _____ _____    ______ ____
ROOT
ATOM      1  C   UNL     1      -3.325   4.461   3.654  0.00  0.00    +0.046 A 
ATOM      2  C   UNL     1      -3.038   3.751   2.505  0.00  0.00    +0.012 A 
ATOM      3  C   UNL     1      -2.950   4.402   1.287  0.00  0.00    +0.020 A 
ATOM      4  C   UNL     1      -3.150   5.773   1.218  0.00  0.00    +0.138 A 
ATOM      5  C   UNL     1      -3.440   6.487   2.373  0.00  0.00    +0.092 A 
ATOM      6  C   UNL     1      -3.527   5.832   3.590  0.00  0.00    +0.120 A 
ATOM      7  O   UNL     1      -3.067   6.428   0.034  0.00  0.00    -0.441 OA
ATOM      8  C   UNL     1      -3.167   5.750  -1.121  0.00  0.00    +0.199 C 
ATOM      9  C   UNL     1      -2.975   4.410  -1.185  0.00  0.00    +0.110 C 
ATOM     10  C   UNL     1      -2.639   3.616   0.044  0.00  0.00    +0.141 C 
ATOM     11  C   UNL     1      -1.205   3.186   0.029  0.00  0.00    -0.001 A 
ATOM     12  C   UNL     1      -0.035   3.914   0.022  0.00  0.00    +0.022 A 
ATOM     13  C   UNL     1       1.156   3.195   0.008  0.00  0.00    +0.018 A 
ATOM     14  C   UNL     1       1.161   1.814   0.001  0.00  0.00    +0.017 A 
ATOM     15  C   UNL     1      -0.013   1.076   0.008  0.00  0.00    +0.025 A 
ATOM     16  C   UNL     1      -1.214   1.786   0.017  0.00  0.00    +0.038 A 
ATOM     17  N   UNL     1      -2.514   1.313   0.022  0.00  0.00    -0.284 N 
ATOM     18  C   UNL     1      -3.417   2.316   0.032  0.00  0.00    +0.238 C 
ATOM     19  O   UNL     1      -4.625   2.198   0.038  0.00  0.00    -0.274 OA
ATOM     20 BR   UNL     1       2.801   4.127  -0.002  0.00  0.00    -0.050 Br
ATOM     21  H   UNL     1      -2.749   0.372   0.019  0.00  0.00    +0.155 HD
ENDROOT
BRANCH   8  22
ATOM     22  N   UNL     1      -3.473   6.434  -2.271  0.00  0.00    -0.328 N 
ATOM     23  H   UNL     1      -3.549   5.958  -3.113  0.00  0.00    +0.145 HD
ATOM     24  H   UNL     1      -3.613   7.394  -2.242  0.00  0.00    +0.145 HD
ENDBRANCH   8  22
BRANCH   6  25
ATOM     25  O   UNL     1      -3.810   6.532   4.720  0.00  0.00    -0.507 OA
ATOM     26  H   UNL     1      -3.029   6.868   5.181  0.00  0.00    +0.292 HD
ENDBRANCH   6  25
BRANCH   9  27
ATOM     27  C   UNL     1      -3.093   3.740  -2.445  0.00  0.00    +0.102 C 
ATOM     28  N   UNL     1      -3.187   3.209  -3.445  0.00  0.00    -0.191 NA
ENDBRANCH   9  27
TORSDOF 3
