REMARK  Name = ZINC39665293
REMARK  10 active torsions:
REMARK  status: ('A' for Active; 'I' for Inactive)
REMARK    1  A    between atoms: C_1  and  C_2
REMARK    2  A    between atoms: C_2  and  C_4
REMARK    3  A    between atoms: C_2  and  O_33
REMARK    4  A    between atoms: C_4  and  N_5
REMARK    5  A    between atoms: C_6  and  C_8
REMARK    6  A    between atoms: C_19  and  C_21
REMARK    7  A    between atoms: C_24  and  O_31
REMARK    8  A    between atoms: C_25  and  C_27
REMARK    9  A    between atoms: O_31  and  C_32
REMARK   10  A    between atoms: O_33  and  C_34
REMARK                            x       y       z     vdW  Elec       q    Type
REMARK                         _______ _______ _______ _____ _____    ______ ____
ROOT
ATOM      1  C   UNL     1       2.251  -3.033   2.660  0.00  0.00    +0.100 C 
ATOM      2  C   UNL     1       0.847  -3.679   2.675  0.00  0.00    +0.121 C 
ATOM      3  N   UNL     1       0.949  -4.775   3.666  0.00  0.00    -0.296 N 
ATOM      4  C   UNL     1       1.782  -4.211   4.755  0.00  0.00    +0.115 C 
ATOM      5  C   UNL     1       2.861  -3.384   4.028  0.00  0.00    -0.004 C 
ATOM      6  C   UNL     1       3.167  -2.111   4.812  0.00  0.00    -0.010 C 
ATOM      7  C   UNL     1       3.827  -2.484   6.143  0.00  0.00    -0.082 C 
ATOM      8  N   UNL     1       5.062  -3.234   5.886  0.00  0.00    +0.379 N 
ATOM      9  C   UNL     1       4.748  -4.500   5.214  0.00  0.00    -0.082 C 
ATOM     10  C   UNL     1       4.128  -4.213   3.844  0.00  0.00    -0.010 C 
ATOM     11  C   UNL     1       0.408  -6.007   3.594  0.00  0.00    +0.247 C 
ATOM     12  O   UNL     1      -0.163  -6.362   2.581  0.00  0.00    -0.270 OA
ATOM     13  H   UNL     1       5.671  -2.685   5.298  0.00  0.00    -0.086 HD
ATOM     14  H   UNL     1       5.526  -3.425   6.761  0.00  0.00    -0.086 HD
ENDROOT
BRANCH  11  15
ATOM     15  C   UNL     1       0.508  -6.926   4.745  0.00  0.00    +0.038 A 
ATOM     16  C   UNL     1       0.705  -6.418   6.032  0.00  0.00    +0.016 A 
ATOM     17  C   UNL     1       0.798  -7.278   7.103  0.00  0.00    +0.047 A 
ATOM     18  C   UNL     1       0.696  -8.650   6.906  0.00  0.00    +0.132 A 
ATOM     19  C   UNL     1       0.501  -9.160   5.627  0.00  0.00    +0.097 A 
ATOM     20  C   UNL     1       0.402  -8.306   4.551  0.00  0.00    +0.029 A 
BRANCH  19  21
ATOM     21  C   UNL     1       0.392 -10.648   5.419  0.00  0.00    +0.421 C 
ATOM     22  F   UNL     1       0.199 -10.916   4.059  0.00  0.00    -0.166 F 
ATOM     23  F   UNL     1       1.568 -11.267   5.854  0.00  0.00    -0.166 F 
ATOM     24  F   UNL     1      -0.694 -11.143   6.150  0.00  0.00    -0.166 F 
ENDBRANCH  19  21
BRANCH  18  25
ATOM     25  O   UNL     1       0.788  -9.495   7.964  0.00  0.00    -0.495 OA
ATOM     26  C   UNL     1       0.990  -8.905   9.249  0.00  0.00    +0.277 C 
ENDBRANCH  18  25
ENDBRANCH  11  15
BRANCH   1  28
ATOM     27  N   UNL     1       3.116  -0.852   1.878  0.00  0.00    -0.312 N 
ATOM     28  C   UNL     1       2.139  -1.538   2.503  0.00  0.00    +0.218 C 
ATOM     29  O   UNL     1       1.171  -0.953   2.940  0.00  0.00    -0.275 OA
ATOM     30  H   UNL     1       3.890  -1.320   1.529  0.00  0.00    +0.149 HD
BRANCH  27  31
ATOM     31  C   UNL     1       3.007   0.601   1.725  0.00  0.00    +0.148 C 
BRANCH  31  33
ATOM     32  C   UNL     1       4.125   2.647   0.826  0.00  0.00    +0.053 C 
ATOM     33  C   UNL     1       4.238   1.130   0.986  0.00  0.00    +0.187 C 
BRANCH  33  34
ATOM     34  O   UNL     1       5.415   0.816   1.734  0.00  0.00    -0.488 OA
BRANCH  34  35
ATOM     35  C   UNL     1       6.545   0.556   1.026  0.00  0.00    +0.121 A 
ATOM     36  C   UNL     1       7.685   0.108   1.677  0.00  0.00    +0.045 A 
ATOM     37  C   UNL     1       8.833  -0.155   0.955  0.00  0.00    +0.004 A 
ATOM     38  C   UNL     1       8.846   0.028  -0.416  0.00  0.00    +0.000 A 
ATOM     39  C   UNL     1       7.711   0.474  -1.067  0.00  0.00    +0.004 A 
ATOM     40  C   UNL     1       6.559   0.733  -0.350  0.00  0.00    +0.045 A 
ENDBRANCH  34  35
ENDBRANCH  33  34
ENDBRANCH  31  33
ENDBRANCH  27  31
ENDBRANCH   1  28
TORSDOF 8
