REMARK  Name = ZINC63229012
REMARK  15 active torsions:
REMARK  status: ('A' for Active; 'I' for Inactive)
REMARK    1  A    between atoms: C_1  and  O_2
REMARK    2  A    between atoms: O_2  and  C_3
REMARK    3  A    between atoms: C_6  and  C_9
REMARK    4  A    between atoms: C_9  and  C_11
REMARK    5  A    between atoms: C_9  and  C_29
REMARK    6  A    between atoms: C_11  and  N_12
REMARK    7  A    between atoms: N_12  and  C_13
REMARK    8  A    between atoms: C_13  and  C_14
REMARK    9  A    between atoms: C_14  and  C_16
REMARK   10  A    between atoms: C_14  and  O_28
REMARK   11  A    between atoms: C_16  and  O_17
REMARK   12  A    between atoms: O_17  and  C_18
REMARK   13  A    between atoms: C_22  and  C_24
REMARK   14  A    between atoms: C_24  and  O_26
REMARK   15  A    between atoms: O_26  and  C_27
REMARK                            x       y       z     vdW  Elec       q    Type
REMARK                         _______ _______ _______ _____ _____    ______ ____
ROOT
ATOM      1  C   UNL     1      -5.105  -3.504  -1.214  0.00  0.00    -0.070 C 
ENDROOT
BRANCH   1   2
ATOM      2  N   UNL     1      -6.449  -4.094  -1.267  0.00  0.00    +0.381 N 
ATOM      3  H   UNL     1      -6.601  -4.659  -0.445  0.00  0.00    -0.086 HD
ATOM      4  H   UNL     1      -7.139  -3.358  -1.302  0.00  0.00    -0.086 HD
BRANCH   2   5
ATOM      5  C   UNL     1      -6.569  -4.934  -2.467  0.00  0.00    -0.047 C 
BRANCH   5   6
ATOM      6  C   UNL     1      -7.968  -5.549  -2.522  0.00  0.00    +0.135 C 
BRANCH   6   7
ATOM      7  O   UNL     1      -8.183  -6.349  -1.357  0.00  0.00    -0.390 OA
ATOM      8  H   UNL     1      -7.555  -7.077  -1.259  0.00  0.00    +0.210 HD
ENDBRANCH   6   7
BRANCH   6   9
ATOM      9  C   UNL     1      -8.093  -6.423  -3.771  0.00  0.00    +0.258 C 
BRANCH   9  10
ATOM     10  O   UNL     1      -9.434  -6.904  -3.885  0.00  0.00    -0.489 OA
BRANCH  10  11
ATOM     11  C   UNL     1      -9.715  -7.702  -4.948  0.00  0.00    +0.121 A 
ATOM     12  C   UNL     1      -8.717  -8.019  -5.861  0.00  0.00    +0.046 A 
ATOM     13  C   UNL     1      -8.998  -8.829  -6.945  0.00  0.00    +0.004 A 
ATOM     14  C   UNL     1     -10.271  -9.329  -7.128  0.00  0.00    +0.015 A 
ATOM     15  C   UNL     1     -11.281  -9.015  -6.216  0.00  0.00    +0.062 A 
ATOM     16  C   UNL     1     -10.995  -8.202  -5.119  0.00  0.00    +0.060 A 
BRANCH  15  17
ATOM     17  C   UNL     1     -12.645  -9.548  -6.409  0.00  0.00    +0.339 C 
ATOM     18  O   UNL     1     -13.522  -9.274  -5.614  0.00  0.00    -0.245 OA
BRANCH  17  19
ATOM     19  O   UNL     1     -12.918 -10.337  -7.466  0.00  0.00    -0.464 OA
ATOM     20  C   UNL     1     -14.258 -10.816  -7.590  0.00  0.00    +0.280 C 
ENDBRANCH  17  19
ENDBRANCH  15  17
ENDBRANCH  10  11
ENDBRANCH   9  10
ENDBRANCH   6   9
ENDBRANCH   5   6
ENDBRANCH   2   5
ENDBRANCH   1   2
BRANCH   1  21
ATOM     21  C   UNL     1      -4.981  -2.629   0.035  0.00  0.00    +0.030 C 
BRANCH  21  22
ATOM     22  C   UNL     1      -5.085  -3.493   1.265  0.00  0.00    -0.036 C 
ATOM     23  C   UNL     1      -6.013  -3.404   2.245  0.00  0.00    -0.001 A 
ATOM     24  C   UNL     1      -7.158  -2.509   2.452  0.00  0.00    +0.010 A 
ATOM     25  C   UNL     1      -7.923  -2.666   3.557  0.00  0.00    +0.001 A 
ATOM     26  C   UNL     1      -7.649  -3.660   4.507  0.00  0.00    +0.002 A 
ATOM     27  C   UNL     1      -6.615  -4.519   4.386  0.00  0.00    +0.026 A 
ATOM     28  C   UNL     1      -5.746  -4.445   3.263  0.00  0.00    +0.043 A 
ATOM     29  N   UNL     1      -4.694  -5.151   2.926  0.00  0.00    -0.380 N 
ATOM     30  C   UNL     1      -4.178  -4.640   1.651  0.00  0.00    +0.145 C 
ATOM     31  H   UNL     1      -4.322  -5.889   3.432  0.00  0.00    +0.160 HD
ENDBRANCH  21  22
BRANCH  21  35
ATOM     32  C   UNL     1      -1.200  -0.637   0.010  0.00  0.00    +0.120 A 
ATOM     33  C   UNL     1      -2.375   0.101   0.019  0.00  0.00    +0.046 A 
ATOM     34  C   UNL     1      -3.596  -0.545   0.027  0.00  0.00    +0.008 A 
ATOM     35  C   UNL     1      -3.648  -1.927   0.026  0.00  0.00    -0.042 A 
ATOM     36  C   UNL     1      -2.479  -2.665   0.017  0.00  0.00    +0.008 A 
ATOM     37  C   UNL     1      -1.255  -2.024   0.003  0.00  0.00    +0.046 A 
BRANCH  32  39
ATOM     38  C   UNL     1      -0.017   1.425   0.010  0.00  0.00    +0.277 C 
ATOM     39  O   UNL     1       0.002  -0.004   0.002  0.00  0.00    -0.495 OA
ENDBRANCH  32  39
ENDBRANCH  21  35
ENDBRANCH   1  21
TORSDOF 13
