REMARK  Name = ZINC36609316
REMARK  12 active torsions:
REMARK  status: ('A' for Active; 'I' for Inactive)
REMARK    1  A    between atoms: C_1  and  C_2
REMARK    2  A    between atoms: C_2  and  C_3
REMARK    3  A    between atoms: C_2  and  C_4
REMARK    4  A    between atoms: C_2  and  N_5
REMARK    5  A    between atoms: C_6  and  C_8
REMARK    6  A    between atoms: C_8  and  C_10
REMARK    7  A    between atoms: C_8  and  N_17
REMARK    8  A    between atoms: C_13  and  O_16
REMARK    9  A    between atoms: N_17  and  C_18
REMARK   10  A    between atoms: C_24  and  C_26
REMARK   11  A    between atoms: C_28  and  N_33
REMARK   12  A    between atoms: C_31  and  O_32
REMARK                            x       y       z     vdW  Elec       q    Type
REMARK                         _______ _______ _______ _____ _____    ______ ____
ROOT
ATOM      1  N   UNL     1       4.003  -0.502  -2.730  0.00  0.00    -0.251 N 
ATOM      2  C   UNL     1       4.465  -1.625  -2.146  0.00  0.00    +0.255 C 
ATOM      3  O   UNL     1       5.381  -2.242  -2.655  0.00  0.00    -0.269 OA
ENDROOT
BRANCH   1   4
ATOM      4  C   UNL     1       4.685   0.052  -3.818  0.00  0.00    +0.038 A 
ATOM      5  C   UNL     1       5.897   0.702  -3.623  0.00  0.00    +0.023 A 
ATOM      6  C   UNL     1       6.568   1.247  -4.700  0.00  0.00    +0.002 A 
ATOM      7  C   UNL     1       6.034   1.147  -5.972  0.00  0.00    +0.000 A 
ATOM      8  C   UNL     1       4.828   0.501  -6.170  0.00  0.00    +0.002 A 
ATOM      9  C   UNL     1       4.154  -0.052  -5.098  0.00  0.00    +0.023 A 
ENDBRANCH   1   4
BRANCH   2  10
ATOM     10  C   UNL     1       3.860  -2.106  -0.889  0.00  0.00    +0.081 A 
ATOM     11  C   UNL     1       2.571  -1.704  -0.532  0.00  0.00    +0.049 A 
ATOM     12  C   UNL     1       2.011  -2.157   0.643  0.00  0.00    +0.127 A 
ATOM     13  C   UNL     1       2.721  -3.009   1.473  0.00  0.00    +0.036 A 
ATOM     14  C   UNL     1       3.997  -3.413   1.132  0.00  0.00    +0.048 A 
ATOM     15  C   UNL     1       4.573  -2.972  -0.050  0.00  0.00    +0.129 A 
BRANCH  12  16
ATOM     16  N   UNL     1       0.645  -1.730   1.021  0.00  0.00    +0.056 N 
ATOM     17  O   UNL     1      -0.011  -1.059   0.259  0.00  0.00    -0.126 OA
ATOM     18  O   UNL     1       0.185  -2.053   2.091  0.00  0.00    -0.126 OA
ENDBRANCH  12  16
BRANCH  15  19
ATOM     19  O   UNL     1       5.824  -3.373  -0.389  0.00  0.00    -0.506 OA
ATOM     20  H   UNL     1       6.526  -2.796  -0.059  0.00  0.00    +0.292 HD
ENDBRANCH  15  19
ENDBRANCH   2  10
BRANCH   1  21
ATOM     21  C   UNL     1       2.787   0.140  -2.224  0.00  0.00    +0.197 C 
BRANCH  21  22
ATOM     22  C   UNL     1       2.532   1.411  -2.993  0.00  0.00    -0.018 A 
ATOM     23  C   UNL     1       3.382   2.490  -2.842  0.00  0.00    +0.009 A 
ATOM     24  C   UNL     1       3.151   3.657  -3.545  0.00  0.00    +0.046 A 
ATOM     25  C   UNL     1       2.065   3.744  -4.404  0.00  0.00    +0.117 A 
ATOM     26  C   UNL     1       1.214   2.658  -4.555  0.00  0.00    +0.046 A 
ATOM     27  C   UNL     1       1.452   1.493  -3.853  0.00  0.00    +0.009 A 
BRANCH  25  28
ATOM     28  O   UNL     1       1.835   4.890  -5.097  0.00  0.00    -0.507 OA
ATOM     29  H   UNL     1       2.269   4.922  -5.960  0.00  0.00    +0.292 HD
ENDBRANCH  25  28
ENDBRANCH  21  22
BRANCH  21  31
ATOM     30  N   UNL     1       1.961   1.061  -0.082  0.00  0.00    -0.309 N 
ATOM     31  C   UNL     1       2.959   0.463  -0.763  0.00  0.00    +0.239 C 
ATOM     32  O   UNL     1       3.997   0.185  -0.199  0.00  0.00    -0.273 OA
ATOM     33  H   UNL     1       1.132   1.283  -0.533  0.00  0.00    +0.149 HD
BRANCH  30  35
ATOM     34  C   UNL     1       3.317   2.324   1.515  0.00  0.00    +0.031 C 
ATOM     35  C   UNL     1       2.129   1.375   1.339  0.00  0.00    +0.026 C 
ATOM     36  C   UNL     1       2.388   0.085   2.119  0.00  0.00    +0.031 C 
ATOM     37  C   UNL     1       0.859   2.044   1.867  0.00  0.00    +0.031 C 
ENDBRANCH  30  35
ENDBRANCH  21  31
ENDBRANCH   1  21
TORSDOF 9
