REMARK  Name = ZINC09468929
REMARK  6 active torsions:
REMARK  status: ('A' for Active; 'I' for Inactive)
REMARK    1  A    between atoms: C_4  and  C_7
REMARK    2  A    between atoms: C_7  and  C_8
REMARK    3  A    between atoms: C_8  and  C_30
REMARK    4  A    between atoms: N_11  and  C_15
REMARK    5  A    between atoms: C_15  and  C_16
REMARK    6  A    between atoms: N_22  and  C_23
REMARK                            x       y       z     vdW  Elec       q    Type
REMARK                         _______ _______ _______ _____ _____    ______ ____
ROOT
ATOM      1  C   UNL     1       3.304   1.365  -1.554  0.00  0.00    +0.142 C 
ATOM      2  C   UNL     1       3.330   2.599  -2.434  0.00  0.00    +0.252 C 
ATOM      3  O   UNL     1       4.065   3.557  -2.330  0.00  0.00    -0.272 OA
ATOM      4  N   UNL     1       2.363   2.411  -3.354  0.00  0.00    -0.216 N 
ATOM      5  C   UNL     1       1.738   1.241  -3.180  0.00  0.00    +0.310 C 
ATOM      6  O   UNL     1       0.830   0.849  -3.887  0.00  0.00    -0.252 OA
ATOM      7  N   UNL     1       2.226   0.547  -2.136  0.00  0.00    -0.281 N 
ATOM      8  H   UNL     1       1.925  -0.322  -1.826  0.00  0.00    +0.152 HD
ENDROOT
BRANCH   1   9
ATOM      9  C   UNL     1       4.620   0.633  -1.624  0.00  0.00    -0.015 A 
ATOM     10  C   UNL     1       5.612   0.906  -0.701  0.00  0.00    +0.006 A 
ATOM     11  C   UNL     1       6.817   0.232  -0.762  0.00  0.00    +0.000 A 
ATOM     12  C   UNL     1       7.034  -0.708  -1.752  0.00  0.00    +0.000 A 
ATOM     13  C   UNL     1       6.044  -0.978  -2.678  0.00  0.00    +0.000 A 
ATOM     14  C   UNL     1       4.837  -0.307  -2.614  0.00  0.00    +0.006 A 
ENDBRANCH   1   9
BRANCH   1  15
ATOM     15  C   UNL     1       2.975   1.740  -0.108  0.00  0.00    +0.075 C 
BRANCH  15  19
ATOM     16  C   UNL     1      -0.854   3.629   0.035  0.00  0.00    +0.000 A 
ATOM     17  C   UNL     1      -0.755   2.257   0.165  0.00  0.00    +0.000 A 
ATOM     18  C   UNL     1       0.484   1.646   0.124  0.00  0.00    +0.004 A 
ATOM     19  C   UNL     1       1.624   2.407  -0.058  0.00  0.00    -0.045 A 
ATOM     20  C   UNL     1       1.525   3.779  -0.193  0.00  0.00    +0.004 A 
ATOM     21  C   UNL     1       0.286   4.390  -0.147  0.00  0.00    +0.000 A 
ENDBRANCH  15  19
ENDBRANCH   1  15
BRANCH   4  22
ATOM     22  C   UNL     1       2.039   3.368  -4.415  0.00  0.00    +0.194 C 
BRANCH  22  23
ATOM     23  C   UNL     1       0.987   4.327  -3.920  0.00  0.00    +0.154 A 
ATOM     24  N   UNL     1       1.347   5.449  -3.321  0.00  0.00    -0.198 NA
ATOM     25  C   UNL     1       0.421   6.299  -2.884  0.00  0.00    +0.217 A 
ATOM     26  N   UNL     1      -0.867   6.019  -3.050  0.00  0.00    -0.181 NA
ATOM     27  C   UNL     1      -1.225   4.890  -3.653  0.00  0.00    +0.224 A 
ATOM     28  N   UNL     1      -0.293   4.047  -4.092  0.00  0.00    -0.198 NA
ATOM     29  N   UNL     1      -2.563   4.595  -3.829  0.00  0.00    -0.284 N 
ATOM     30  N   UNL     1       0.798   7.470  -2.258  0.00  0.00    -0.327 N 
ATOM     31  H   UNL     1      -2.824   3.811  -4.338  0.00  0.00    +0.155 HD
ATOM     32  H   UNL     1       1.739   7.674  -2.137  0.00  0.00    +0.145 HD
ATOM     33  H   UNL     1       0.123   8.089  -1.940  0.00  0.00    +0.145 HD
BRANCH  29  34
ATOM     34  C   UNL     1      -3.541   5.424  -3.272  0.00  0.00    +0.034 A 
ATOM     35  C   UNL     1      -3.304   6.067  -2.064  0.00  0.00    +0.023 A 
ATOM     36  C   UNL     1      -4.270   6.890  -1.520  0.00  0.00    +0.002 A 
ATOM     37  C   UNL     1      -5.478   7.066  -2.171  0.00  0.00    +0.000 A 
ATOM     38  C   UNL     1      -5.719   6.423  -3.371  0.00  0.00    +0.002 A 
ATOM     39  C   UNL     1      -4.755   5.602  -3.923  0.00  0.00    +0.023 A 
ENDBRANCH  29  34
ENDBRANCH  22  23
ENDBRANCH   4  22
TORSDOF 6
