REMARK  Name = ZINC37125019
REMARK  8 active torsions:
REMARK  status: ('A' for Active; 'I' for Inactive)
REMARK    1  A    between atoms: C_1  and  C_2
REMARK    2  A    between atoms: C_2  and  C_3
REMARK    3  A    between atoms: C_3  and  C_5
REMARK    4  A    between atoms: C_3  and  N_12
REMARK    5  A    between atoms: C_8  and  O_11
REMARK    6  A    between atoms: N_12  and  C_13
REMARK    7  A    between atoms: C_18  and  C_19
REMARK    8  A    between atoms: C_19  and  C_20
REMARK                            x       y       z     vdW  Elec       q    Type
REMARK                         _______ _______ _______ _____ _____    ______ ____
ROOT
ATOM      1  N   UNL     1      -2.082  -0.162   1.273  0.00  0.00    -0.337 N 
ATOM      2  H   UNL     1      -2.092  -0.785   2.016  0.00  0.00    +0.147 HD
ENDROOT
BRANCH   1   3
ATOM      3  C   UNL     1      -2.685   1.091   1.405  0.00  0.00    +0.031 A 
ATOM      4  C   UNL     1      -2.676   1.983   0.340  0.00  0.00    +0.023 A 
ATOM      5  C   UNL     1      -3.274   3.221   0.474  0.00  0.00    +0.002 A 
ATOM      6  C   UNL     1      -3.881   3.573   1.666  0.00  0.00    +0.000 A 
ATOM      7  C   UNL     1      -3.891   2.687   2.728  0.00  0.00    +0.006 A 
ATOM      8  C   UNL     1      -3.300   1.445   2.599  0.00  0.00    -0.018 A 
BRANCH   8   9
ATOM      9  C   UNL     1      -3.317   0.478   3.754  0.00  0.00    +0.132 C 
BRANCH   9  10
ATOM     10  C   UNL     1      -2.039   0.612   4.541  0.00  0.00    +0.215 C 
ATOM     11  O   UNL     1      -1.196   1.414   4.197  0.00  0.00    -0.276 OA
ATOM     12  N   UNL     1      -1.831  -0.159   5.626  0.00  0.00    -0.329 N 
ATOM     13  H   UNL     1      -2.505  -0.800   5.902  0.00  0.00    +0.145 HD
ATOM     14  H   UNL     1      -1.008  -0.072   6.133  0.00  0.00    +0.145 HD
ENDBRANCH   9  10
ENDBRANCH   8   9
ENDBRANCH   1   3
BRANCH   1  15
ATOM     15  C   UNL     1      -1.433  -0.534   0.013  0.00  0.00    +0.100 C 
BRANCH  15  16
ATOM     16  C   UNL     1      -1.416  -2.035  -0.119  0.00  0.00    -0.027 A 
ATOM     17  C   UNL     1      -1.159  -2.822   0.988  0.00  0.00    +0.009 A 
ATOM     18  C   UNL     1      -1.142  -4.198   0.870  0.00  0.00    +0.046 A 
ATOM     19  C   UNL     1      -1.384  -4.790  -0.362  0.00  0.00    +0.117 A 
ATOM     20  C   UNL     1      -1.642  -3.998  -1.471  0.00  0.00    +0.046 A 
ATOM     21  C   UNL     1      -1.663  -2.623  -1.346  0.00  0.00    +0.009 A 
BRANCH  19  22
ATOM     22  O   UNL     1      -1.367  -6.144  -0.481  0.00  0.00    -0.507 OA
ATOM     23  H   UNL     1      -2.226  -6.562  -0.333  0.00  0.00    +0.292 HD
ENDBRANCH  19  22
ENDBRANCH  15  16
BRANCH  15  25
ATOM     24  C   UNL     1      -0.019   1.526   0.010  0.00  0.00    +0.006 C 
ATOM     25  C   UNL     1       0.002  -0.004   0.002  0.00  0.00    +0.023 C 
ENDBRANCH  15  25
ENDBRANCH   1  15
TORSDOF 7
