REMARK  Name = ZINC12587908
REMARK  13 active torsions:
REMARK  status: ('A' for Active; 'I' for Inactive)
REMARK    1  A    between atoms: C_1  and  O_2
REMARK    2  A    between atoms: O_2  and  C_3
REMARK    3  A    between atoms: C_7  and  C_11
REMARK    4  A    between atoms: C_8  and  O_9
REMARK    5  A    between atoms: O_9  and  C_10
REMARK    6  A    between atoms: C_11  and  N_63
REMARK    7  A    between atoms: C_17  and  C_19
REMARK    8  A    between atoms: C_19  and  C_20
REMARK    9  A    between atoms: N_22  and  C_23
REMARK   10  A    between atoms: N_22  and  C_26
REMARK   11  A    between atoms: C_23  and  C_24
REMARK   12  A    between atoms: C_24  and  O_25
REMARK   13  A    between atoms: C_26  and  C_27
REMARK                            x       y       z     vdW  Elec       q    Type
REMARK                         _______ _______ _______ _____ _____    ______ ____
ROOT
ATOM      1  C   UNL     1       3.724  -5.997  -4.008  0.00  0.00    -0.058 C 
ATOM      2  C   UNL     1       4.525  -6.094  -5.307  0.00  0.00    +0.085 C 
ATOM      3  N   UNL     1       4.394  -4.855  -6.069  0.00  0.00    -0.318 N 
ATOM      4  C   UNL     1       3.981  -3.707  -5.524  0.00  0.00    +0.200 C 
ATOM      5  O   UNL     1       3.930  -2.717  -6.223  0.00  0.00    -0.278 OA
ATOM      6  C   UNL     1       3.575  -3.591  -4.082  0.00  0.00    +0.028 C 
ATOM      7  H   UNL     1       4.618  -4.866  -7.013  0.00  0.00    +0.149 HD
ATOM      8  N   UNL     1       4.105  -4.743  -3.328  0.00  0.00    +0.391 N 
ATOM      9  H   UNL     1       5.129  -4.678  -3.292  0.00  0.00    -0.080 HD
ENDROOT
BRANCH   8  10
ATOM     10  C   UNL     1       3.573  -4.732  -1.946  0.00  0.00    -0.038 C 
BRANCH  10  15
ATOM     11  C   UNL     1       6.351  -6.210   0.159  0.00  0.00    +0.162 A 
ATOM     12  C   UNL     1       5.841  -7.468   0.435  0.00  0.00    +0.049 A 
ATOM     13  C   UNL     1       4.603  -7.837  -0.058  0.00  0.00    +0.004 A 
ATOM     14  C   UNL     1       3.871  -6.951  -0.828  0.00  0.00    +0.005 A 
ATOM     15  C   UNL     1       4.374  -5.694  -1.107  0.00  0.00    -0.019 A 
ATOM     16  C   UNL     1       5.616  -5.321  -0.621  0.00  0.00    +0.163 A 
BRANCH  11  18
ATOM     17  C   UNL     1       8.268  -6.812   1.430  0.00  0.00    +0.277 C 
ATOM     18  O   UNL     1       7.568  -5.846   0.643  0.00  0.00    -0.491 OA
ENDBRANCH  11  18
BRANCH  16  19
ATOM     19  O   UNL     1       6.115  -4.087  -0.900  0.00  0.00    -0.491 OA
ATOM     20  C   UNL     1       5.803  -3.038   0.020  0.00  0.00    +0.277 C 
ENDBRANCH  16  19
ENDBRANCH  10  15
ENDBRANCH   8  10
BRANCH   6  21
ATOM     21  C   UNL     1       4.153  -2.303  -3.493  0.00  0.00    +0.090 C 
BRANCH  21  22
ATOM     22  C   UNL     1       5.645  -2.279  -3.705  0.00  0.00    +0.215 C 
ATOM     23  O   UNL     1       6.207  -3.247  -4.174  0.00  0.00    -0.276 OA
ATOM     24  N   UNL     1       6.356  -1.183  -3.374  0.00  0.00    -0.295 N 
BRANCH  24  25
ATOM     25  C   UNL     1       5.678  -0.014  -2.808  0.00  0.00    +0.136 C 
BRANCH  25  26
ATOM     26  C   UNL     1       5.244   0.922  -3.939  0.00  0.00    +0.174 C 
BRANCH  26  27
ATOM     27  O   UNL     1       4.262   0.270  -4.747  0.00  0.00    -0.393 OA
ATOM     28  H   UNL     1       3.941   0.806  -5.485  0.00  0.00    +0.209 HD
ENDBRANCH  26  27
ENDBRANCH  25  26
ENDBRANCH  24  25
BRANCH  24  29
ATOM     29  C   UNL     1       7.806  -1.159  -3.581  0.00  0.00    +0.143 C 
BRANCH  29  30
ATOM     30  C   UNL     1       8.497  -1.672  -2.344  0.00  0.00    -0.030 A 
ATOM     31  C   UNL     1       8.770  -3.021  -2.213  0.00  0.00    +0.005 A 
ATOM     32  C   UNL     1       9.405  -3.491  -1.079  0.00  0.00    +0.000 A 
ATOM     33  C   UNL     1       9.767  -2.613  -0.075  0.00  0.00    +0.000 A 
ATOM     34  C   UNL     1       9.495  -1.264  -0.206  0.00  0.00    +0.000 A 
ATOM     35  C   UNL     1       8.859  -0.794  -1.340  0.00  0.00    +0.005 A 
ENDBRANCH  29  30
ENDBRANCH  24  29
ENDBRANCH  21  22
ENDBRANCH   6  21
TORSDOF 11
