REMARK  Name = ZINC39916078
REMARK  6 active torsions:
REMARK  status: ('A' for Active; 'I' for Inactive)
REMARK    1  A    between atoms: C_1  and  C_2
REMARK    2  A    between atoms: C_2  and  S_3
REMARK    3  A    between atoms: S_3  and  C_4
REMARK    4  A    between atoms: C_12  and  C_16
REMARK    5  A    between atoms: C_24  and  C_26
REMARK    6  A    between atoms: C_24  and  C_27
REMARK                            x       y       z     vdW  Elec       q    Type
REMARK                         _______ _______ _______ _____ _____    ______ ____
ROOT
ATOM      1  C   UNL     1      -1.502  -2.435   0.003  0.00  0.00    +0.198 C 
ATOM      2  N   UNL     1      -0.748  -2.858  -1.205  0.00  0.00    -0.260 NA
ATOM      3  C   UNL     1       0.500  -3.442  -0.698  0.00  0.00    +0.231 C 
ATOM      4  N   UNL     1       0.991  -4.592  -1.452  0.00  0.00    -0.318 N 
ATOM      5  C   UNL     1       1.930  -5.375  -0.816  0.00  0.00    +0.015 C 
ATOM      6  C   UNL     1       2.128  -5.277   0.518  0.00  0.00    +0.034 C 
ATOM      7  C   UNL     1       1.315  -4.319   1.370  0.00  0.00    +0.139 C 
ATOM      8  N   UNL     1       0.106  -3.964   0.645  0.00  0.00    -0.196 NA
ATOM      9  N   UNL     1      -0.694  -2.869   1.177  0.00  0.00    -0.224 NA
ATOM     10  C   UNL     1       3.091  -6.066   1.166  0.00  0.00    +0.163 C 
ATOM     11  O   UNL     1       3.252  -5.949   2.365  0.00  0.00    -0.292 OA
ATOM     12  C   UNL     1       3.929  -7.055   0.401  0.00  0.00    +0.086 C 
ATOM     13  C   UNL     1       3.132  -7.548  -0.812  0.00  0.00    -0.023 C 
ATOM     14  C   UNL     1       2.732  -6.336  -1.656  0.00  0.00    +0.057 C 
ATOM     15  C   UNL     1       1.876  -8.282  -0.339  0.00  0.00    +0.011 C 
ATOM     16  C   UNL     1       4.000  -8.492  -1.647  0.00  0.00    +0.011 C 
ATOM     17  H   UNL     1      -1.272  -3.534  -1.740  0.00  0.00    +0.127 HD
ATOM     18  H   UNL     1       0.675  -4.793  -2.347  0.00  0.00    +0.149 HD
ATOM     19  H   UNL     1      -1.288  -3.186   1.928  0.00  0.00    +0.143 HD
ENDROOT
BRANCH   7  20
ATOM     20  C   UNL     1       0.954  -4.979   2.675  0.00  0.00    -0.026 C 
ATOM     21  C   UNL     1       1.351  -4.618   3.894  0.00  0.00    +0.020 C 
ATOM     22  C   UNL     1       0.772  -5.526   4.885  0.00  0.00    +0.078 C 
ATOM     23  N   UNL     1       0.038  -6.425   4.318  0.00  0.00    -0.386 N 
ATOM     24  C   UNL     1       0.060  -6.184   2.870  0.00  0.00    +0.145 C 
ATOM     25  H   UNL     1      -0.447  -7.133   4.771  0.00  0.00    +0.159 HD
ENDBRANCH   7  20
BRANCH   1  26
ATOM     26  S   UNL     1      -1.700  -0.632   0.015  0.00  0.00    -0.126 S 
BRANCH  26  28
ATOM     27  C   UNL     1      -0.019   1.526   0.010  0.00  0.00    +0.015 C 
ATOM     28  C   UNL     1       0.002  -0.004   0.002  0.00  0.00    +0.068 C 
ENDBRANCH  26  28
ENDBRANCH   1  26
TORSDOF 3
