REMARK  Name = ZINC12302236
REMARK  7 active torsions:
REMARK  status: ('A' for Active; 'I' for Inactive)
REMARK    1  A    between atoms: C_4  and  O_30
REMARK    2  A    between atoms: C_5  and  C_7
REMARK    3  A    between atoms: C_7  and  N_8
REMARK    4  A    between atoms: C_12  and  C_15
REMARK    5  A    between atoms: C_15  and  N_16
REMARK    6  A    between atoms: N_16  and  S_17
REMARK    7  A    between atoms: S_17  and  C_20
REMARK                            x       y       z     vdW  Elec       q    Type
REMARK                         _______ _______ _______ _____ _____    ______ ____
ROOT
ATOM      1  N   UNL     1       1.370  -2.682   1.353  0.00  0.00    +0.383 N 
ATOM      2  C   UNL     1       2.619  -2.171   1.931  0.00  0.00    -0.078 C 
ATOM      3  C   UNL     1       2.731  -2.618   3.390  0.00  0.00    -0.018 C 
ATOM      4  C   UNL     1       2.728  -4.149   3.450  0.00  0.00    +0.001 C 
ATOM      5  C   UNL     1       1.456  -4.673   2.779  0.00  0.00    -0.012 C 
ATOM      6  C   UNL     1       1.390  -4.150   1.343  0.00  0.00    -0.074 C 
ATOM      7  H   UNL     1       0.590  -2.362   1.907  0.00  0.00    -0.081 HD
ENDROOT
BRANCH   1   8
ATOM      8  C   UNL     1       1.229  -2.186  -0.022  0.00  0.00    -0.039 C 
BRANCH   8  13
ATOM      9  C   UNL     1       1.968   1.501  -0.365  0.00  0.00    +0.000 A 
ATOM     10  C   UNL     1       0.771   2.064   0.037  0.00  0.00    +0.004 A 
ATOM     11  C   UNL     1      -0.280   1.255   0.421  0.00  0.00    +0.045 A 
ATOM     12  C   UNL     1      -0.134  -0.125   0.402  0.00  0.00    +0.118 A 
ATOM     13  C   UNL     1       1.067  -0.688  -0.002  0.00  0.00    -0.022 A 
ATOM     14  C   UNL     1       2.116   0.126  -0.384  0.00  0.00    +0.005 A 
BRANCH  12  15
ATOM     15  O   UNL     1      -1.167  -0.923   0.780  0.00  0.00    -0.507 OA
ATOM     16  H   UNL     1      -1.798  -1.112   0.072  0.00  0.00    +0.292 HD
ENDBRANCH  12  15
ENDBRANCH   8  13
ENDBRANCH   1   8
BRANCH   5  17
ATOM     17  C   UNL     1       1.478  -6.203   2.766  0.00  0.00    +0.107 C 
BRANCH  17  18
ATOM     18  N   UNL     1       1.425  -6.704   4.141  0.00  0.00    -0.190 NA
ATOM     19  H   UNL     1       1.601  -6.105   4.883  0.00  0.00    +0.148 HD
BRANCH  18  20
ATOM     20  S   UNL     1       1.064  -8.294   4.430  0.00  0.00    +0.060 S 
ATOM     21  O   UNL     1       1.116  -8.474   5.838  0.00  0.00    -0.153 OA
ATOM     22  O   UNL     1      -0.097  -8.592   3.666  0.00  0.00    -0.153 OA
BRANCH  20  23
ATOM     23  C   UNL     1       2.374  -9.258   3.751  0.00  0.00    +0.131 A 
ATOM     24  C   UNL     1       3.170 -10.000   4.568  0.00  0.00    +0.031 A 
ATOM     25  C   UNL     1       4.211 -10.769   4.052  0.00  0.00    +0.003 A 
ATOM     26  C   UNL     1       4.462 -10.798   2.714  0.00  0.00    +0.010 A 
ATOM     27  C   UNL     1       3.661 -10.044   1.842  0.00  0.00    +0.002 A 
ATOM     28  C   UNL     1       2.598  -9.266   2.363  0.00  0.00    +0.097 A 
ATOM     29  N   UNL     1       1.829  -8.550   1.536  0.00  0.00    -0.253 NA
ATOM     30  C   UNL     1       2.034  -8.554   0.241  0.00  0.00    +0.111 A 
ATOM     31  C   UNL     1       3.058  -9.302  -0.337  0.00  0.00    +0.020 A 
ATOM     32  C   UNL     1       3.887 -10.047   0.452  0.00  0.00    +0.011 A 
ENDBRANCH  20  23
ENDBRANCH  18  20
ENDBRANCH  17  18
ENDBRANCH   5  17
TORSDOF 7
