REMARK  Name = ZINC64802048
REMARK  7 active torsions:
REMARK  status: ('A' for Active; 'I' for Inactive)
REMARK    1  A    between atoms: C_1  and  C_2
REMARK    2  A    between atoms: C_4  and  N_15
REMARK    3  A    between atoms: N_8  and  C_9
REMARK    4  A    between atoms: N_15  and  C_16
REMARK    5  A    between atoms: C_19  and  N_22
REMARK    6  A    between atoms: N_22  and  S_23
REMARK    7  A    between atoms: S_23  and  C_26
REMARK                            x       y       z     vdW  Elec       q    Type
REMARK                         _______ _______ _______ _____ _____    ______ ____
ROOT
ATOM      1  N   UNL     1       0.030  -2.827  -2.331  0.00  0.00    -0.299 N 
ATOM      2  H   UNL     1      -0.057  -2.376  -3.185  0.00  0.00    +0.154 HD
ENDROOT
BRANCH   1   6
ATOM      3  C   UNL     1      -0.474   1.459   0.037  0.00  0.00    +0.063 C 
ATOM      4  C   UNL     1      -0.211  -0.025   0.015  0.00  0.00    +0.019 A 
ATOM      5  C   UNL     1      -0.220  -0.717  -1.181  0.00  0.00    +0.064 A 
ATOM      6  C   UNL     1       0.029  -2.091  -1.156  0.00  0.00    +0.128 A 
ATOM      7  N   UNL     1       0.266  -2.683   0.011  0.00  0.00    -0.201 NA
ATOM      8  C   UNL     1       0.266  -1.983   1.135  0.00  0.00    +0.195 A 
ATOM      9  N   UNL     1       0.037  -0.678   1.140  0.00  0.00    -0.332 N 
ATOM     10  N   UNL     1       0.516  -2.629   2.332  0.00  0.00    -0.312 N 
ATOM     11  H   UNL     1       0.688  -3.584   2.341  0.00  0.00    +0.149 HD
ATOM     12  H   UNL     1       0.048  -0.194   1.981  0.00  0.00    +0.168 HD
BRANCH  10  13
ATOM     13  C   UNL     1       0.520  -1.872   3.587  0.00  0.00    +0.073 C 
ATOM     14  C   UNL     1       1.901  -1.251   3.803  0.00  0.00    +0.022 C 
ATOM     15  C   UNL     1       1.906  -0.460   5.112  0.00  0.00    +0.002 C 
ATOM     16  C   UNL     1       1.581  -1.399   6.276  0.00  0.00    +0.000 C 
ATOM     17  C   UNL     1       0.200  -2.020   6.060  0.00  0.00    +0.002 C 
ATOM     18  C   UNL     1       0.195  -2.811   4.750  0.00  0.00    +0.022 C 
ENDBRANCH  10  13
ENDBRANCH   1   6
BRANCH   1  19
ATOM     19  C   UNL     1       0.155  -4.221  -2.284  0.00  0.00    +0.032 A 
ATOM     20  C   UNL     1      -0.426  -4.936  -1.245  0.00  0.00    +0.025 A 
ATOM     21  C   UNL     1      -0.303  -6.310  -1.199  0.00  0.00    +0.028 A 
ATOM     22  C   UNL     1       0.403  -6.978  -2.192  0.00  0.00    +0.074 A 
ATOM     23  C   UNL     1       0.984  -6.263  -3.231  0.00  0.00    +0.028 A 
ATOM     24  C   UNL     1       0.856  -4.889  -3.280  0.00  0.00    +0.025 A 
BRANCH  22  25
ATOM     25  N   UNL     1       0.528  -8.371  -2.145  0.00  0.00    -0.097 NA
BRANCH  25  26
ATOM     26  S   UNL     1       1.369  -9.167  -3.329  0.00  0.00    +0.098 S 
ATOM     27  O   UNL     1       0.634  -8.998  -4.533  0.00  0.00    -0.148 OA
ATOM     28  O   UNL     1       2.727  -8.765  -3.203  0.00  0.00    -0.148 OA
BRANCH  26  29
ATOM     29  C   UNL     1       1.315 -10.885  -2.941  0.00  0.00    +0.148 A 
ATOM     30  C   UNL     1       0.407 -11.817  -3.320  0.00  0.00    +0.037 A 
ATOM     31  C   UNL     1       0.567 -13.121  -2.892  0.00  0.00    +0.010 A 
ATOM     32  C   UNL     1       1.627 -13.430  -2.106  0.00  0.00    +0.047 A 
ATOM     33  S   UNL     1       2.446 -11.851  -1.954  0.00  0.00    -0.077 S 
ENDBRANCH  26  29
ENDBRANCH  25  26
ENDBRANCH  22  25
ENDBRANCH   1  19
TORSDOF 6
