REMARK  Name = ZINC61697896
REMARK  6 active torsions:
REMARK  status: ('A' for Active; 'I' for Inactive)
REMARK    1  A    between atoms: C_1  and  C_2
REMARK    2  A    between atoms: C_2  and  C_4
REMARK    3  A    between atoms: C_2  and  O_22
REMARK    4  A    between atoms: C_7  and  O_11
REMARK    5  A    between atoms: O_11  and  C_12
REMARK    6  A    between atoms: C_15  and  N_19
REMARK                            x       y       z     vdW  Elec       q    Type
REMARK                         _______ _______ _______ _____ _____    ______ ____
ROOT
ATOM      1  C   UNL     1       0.661  -1.414   1.023  0.00  0.00    -0.018 A 
ATOM      2  C   UNL     1       2.041  -1.517   1.009  0.00  0.00    +0.010 A 
ATOM      3  C   UNL     1       2.735  -1.670   2.194  0.00  0.00    +0.048 A 
ATOM      4  C   UNL     1       2.047  -1.720   3.398  0.00  0.00    +0.142 A 
ATOM      5  C   UNL     1       0.663  -1.616   3.409  0.00  0.00    +0.060 A 
ATOM      6  C   UNL     1      -0.026  -1.458   2.221  0.00  0.00    +0.025 A 
ATOM      7 BR   UNL     1      -0.278  -1.684   5.048  0.00  0.00    -0.046 Br
ENDROOT
BRANCH   1   9
ATOM      8  C   UNL     1      -0.019   0.213  -0.720  0.00  0.00    +0.043 C 
ATOM      9  C   UNL     1      -0.093  -1.248  -0.271  0.00  0.00    +0.141 C 
BRANCH   9  10
ATOM     10  O   UNL     1       0.490  -2.084  -1.273  0.00  0.00    -0.387 OA
ATOM     11  H   UNL     1       1.419  -1.888  -1.457  0.00  0.00    +0.210 HD
ENDBRANCH   9  10
ENDBRANCH   1   9
BRANCH   4  12
ATOM     12  O   UNL     1       2.728  -1.870   4.565  0.00  0.00    -0.455 OA
BRANCH  12  13
ATOM     13  C   UNL     1       4.083  -1.960   4.506  0.00  0.00    +0.131 A 
ATOM     14  C   UNL     1       4.859  -0.813   4.581  0.00  0.00    +0.048 A 
ATOM     15  C   UNL     1       6.236  -0.906   4.522  0.00  0.00    +0.039 A 
ATOM     16  C   UNL     1       6.842  -2.141   4.387  0.00  0.00    +0.161 A 
ATOM     17  C   UNL     1       6.071  -3.288   4.311  0.00  0.00    +0.157 A 
ATOM     18  C   UNL     1       4.691  -3.200   4.376  0.00  0.00    +0.087 A 
ATOM     19  F   UNL     1       6.665  -4.494   4.178  0.00  0.00    -0.203 F 
BRANCH  16  20
ATOM     20  N   UNL     1       8.318  -2.237   4.323  0.00  0.00    +0.059 N 
ATOM     21  O   UNL     1       8.992  -1.236   4.389  0.00  0.00    -0.126 OA
ATOM     22  O   UNL     1       8.849  -3.317   4.205  0.00  0.00    -0.126 OA
ENDBRANCH  16  20
ENDBRANCH  12  13
ENDBRANCH   4  12
TORSDOF 5
