REMARK  Name = ZINC40629160
REMARK  5 active torsions:
REMARK  status: ('A' for Active; 'I' for Inactive)
REMARK    1  A    between atoms: C_1  and  C_2
REMARK    2  A    between atoms: C_2  and  C_4
REMARK    3  A    between atoms: C_2  and  N_10
REMARK    4  A    between atoms: C_12  and  N_25
REMARK    5  A    between atoms: C_13  and  N_17
REMARK                            x       y       z     vdW  Elec       q    Type
REMARK                         _______ _______ _______ _____ _____    ______ ____
ROOT
ATOM      1  N   UNL     1      -1.367  -0.528   0.013  0.00  0.00    -0.321 N 
ATOM      2  C   UNL     1      -2.043  -0.672   1.214  0.00  0.00    +0.155 A 
ATOM      3  C   UNL     1      -3.349  -1.154   1.236  0.00  0.00    +0.205 A 
ATOM      4  C   UNL     1      -3.984  -1.280   2.468  0.00  0.00    +0.160 A 
ATOM      5  N   UNL     1      -3.325  -0.936   3.573  0.00  0.00    -0.218 NA
ATOM      6  C   UNL     1      -2.090  -0.483   3.510  0.00  0.00    +0.225 A 
ATOM      7  N   UNL     1      -1.452  -0.355   2.365  0.00  0.00    -0.218 NA
ATOM      8  H   UNL     1      -1.804  -0.761  -0.821  0.00  0.00    +0.148 HD
ENDROOT
BRANCH   4   9
ATOM      9  N   UNL     1      -5.285  -1.755   2.543  0.00  0.00    -0.282 N 
ATOM     10  C   UNL     1      -5.874  -1.980   3.785  0.00  0.00    +0.124 A 
ATOM     11  C   UNL     1      -7.137  -2.558   3.854  0.00  0.00    +0.045 A 
ATOM     12  C   UNL     1      -7.710  -2.776   5.095  0.00  0.00    +0.020 A 
ATOM     13  C   UNL     1      -6.996  -2.407   6.228  0.00  0.00    +0.036 A 
ATOM     14  C   UNL     1      -5.746  -1.838   6.085  0.00  0.00    +0.128 A 
ATOM     15  N   UNL     1      -5.223  -1.646   4.888  0.00  0.00    -0.239 NA
ATOM     16 BR   UNL     1      -7.730  -2.681   7.950  0.00  0.00    -0.049 Br
ATOM     17  H   UNL     1      -5.785  -1.931   1.731  0.00  0.00    +0.155 HD
ENDBRANCH   4   9
BRANCH   3  18
ATOM     18  N   UNL     1      -4.043  -1.524  -0.018  0.00  0.00    +0.063 N 
ATOM     19  O   UNL     1      -3.964  -2.653  -0.442  0.00  0.00    -0.126 OA
ATOM     20  O   UNL     1      -4.690  -0.696  -0.617  0.00  0.00    -0.126 OA
ENDBRANCH   3  18
BRANCH   1  22
ATOM     21  C   UNL     1      -0.007   1.505   0.007  0.00  0.00    +0.033 C 
ATOM     22  C   UNL     1       0.009  -0.025   0.002  0.00  0.00    +0.099 C 
BRANCH  22  23
ATOM     23  C   UNL     1       0.714  -0.516  -1.236  0.00  0.00    -0.028 A 
ATOM     24  C   UNL     1       0.045  -0.548  -2.445  0.00  0.00    +0.005 A 
ATOM     25  C   UNL     1       0.692  -0.999  -3.581  0.00  0.00    +0.000 A 
ATOM     26  C   UNL     1       2.008  -1.416  -3.507  0.00  0.00    +0.000 A 
ATOM     27  C   UNL     1       2.677  -1.383  -2.298  0.00  0.00    +0.000 A 
ATOM     28  C   UNL     1       2.031  -0.928  -1.163  0.00  0.00    +0.005 A 
ENDBRANCH  22  23
ENDBRANCH   1  22
TORSDOF 4
