REMARK  Name = ZINC35311359
REMARK  6 active torsions:
REMARK  status: ('A' for Active; 'I' for Inactive)
REMARK    1  A    between atoms: C_4  and  C_7
REMARK    2  A    between atoms: C_7  and  N_8
REMARK    3  A    between atoms: N_8  and  C_9
REMARK    4  A    between atoms: C_9  and  C_10
REMARK    5  A    between atoms: N_12  and  C_13
REMARK    6  A    between atoms: C_14  and  C_22
REMARK                            x       y       z     vdW  Elec       q    Type
REMARK                         _______ _______ _______ _____ _____    ______ ____
ROOT
ATOM      1  C   UNL     1       5.888  -1.923   2.740  0.00  0.00    +0.201 C 
ATOM      2  O   UNL     1       5.210  -1.542   3.670  0.00  0.00    -0.278 OA
ATOM      3  N   UNL     1       7.047  -2.571   2.970  0.00  0.00    -0.281 N 
ATOM      4  H   UNL     1       7.590  -2.875   2.226  0.00  0.00    +0.155 HD
ENDROOT
BRANCH   3   5
ATOM      5  C   UNL     1       7.464  -2.803   4.272  0.00  0.00    +0.084 A 
ATOM      6  C   UNL     1       8.619  -3.442   4.696  0.00  0.00    +0.068 A 
ATOM      7  C   UNL     1       8.826  -3.558   6.129  0.00  0.00    -0.023 A 
ATOM      8  C   UNL     1       7.840  -3.014   6.875  0.00  0.00    -0.004 A 
ATOM      9  S   UNL     1       6.690  -2.368   5.697  0.00  0.00    -0.077 S 
ATOM     10  C   UNL     1       7.761  -2.975   8.370  0.00  0.00    +0.043 C 
ATOM     11  C   UNL     1       8.781  -3.976   8.934  0.00  0.00    +0.005 C 
ATOM     12  C   UNL     1      10.125  -3.762   8.231  0.00  0.00    +0.005 C 
ATOM     13  C   UNL     1      10.032  -4.224   6.775  0.00  0.00    +0.037 C 
BRANCH   6  14
ATOM     14  C   UNL     1       9.590  -3.978   3.738  0.00  0.00    +0.244 C 
ATOM     15  O   UNL     1      10.504  -3.279   3.341  0.00  0.00    -0.270 OA
ATOM     16  N   UNL     1       9.472  -5.246   3.296  0.00  0.00    -0.325 N 
ATOM     17  H   UNL     1       8.743  -5.804   3.612  0.00  0.00    +0.145 HD
ATOM     18  H   UNL     1      10.114  -5.601   2.663  0.00  0.00    +0.145 HD
ENDBRANCH   6  14
ENDBRANCH   3   5
BRANCH   1  19
ATOM     19  C   UNL     1       5.435  -1.670   1.325  0.00  0.00    +0.016 C 
BRANCH  19  20
ATOM     20  N   UNL     1       4.153  -0.953   1.342  0.00  0.00    +0.387 N 
ATOM     21  H   UNL     1       4.267  -0.072   1.821  0.00  0.00    -0.085 HD
ATOM     22  H   UNL     1       3.462  -1.510   1.822  0.00  0.00    -0.085 HD
BRANCH  20  23
ATOM     23  C   UNL     1       3.711  -0.707  -0.038  0.00  0.00    -0.046 C 
BRANCH  23  27
ATOM     24  C   UNL     1      -0.017   1.378   0.010  0.00  0.00    +0.000 A 
ATOM     25  C   UNL     1       1.171   2.086   0.002  0.00  0.00    +0.000 A 
ATOM     26  C   UNL     1       2.377   1.411  -0.013  0.00  0.00    +0.002 A 
ATOM     27  C   UNL     1       2.396   0.029  -0.020  0.00  0.00    -0.064 A 
ATOM     28  C   UNL     1       1.208  -0.679  -0.012  0.00  0.00    +0.002 A 
ATOM     29  C   UNL     1       0.002  -0.004   0.002  0.00  0.00    +0.000 A 
ENDBRANCH  23  27
ENDBRANCH  20  23
ENDBRANCH  19  20
ENDBRANCH   1  19
TORSDOF 6
