REMARK  Name = ZINC21969427
REMARK  8 active torsions:
REMARK  status: ('A' for Active; 'I' for Inactive)
REMARK    1  A    between atoms: C_1  and  C_2
REMARK    2  A    between atoms: C_6  and  C_7
REMARK    3  A    between atoms: N_9  and  N_10
REMARK    4  A    between atoms: C_11  and  C_13
REMARK    5  A    between atoms: C_20  and  C_23
REMARK    6  A    between atoms: C_23  and  C_24
REMARK    7  A    between atoms: C_23  and  C_25
REMARK    8  A    between atoms: C_23  and  C_26
REMARK                            x       y       z     vdW  Elec       q    Type
REMARK                         _______ _______ _______ _____ _____    ______ ____
ROOT
ATOM      1  N   UNL     1      -1.191   1.871   0.018  0.00  0.00    -0.230 N 
ATOM      2  C   UNL     1      -0.014   1.213   0.009  0.00  0.00    +0.267 C 
ATOM      3  O   UNL     1       0.002  -0.004   0.002  0.00  0.00    -0.268 OA
ATOM      4  H   UNL     1      -1.206   2.971   0.024  0.00  0.00    +0.173 HD
ENDROOT
BRANCH   2   5
ATOM      5  C   UNL     1       1.245   1.963   0.001  0.00  0.00    +0.076 A 
ATOM      6  C   UNL     1       2.543   1.487  -0.014  0.00  0.00    +0.024 A 
ATOM      7  C   UNL     1       3.578   2.409  -0.019  0.00  0.00    -0.036 A 
ATOM      8  C   UNL     1       3.225   3.729  -0.008  0.00  0.00    -0.006 A 
ATOM      9  S   UNL     1       1.503   3.729  -0.000  0.00  0.00    -0.088 S 
ATOM     10  C   UNL     1       4.147   4.909  -0.009  0.00  0.00    +0.043 C 
ATOM     11  C   UNL     1       5.558   4.422   0.351  0.00  0.00    +0.009 C 
ATOM     12  C   UNL     1       5.886   3.191  -0.500  0.00  0.00    -0.001 C 
ATOM     13  C   UNL     1       5.048   1.999  -0.036  0.00  0.00    +0.040 C 
BRANCH  12  14
ATOM     14  C   UNL     1       7.372   2.855  -0.355  0.00  0.00    -0.035 C 
ATOM     15  C   UNL     1       7.703   1.632  -1.213  0.00  0.00    +0.011 C 
ATOM     16  C   UNL     1       8.212   4.046  -0.818  0.00  0.00    +0.011 C 
ATOM     17  C   UNL     1       7.685   2.549   1.111  0.00  0.00    +0.011 C 
ENDBRANCH  12  14
ENDBRANCH   2   5
BRANCH   1  20
ATOM     18  C   UNL     1      -3.571   1.812   0.029  0.00  0.00    +0.296 C 
ATOM     19  O   UNL     1      -3.587   3.029   0.035  0.00  0.00    -0.265 OA
ATOM     20  N   UNL     1      -2.394   1.154   0.020  0.00  0.00    -0.228 N 
ATOM     21  H   UNL     1      -2.379   0.054   0.014  0.00  0.00    +0.173 HD
BRANCH  18  27
ATOM     22  C   UNL     1      -6.435   3.066   0.062  0.00  0.00    +0.048 C 
ATOM     23  C   UNL     1      -6.085   1.600   0.045  0.00  0.00    -0.000 A 
ATOM     24  C   UNL     1      -6.986   0.524   0.038  0.00  0.00    +0.045 A 
ATOM     25  C   UNL     1      -6.252  -0.610   0.029  0.00  0.00    +0.196 A 
ATOM     26  O   UNL     1      -4.953  -0.282   0.025  0.00  0.00    -0.458 OA
ATOM     27  C   UNL     1      -4.830   1.061   0.031  0.00  0.00    +0.193 A 
ENDBRANCH  18  27
ENDBRANCH   1  20
TORSDOF 4
