REMARK  Name = ZINC65182335
REMARK  11 active torsions:
REMARK  status: ('A' for Active; 'I' for Inactive)
REMARK    1  A    between atoms: C_1  and  C_2
REMARK    2  A    between atoms: C_2  and  C_3
REMARK    3  A    between atoms: C_6  and  C_33
REMARK    4  A    between atoms: C_11  and  C_13
REMARK    5  A    between atoms: C_16  and  C_19
REMARK    6  A    between atoms: C_19  and  C_20
REMARK    7  A    between atoms: C_20  and  N_21
REMARK    8  A    between atoms: N_21  and  C_22
REMARK    9  A    between atoms: C_23  and  C_25
REMARK   10  A    between atoms: C_28  and  C_32
REMARK   11  A    between atoms: C_29  and  C_31
REMARK                            x       y       z     vdW  Elec       q    Type
REMARK                         _______ _______ _______ _____ _____    ______ ____
ROOT
ATOM      1  C   UNL     1      -1.186  -2.679   1.398  0.00  0.00    +0.318 C 
ATOM      2  N   UNL     1      -1.573  -4.097   1.323  0.00  0.00    -0.291 N 
ATOM      3  C   UNL     1      -2.382  -4.346   2.406  0.00  0.00    +0.139 C 
ATOM      4  N   UNL     1      -2.543  -3.296   3.126  0.00  0.00    -0.072 NA
ATOM      5  O   UNL     1      -1.835  -2.193   2.584  0.00  0.00    -0.367 OA
ATOM      6  H   UNL     1      -1.309  -4.733   0.640  0.00  0.00    +0.151 HD
ENDROOT
BRANCH   1  15
ATOM      7  C   UNL     1      -1.217  -0.485   0.212  0.00  0.00    -0.033 C 
ATOM      8  C   UNL     1      -2.337   0.274   0.229  0.00  0.00    -0.000 A 
ATOM      9  C   UNL     1      -2.554   1.725   0.269  0.00  0.00    +0.013 A 
ATOM     10  C   UNL     1      -3.820   2.199   0.279  0.00  0.00    -0.050 A 
ATOM     11  C   UNL     1      -4.928   1.341   0.254  0.00  0.00    +0.005 A 
ATOM     12  C   UNL     1      -4.809  -0.003   0.218  0.00  0.00    +0.026 A 
ATOM     13  C   UNL     1      -3.523  -0.610   0.203  0.00  0.00    +0.043 A 
ATOM     14  N   UNL     1      -3.152  -1.867   0.170  0.00  0.00    -0.373 N 
ATOM     15  C   UNL     1      -1.686  -1.922   0.166  0.00  0.00    +0.169 C 
ATOM     16  C   UNL     1      -4.046   3.689   0.319  0.00  0.00    +0.044 C 
ATOM     17  H   UNL     1      -3.747  -2.633   0.148  0.00  0.00    +0.160 HD
BRANCH   7  19
ATOM     18  C   UNL     1       0.224   1.532   0.276  0.00  0.00    +0.008 C 
ATOM     19  C   UNL     1       0.208   0.003   0.228  0.00  0.00    +0.030 C 
ENDBRANCH   7  19
ENDBRANCH   1  15
BRANCH   3  20
ATOM     20  C   UNL     1      -3.002  -5.686   2.711  0.00  0.00    +0.094 C 
BRANCH  20  21
ATOM     21  C   UNL     1      -3.835  -5.583   3.990  0.00  0.00    +0.115 C 
BRANCH  21  22
ATOM     22  N   UNL     1      -4.438  -6.885   4.286  0.00  0.00    -0.300 N 
ATOM     23  C   UNL     1      -3.721  -7.851   5.122  0.00  0.00    +0.132 C 
ATOM     24  C   UNL     1      -5.652  -7.194   3.790  0.00  0.00    +0.246 C 
ATOM     25  O   UNL     1      -6.200  -6.439   3.011  0.00  0.00    -0.270 OA
BRANCH  24  26
ATOM     26  C   UNL     1      -6.317  -8.452   4.192  0.00  0.00    +0.037 A 
ATOM     27  C   UNL     1      -6.164  -8.942   5.490  0.00  0.00    +0.013 A 
ATOM     28  C   UNL     1      -6.787 -10.116   5.859  0.00  0.00    +0.004 A 
ATOM     29  C   UNL     1      -7.563 -10.807   4.945  0.00  0.00    -0.047 A 
ATOM     30  C   UNL     1      -7.719 -10.327   3.657  0.00  0.00    -0.047 A 
ATOM     31  C   UNL     1      -7.105  -9.151   3.277  0.00  0.00    +0.016 A 
ATOM     32  C   UNL     1      -8.565 -11.088   2.669  0.00  0.00    +0.044 C 
ATOM     33  C   UNL     1      -8.240 -12.090   5.355  0.00  0.00    +0.044 C 
ENDBRANCH  24  26
ENDBRANCH  21  22
ENDBRANCH  20  21
ENDBRANCH   3  20
TORSDOF 6
