REMARK  Name = ZINC15009209
REMARK  4 active torsions:
REMARK  status: ('A' for Active; 'I' for Inactive)
REMARK    1  A    between atoms: C_3  and  O_22
REMARK    2  A    between atoms: C_6  and  C_7
REMARK    3  A    between atoms: C_8  and  C_9
REMARK    4  A    between atoms: C_10  and  N_18
REMARK                            x       y       z     vdW  Elec       q    Type
REMARK                         _______ _______ _______ _____ _____    ______ ____
ROOT
ATOM      1  C   UNL     1      -2.502  -2.858  -0.006  0.00  0.00    +0.105 A 
ATOM      2  C   UNL     1      -2.488  -4.248  -0.095  0.00  0.00    +0.215 A 
ATOM      3  C   UNL     1      -3.709  -4.934  -0.066  0.00  0.00    +0.285 A 
ATOM      4  O   UNL     1      -3.739  -6.152  -0.141  0.00  0.00    -0.265 OA
ATOM      5  N   UNL     1      -4.851  -4.225   0.047  0.00  0.00    -0.272 N 
ATOM      6  H   UNL     1      -5.705  -4.686   0.069  0.00  0.00    +0.174 HD
ATOM      7  C   UNL     1      -4.812  -2.869   0.131  0.00  0.00    +0.349 A 
ATOM      8  O   UNL     1      -5.967  -2.182   0.244  0.00  0.00    -0.245 OA
ATOM      9  N   UNL     1      -3.676  -2.213   0.111  0.00  0.00    -0.191 NA
ENDROOT
BRANCH   2  10
ATOM     10  N   UNL     1      -1.209  -4.984  -0.219  0.00  0.00    +0.064 N 
ATOM     11  O   UNL     1      -0.159  -4.391  -0.137  0.00  0.00    -0.126 OA
ATOM     12  O   UNL     1      -1.216  -6.180  -0.401  0.00  0.00    -0.126 OA
ENDBRANCH   2  10
BRANCH   1  14
ATOM     13  C   UNL     1      -1.265  -0.757  -0.052  0.00  0.00    +0.010 C 
ATOM     14  C   UNL     1      -1.242  -2.103  -0.033  0.00  0.00    +0.031 C 
BRANCH  13  20
ATOM     15  C   UNL     1      -0.024   1.398  -0.099  0.00  0.00    +0.011 A 
ATOM     16  C   UNL     1       1.160   2.102  -0.124  0.00  0.00    +0.047 A 
ATOM     17  C   UNL     1       2.374   1.426  -0.129  0.00  0.00    +0.131 A 
ATOM     18  C   UNL     1       2.400   0.036  -0.110  0.00  0.00    +0.060 A 
ATOM     19  C   UNL     1       1.222  -0.677  -0.085  0.00  0.00    +0.026 A 
ATOM     20  C   UNL     1      -0.003  -0.000  -0.079  0.00  0.00    -0.024 A 
ATOM     21 BR   UNL     1       4.056  -0.877  -0.118  0.00  0.00    -0.047 Br
BRANCH  17  22
ATOM     22  O   UNL     1       3.538   2.125  -0.154  0.00  0.00    -0.506 OA
ATOM     23  H   UNL     1       3.886   2.340   0.722  0.00  0.00    +0.292 HD
ENDBRANCH  17  22
ENDBRANCH  13  20
ENDBRANCH   1  14
TORSDOF 4
