REMARK  Name = ZINC39578324
REMARK  7 active torsions:
REMARK  status: ('A' for Active; 'I' for Inactive)
REMARK    1  A    between atoms: C_1  and  C_2
REMARK    2  A    between atoms: C_2  and  C_4
REMARK    3  A    between atoms: C_2  and  S_16
REMARK    4  A    between atoms: N_6  and  C_7
REMARK    5  A    between atoms: S_16  and  C_17
REMARK    6  A    between atoms: C_20  and  C_23
REMARK    7  A    between atoms: N_21  and  N_22
REMARK                            x       y       z     vdW  Elec       q    Type
REMARK                         _______ _______ _______ _____ _____    ______ ____
ROOT
ATOM      1  C   UNL     1       1.863   1.695  -1.026  0.00  0.00    +0.029 C 
ATOM      2  C   UNL     1       0.790   1.101  -0.111  0.00  0.00    +0.137 C 
ENDROOT
BRANCH   2   3
ATOM      3  C   UNL     1       1.423   0.658   1.183  0.00  0.00    +0.230 C 
ATOM      4  O   UNL     1       1.343   1.359   2.169  0.00  0.00    -0.274 OA
ATOM      5  N   UNL     1       2.079  -0.519   1.244  0.00  0.00    -0.282 N 
ATOM      6  H   UNL     1       2.080  -1.113   0.477  0.00  0.00    +0.155 HD
BRANCH   5   7
ATOM      7  C   UNL     1       2.756  -0.883   2.414  0.00  0.00    +0.071 A 
ATOM      8  C   UNL     1       2.104  -1.617   3.397  0.00  0.00    +0.065 A 
ATOM      9  C   UNL     1       2.776  -1.975   4.551  0.00  0.00    +0.042 A 
ATOM     10  C   UNL     1       4.097  -1.604   4.727  0.00  0.00    +0.044 A 
ATOM     11  C   UNL     1       4.750  -0.873   3.750  0.00  0.00    +0.042 A 
ATOM     12  C   UNL     1       4.085  -0.516   2.592  0.00  0.00    +0.065 A 
ATOM     13 CL   UNL     1       4.906   0.395   1.364  0.00  0.00    -0.082 Cl
ATOM     14 CL   UNL     1       4.937  -2.055   6.178  0.00  0.00    -0.083 Cl
ATOM     15 CL   UNL     1       0.446  -2.083   3.177  0.00  0.00    -0.082 Cl
ENDBRANCH   5   7
ENDBRANCH   2   3
BRANCH   2  16
ATOM     16  S   UNL     1      -0.473   2.357   0.234  0.00  0.00    -0.072 S 
BRANCH  16  17
ATOM     17  C   UNL     1      -1.212   2.660  -1.336  0.00  0.00    +0.209 A 
ATOM     18  N   UNL     1      -0.896   2.083  -2.472  0.00  0.00    -0.121 NA
ATOM     19  N   UNL     1      -1.637   2.543  -3.417  0.00  0.00    -0.132 NA
ATOM     20  C   UNL     1      -2.462   3.433  -2.944  0.00  0.00    +0.154 A 
ATOM     21  N   UNL     1      -2.225   3.536  -1.601  0.00  0.00    -0.228 N 
BRANCH  20  22
ATOM     22  C   UNL     1      -3.492   4.203  -3.731  0.00  0.00    +0.059 C 
ATOM     23  C   UNL     1      -4.476   3.225  -4.376  0.00  0.00    +0.011 C 
ATOM     24  C   UNL     1      -5.522   4.007  -5.174  0.00  0.00    +0.001 C 
ATOM     25  C   UNL     1      -4.825   4.823  -6.265  0.00  0.00    +0.000 C 
ATOM     26  C   UNL     1      -3.840   5.800  -5.620  0.00  0.00    +0.001 C 
ATOM     27  C   UNL     1      -2.795   5.019  -4.821  0.00  0.00    +0.011 C 
ENDBRANCH  20  22
BRANCH  21  28
ATOM     28  N   UNL     1      -2.867   4.348  -0.710  0.00  0.00    -0.295 N 
ATOM     29  H   UNL     1      -2.407   5.244  -0.640  0.00  0.00    +0.163 HD
ATOM     30  H   UNL     1      -3.839   4.460  -0.958  0.00  0.00    +0.163 HD
ENDBRANCH  21  28
ENDBRANCH  16  17
ENDBRANCH   2  16
TORSDOF 6
