REMARK  Name = ZINC08622989
REMARK  12 active torsions:
REMARK  status: ('A' for Active; 'I' for Inactive)
REMARK    1  A    between atoms: C_1  and  C_2
REMARK    2  A    between atoms: C_2  and  C_3
REMARK    3  A    between atoms: C_3  and  C_4
REMARK    4  A    between atoms: C_3  and  C_6
REMARK    5  A    between atoms: C_4  and  C_5
REMARK    6  A    between atoms: C_8  and  C_18
REMARK    7  A    between atoms: C_10  and  C_12
REMARK    8  A    between atoms: C_26  and  C_28
REMARK    9  A    between atoms: C_28  and  N_29
REMARK   10  A    between atoms: C_30  and  C_32
REMARK   11  A    between atoms: C_32  and  O_33
REMARK   12  A    between atoms: O_33  and  C_34
REMARK                            x       y       z     vdW  Elec       q    Type
REMARK                         _______ _______ _______ _____ _____    ______ ____
ROOT
ATOM      1  C   UNL     1      -1.541  -1.168  -2.553  0.00  0.00    +0.024 C 
ATOM      2  C   UNL     1      -2.335  -0.707  -1.327  0.00  0.00    -0.068 C 
ATOM      3  C   UNL     1      -3.147   1.240  -2.516  0.00  0.00    -0.078 C 
ATOM      4  C   UNL     1      -2.376   0.836  -3.776  0.00  0.00    -0.015 C 
ATOM      5  C   UNL     1      -1.116   0.066  -3.360  0.00  0.00    -0.007 C 
ATOM      6  C   UNL     1      -0.265   0.970  -2.460  0.00  0.00    -0.010 C 
ATOM      7  C   UNL     1      -1.094   1.371  -1.236  0.00  0.00    -0.051 C 
ATOM      8  N   UNL     1      -2.442   0.767  -1.305  0.00  0.00    +0.383 N 
ATOM      9  H   UNL     1      -2.977   1.050  -0.476  0.00  0.00    -0.081 HD
ENDROOT
BRANCH   1  12
ATOM     10  C   UNL     1       0.778  -3.433  -0.619  0.00  0.00    +0.048 A 
ATOM     11  C   UNL     1      -0.370  -2.750  -0.993  0.00  0.00    +0.047 A 
ATOM     12  C   UNL     1      -0.318  -1.925  -2.106  0.00  0.00    +0.047 A 
ATOM     13  N   UNL     1       0.821  -1.807  -2.768  0.00  0.00    -0.232 NA
ATOM     14  C   UNL     1       1.902  -2.470  -2.381  0.00  0.00    +0.160 A 
ATOM     15  N   UNL     1       1.884  -3.270  -1.324  0.00  0.00    -0.232 NA
BRANCH  14  16
ATOM     16  C   UNL     1       3.162  -2.311  -3.148  0.00  0.00    +0.022 A 
ATOM     17  C   UNL     1       3.220  -1.480  -4.270  0.00  0.00    +0.031 A 
ATOM     18  C   UNL     1       4.414  -1.358  -4.952  0.00  0.00    +0.111 A 
ATOM     19  N   UNL     1       5.486  -2.019  -4.563  0.00  0.00    -0.263 NA
ATOM     20  C   UNL     1       5.473  -2.817  -3.513  0.00  0.00    +0.111 A 
ATOM     21  C   UNL     1       4.322  -2.993  -2.771  0.00  0.00    +0.031 A 
ENDBRANCH  14  16
BRANCH  10  22
ATOM     22  C   UNL     1       0.766  -4.345   0.581  0.00  0.00    +0.037 C 
BRANCH  22  24
ATOM     23  C   UNL     1       1.122  -4.458   3.052  0.00  0.00    +0.004 C 
ATOM     24  C   UNL     1       0.986  -3.520   1.851  0.00  0.00    +0.006 C 
ENDBRANCH  22  24
BRANCH  22  25
ATOM     25  C   UNL     1      -0.584  -5.060   0.665  0.00  0.00    +0.006 C 
ATOM     26  C   UNL     1      -0.752  -5.976  -0.550  0.00  0.00    +0.004 C 
ENDBRANCH  22  25
ENDBRANCH  10  22
ENDBRANCH   1  12
BRANCH   7  27
ATOM     27  C   UNL     1      -0.396   0.884   0.035  0.00  0.00    +0.089 C 
BRANCH  27  28
ATOM     28  N   UNL     1      -1.240   1.174   1.197  0.00  0.00    -0.314 N 
ATOM     29  C   UNL     1      -0.784   0.922   2.440  0.00  0.00    +0.251 C 
ATOM     30  O   UNL     1       0.356   0.541   2.603  0.00  0.00    -0.272 OA
ATOM     31  H   UNL     1      -2.126   1.547   1.072  0.00  0.00    +0.149 HD
BRANCH  29  32
ATOM     32  C   UNL     1      -1.692   1.113   3.628  0.00  0.00    +0.324 C 
BRANCH  32  33
ATOM     33  O   UNL     1      -0.985   0.784   4.826  0.00  0.00    -0.483 OA
BRANCH  33  34
ATOM     34  C   UNL     1      -1.664   0.903   5.996  0.00  0.00    +0.121 A 
ATOM     35  C   UNL     1      -2.983   1.334   5.993  0.00  0.00    +0.045 A 
ATOM     36  C   UNL     1      -3.674   1.450   7.184  0.00  0.00    +0.004 A 
ATOM     37  C   UNL     1      -3.048   1.147   8.379  0.00  0.00    +0.000 A 
ATOM     38  C   UNL     1      -1.732   0.722   8.386  0.00  0.00    +0.004 A 
ATOM     39  C   UNL     1      -1.039   0.600   7.197  0.00  0.00    +0.045 A 
ENDBRANCH  33  34
ENDBRANCH  32  33
ENDBRANCH  29  32
ENDBRANCH  27  28
ENDBRANCH   7  27
TORSDOF 10
