REMARK  Name = ZINC24021549
REMARK  7 active torsions:
REMARK  status: ('A' for Active; 'I' for Inactive)
REMARK    1  A    between atoms: C_1  and  C_2
REMARK    2  A    between atoms: C_4  and  C_31
REMARK    3  A    between atoms: C_12  and  C_14
REMARK    4  A    between atoms: C_14  and  N_15
REMARK    5  A    between atoms: C_20  and  C_27
REMARK    6  A    between atoms: C_23  and  C_25
REMARK    7  A    between atoms: C_23  and  C_26
REMARK                            x       y       z     vdW  Elec       q    Type
REMARK                         _______ _______ _______ _____ _____    ______ ____
ROOT
ATOM      1  C   UNL     1       3.573   0.984  -0.155  0.00  0.00    +0.214 C 
ENDROOT
BRANCH   1   2
ATOM      2  N   UNL     1       2.115   0.850  -0.121  0.00  0.00    -0.215 N 
ATOM      3  C   UNL     1       1.458  -0.325  -0.232  0.00  0.00    +0.247 C 
ATOM      4  O   UNL     1       1.956  -1.400  -0.491  0.00  0.00    -0.273 OA
ATOM      5  C   UNL     1       0.002  -0.004   0.002  0.00  0.00    +0.113 C 
ATOM      6  C   UNL     1      -0.853  -0.496  -1.157  0.00  0.00    +0.038 C 
ATOM      7  C   UNL     1      -0.983  -2.019  -1.102  0.00  0.00    -0.011 C 
ATOM      8  C   UNL     1      -1.684  -2.405   0.198  0.00  0.00    +0.009 C 
ATOM      9  C   UNL     1      -0.869  -1.966   1.409  0.00  0.00    -0.032 C 
ATOM     10  C   UNL     1      -0.482  -0.498   1.350  0.00  0.00    +0.041 C 
ATOM     11  C   UNL     1      -1.741  -2.180   2.665  0.00  0.00    +0.011 C 
ATOM     12  C   UNL     1       0.372  -2.850   1.556  0.00  0.00    +0.011 C 
ATOM     13  C   UNL     1      -1.820  -2.498  -2.293  0.00  0.00    +0.007 C 
ATOM     14  N   UNL     1      -0.018   1.477   0.010  0.00  0.00    -0.285 N 
ATOM     15  C   UNL     1       1.265   1.875   0.000  0.00  0.00    +0.310 C 
ATOM     16  O   UNL     1       1.616   3.036   0.091  0.00  0.00    -0.252 OA
ATOM     17  H   UNL     1      -0.978   2.014   0.022  0.00  0.00    +0.151 HD
ENDBRANCH   1   2
BRANCH   1  29
ATOM     18  C   UNL     1       7.583   2.393  -9.213  0.00  0.00    +0.044 C 
ATOM     19  C   UNL     1       7.453   2.209  -7.723  0.00  0.00    -0.049 A 
ATOM     20  C   UNL     1       8.580   2.217  -6.915  0.00  0.00    +0.009 A 
ATOM     21  C   UNL     1       8.489   2.051  -5.557  0.00  0.00    -0.024 A 
ATOM     22  C   UNL     1       7.233   1.867  -4.934  0.00  0.00    +0.083 A 
ATOM     23  C   UNL     1       6.107   1.865  -5.789  0.00  0.00    +0.041 A 
ATOM     24  C   UNL     1       6.208   2.032  -7.148  0.00  0.00    +0.020 A 
ATOM     25  S   UNL     1       4.768   1.613  -4.649  0.00  0.00    -0.052 S 
ATOM     26  C   UNL     1       5.753   1.528  -3.160  0.00  0.00    +0.165 A 
ATOM     27  N   UNL     1       6.971   1.696  -3.621  0.00  0.00    -0.224 NA
ATOM     28  N   UNL     1       5.337   1.339  -1.853  0.00  0.00    -0.263 N 
ATOM     29  C   UNL     1       4.026   1.190  -1.578  0.00  0.00    +0.237 C 
ATOM     30  O   UNL     1       3.211   1.221  -2.475  0.00  0.00    -0.274 OA
ATOM     31  C   UNL     1       9.742   2.066  -4.719  0.00  0.00    +0.046 C 
ATOM     32  H   UNL     1       6.076   1.311  -1.039  0.00  0.00    +0.157 HD
ENDBRANCH   1  29
TORSDOF 2
