REMARK  Name = ZINC04489263
REMARK  13 active torsions:
REMARK  status: ('A' for Active; 'I' for Inactive)
REMARK    1  A    between atoms: C_1  and  C_2
REMARK    2  A    between atoms: C_2  and  C_3
REMARK    3  A    between atoms: N_7  and  C_16
REMARK    4  A    between atoms: C_10  and  C_15
REMARK    5  A    between atoms: C_16  and  C_17
REMARK    6  A    between atoms: N_19  and  C_20
REMARK    7  A    between atoms: N_19  and  C_27
REMARK    8  A    between atoms: C_20  and  C_21
REMARK    9  A    between atoms: C_24  and  C_26
REMARK   10  A    between atoms: C_29  and  C_35
REMARK   11  A    between atoms: C_29  and  C_36
REMARK   12  A    between atoms: C_31  and  C_33
REMARK   13  A    between atoms: C_31  and  C_34
REMARK                            x       y       z     vdW  Elec       q    Type
REMARK                         _______ _______ _______ _____ _____    ______ ____
ROOT
ATOM      1  C   UNL     1       0.296  -4.632   0.572  0.00  0.00    +0.234 C 
ATOM      2  O   UNL     1      -0.878  -4.332   0.632  0.00  0.00    -0.274 OA
ATOM      3  N   UNL     1       0.655  -5.926   0.454  0.00  0.00    -0.290 N 
ENDROOT
BRANCH   3   4
ATOM      4  C   UNL     1      -0.373  -6.961   0.284  0.00  0.00    +0.074 C 
ATOM      5  C   UNL     1      -1.220  -6.630  -0.947  0.00  0.00    +0.009 C 
ATOM      6  C   UNL     1      -2.303  -7.692  -1.130  0.00  0.00    -0.072 C 
ATOM      7  N   UNL     1      -3.107  -7.869   0.070  0.00  0.00    +0.386 N 
ATOM      8  C   UNL     1      -2.408  -7.989   1.339  0.00  0.00    -0.072 C 
ATOM      9  C   UNL     1      -1.288  -6.968   1.508  0.00  0.00    +0.009 C 
ATOM     10  C   UNL     1      -1.864  -9.403   1.555  0.00  0.00    -0.010 C 
ATOM     11  C   UNL     1      -3.439  -7.726   2.463  0.00  0.00    -0.010 C 
ATOM     12  C   UNL     1      -3.243  -7.199  -2.254  0.00  0.00    -0.010 C 
ATOM     13  C   UNL     1      -1.681  -9.005  -1.604  0.00  0.00    -0.010 C 
ATOM     14  H   UNL     1      -3.761  -7.085   0.135  0.00  0.00    -0.084 HD
ATOM     15  H   UNL     1      -3.693  -8.698  -0.055  0.00  0.00    -0.084 HD
ENDBRANCH   3   4
BRANCH   1  16
ATOM     16  C   UNL     1       1.352  -3.559   0.630  0.00  0.00    +0.209 C 
BRANCH  16  20
ATOM     17  C   UNL     1      -0.404  -0.367   1.807  0.00  0.00    +0.259 C 
ATOM     18  C   UNL     1       0.376  -1.657   1.812  0.00  0.00    +0.261 C 
ATOM     19  O   UNL     1       0.702  -2.167   2.864  0.00  0.00    -0.271 OA
ATOM     20  N   UNL     1       0.711  -2.242   0.643  0.00  0.00    -0.256 N 
ATOM     21  C   UNL     1       0.437  -1.575  -0.558  0.00  0.00    +0.079 A 
ATOM     22  C   UNL     1       0.554  -2.233  -1.772  0.00  0.00    +0.030 A 
ATOM     23  C   UNL     1       0.267  -1.565  -2.948  0.00  0.00    -0.048 A 
ATOM     24  C   UNL     1      -0.136  -0.242  -2.915  0.00  0.00    +0.007 A 
ATOM     25  C   UNL     1      -0.250   0.421  -1.708  0.00  0.00    +0.048 A 
ATOM     26  C   UNL     1       0.041  -0.240  -0.527  0.00  0.00    +0.143 A 
ATOM     27  O   UNL     1      -0.038   0.411   0.664  0.00  0.00    -0.478 OA
ATOM     28  C   UNL     1       0.396  -2.279  -4.269  0.00  0.00    +0.044 C 
BRANCH  17  30
ATOM     29  C   UNL     1      -2.696   0.624   1.874  0.00  0.00    +0.008 C 
ATOM     30  C   UNL     1      -1.901  -0.677   1.753  0.00  0.00    +0.051 C 
ENDBRANCH  17  30
ENDBRANCH  16  20
ENDBRANCH   1  16
BRANCH   3  31
ATOM     31  C   UNL     1       2.071  -6.300   0.494  0.00  0.00    +0.182 C 
BRANCH  31  32
ATOM     32  C   UNL     1       2.476  -6.580   1.919  0.00  0.00    +0.122 A 
ATOM     33  C   UNL     1       2.419  -7.775   2.532  0.00  0.00    +0.046 A 
ATOM     34  C   UNL     1       2.891  -7.582   3.851  0.00  0.00    +0.045 A 
ATOM     35  C   UNL     1       3.208  -6.280   3.964  0.00  0.00    +0.102 A 
ATOM     36  O   UNL     1       2.960  -5.678   2.789  0.00  0.00    -0.463 OA
ATOM     37  C   UNL     1       3.755  -5.610   5.199  0.00  0.00    +0.086 C 
ENDBRANCH  31  32
ENDBRANCH   3  31
TORSDOF 6
