REMARK  Name = ZINC09243595
REMARK  10 active torsions:
REMARK  status: ('A' for Active; 'I' for Inactive)
REMARK    1  A    between atoms: C_1  and  C_2
REMARK    2  A    between atoms: C_2  and  O_3
REMARK    3  A    between atoms: O_3  and  C_4
REMARK    4  A    between atoms: C_6  and  C_11
REMARK    5  A    between atoms: C_9  and  O_10
REMARK    6  A    between atoms: C_14  and  C_29
REMARK    7  A    between atoms: N_21  and  C_22
REMARK    8  A    between atoms: C_22  and  C_23
REMARK    9  A    between atoms: C_32  and  C_36
REMARK   10  A    between atoms: C_34  and  O_35
REMARK                            x       y       z     vdW  Elec       q    Type
REMARK                         _______ _______ _______ _____ _____    ______ ____
ROOT
ATOM      1  C   UNL     1      -0.392  -4.895   0.366  0.00  0.00    +0.142 C 
ATOM      2  C   UNL     1      -1.591  -5.631  -0.166  0.00  0.00    +0.035 A 
ATOM      3  C   UNL     1      -2.884  -5.552  -0.694  0.00  0.00    +0.102 A 
ATOM      4  N   UNL     1      -3.291  -6.785  -0.925  0.00  0.00    -0.173 NA
ATOM      5  N   UNL     1      -2.384  -7.633  -0.595  0.00  0.00    -0.272 N 
ATOM      6  H   UNL     1      -2.465  -8.597  -0.678  0.00  0.00    +0.189 HD
ATOM      7  C   UNL     1      -1.288  -6.978  -0.111  0.00  0.00    +0.126 A 
ATOM      8  C   UNL     1       0.065  -7.129   0.438  0.00  0.00    +0.266 C 
ATOM      9  O   UNL     1       0.627  -8.193   0.614  0.00  0.00    -0.268 OA
ATOM     10  N   UNL     1       0.595  -5.924   0.719  0.00  0.00    -0.281 N 
ENDROOT
BRANCH   3  11
ATOM     11  C   UNL     1      -3.656  -4.311  -0.946  0.00  0.00    +0.045 A 
ATOM     12  C   UNL     1      -3.153  -3.079  -0.536  0.00  0.00    +0.034 A 
ATOM     13  C   UNL     1      -3.875  -1.925  -0.774  0.00  0.00    +0.045 A 
ATOM     14  C   UNL     1      -5.099  -1.990  -1.418  0.00  0.00    -0.029 A 
ATOM     15  C   UNL     1      -5.607  -3.208  -1.828  0.00  0.00    +0.050 A 
ATOM     16  C   UNL     1      -4.889  -4.372  -1.601  0.00  0.00    +0.126 A 
ATOM     17  C   UNL     1      -5.881  -0.727  -1.673  0.00  0.00    +0.045 C 
ATOM     18 CL   UNL     1      -3.247  -0.390  -0.262  0.00  0.00    -0.083 Cl
BRANCH  16  19
ATOM     19  O   UNL     1      -5.385  -5.569  -2.010  0.00  0.00    -0.506 OA
ATOM     20  H   UNL     1      -5.937  -6.011  -1.351  0.00  0.00    +0.292 HD
ENDBRANCH  16  19
ENDBRANCH   3  11
BRANCH   1  23
ATOM     21  C   UNL     1       1.295  -3.679  -2.789  0.00  0.00    +0.162 A 
ATOM     22  C   UNL     1       0.779  -4.517  -1.813  0.00  0.00    +0.055 A 
ATOM     23  C   UNL     1       0.169  -3.982  -0.695  0.00  0.00    -0.019 A 
ATOM     24  C   UNL     1       0.070  -2.611  -0.546  0.00  0.00    +0.009 A 
ATOM     25  C   UNL     1       0.582  -1.769  -1.516  0.00  0.00    +0.049 A 
ATOM     26  C   UNL     1       1.201  -2.299  -2.637  0.00  0.00    +0.158 A 
BRANCH  26  27
ATOM     27  O   UNL     1       1.710  -1.472  -3.589  0.00  0.00    -0.503 OA
ATOM     28  H   UNL     1       1.081  -1.240  -4.285  0.00  0.00    +0.292 HD
ENDBRANCH  26  27
BRANCH  21  29
ATOM     29  O   UNL     1       1.897  -4.204  -3.890  0.00  0.00    -0.489 OA
BRANCH  29  31
ATOM     30  C   UNL     1       2.547  -6.024  -5.340  0.00  0.00    +0.048 C 
ATOM     31  C   UNL     1       1.886  -5.627  -4.018  0.00  0.00    +0.226 C 
ENDBRANCH  29  31
ENDBRANCH  21  29
ENDBRANCH   1  23
BRANCH  10  32
ATOM     32  C   UNL     1       1.926  -5.680   1.280  0.00  0.00    +0.145 C 
BRANCH  32  33
ATOM     33  C   UNL     1       1.842  -5.663   2.784  0.00  0.00    -0.012 A 
ATOM     34  C   UNL     1       1.592  -4.479   3.461  0.00  0.00    +0.008 A 
ATOM     35  C   UNL     1       1.523  -4.511   4.845  0.00  0.00    +0.020 A 
ATOM     36  C   UNL     1       1.705  -5.715   5.500  0.00  0.00    +0.111 A 
ATOM     37  N   UNL     1       1.942  -6.822   4.824  0.00  0.00    -0.263 NA
ATOM     38  C   UNL     1       2.008  -6.829   3.507  0.00  0.00    +0.115 A 
ENDBRANCH  32  33
ENDBRANCH  10  32
TORSDOF 8
