REMARK  Name = ZINC66097337
REMARK  3 active torsions:
REMARK  status: ('A' for Active; 'I' for Inactive)
REMARK    1  A    between atoms: C_2  and  C_9
REMARK    2  A    between atoms: C_16  and  C_18
REMARK    3  A    between atoms: C_18  and  C_19
REMARK                            x       y       z     vdW  Elec       q    Type
REMARK                         _______ _______ _______ _____ _____    ______ ____
ROOT
ATOM      1  C   UNL     1       1.170   3.568   0.010  0.00  0.00    +0.068 A 
ATOM      2  C   UNL     1       2.263   4.386  -0.002  0.00  0.00    +0.073 A 
ATOM      3  C   UNL     1       1.807   5.710   0.011  0.00  0.00    +0.147 A 
ATOM      4  N   UNL     1       0.494   5.697   0.030  0.00  0.00    -0.158 NA
ATOM      5  N   UNL     1       0.064   4.364   0.023  0.00  0.00    -0.275 N 
ATOM      6  H   UNL     1      -0.858   4.062   0.030  0.00  0.00    +0.189 HD
ATOM      7  N   UNL     1       2.615   6.855   0.006  0.00  0.00    -0.269 N 
ATOM      8  C   UNL     1       3.957   6.733  -0.013  0.00  0.00    +0.219 C 
ATOM      9  O   UNL     1       4.465   5.632  -0.026  0.00  0.00    -0.275 OA
ATOM     10  H   UNL     1       2.208   7.736   0.016  0.00  0.00    +0.156 HD
ENDROOT
BRANCH   1  12
ATOM     11  C   UNL     1      -0.017   1.377   0.010  0.00  0.00    +0.030 A 
ATOM     12  C   UNL     1       1.183   2.088   0.002  0.00  0.00    +0.003 A 
ATOM     13  C   UNL     1       2.396   1.399  -0.013  0.00  0.00    +0.030 A 
ATOM     14  C   UNL     1       2.403   0.018  -0.021  0.00  0.00    +0.043 A 
ATOM     15  C   UNL     1       1.209  -0.682  -0.013  0.00  0.00    +0.040 A 
ATOM     16  C   UNL     1       0.002  -0.004   0.002  0.00  0.00    +0.043 A 
ATOM     17 CL   UNL     1      -1.490  -0.891   0.012  0.00  0.00    -0.083 Cl
ATOM     18 CL   UNL     1       3.911  -0.841  -0.040  0.00  0.00    -0.083 Cl
ENDBRANCH   1  12
BRANCH   8  19
ATOM     19  C   UNL     1       4.826   7.964  -0.019  0.00  0.00    +0.101 C 
BRANCH  19  20
ATOM     20  C   UNL     1       6.298   7.549  -0.041  0.00  0.00    +0.020 C 
ATOM     21  C   UNL     1       6.659   6.843   1.276  0.00  0.00    +0.028 C 
ATOM     22  C   UNL     1       8.196   6.708   1.399  0.00  0.00    +0.166 C 
ATOM     23  S   UNL     1       8.806   8.145   0.426  0.00  0.00    -0.031 S 
ATOM     24  O   UNL     1       9.553   7.667  -0.684  0.00  0.00    -0.174 OA
ATOM     25  O   UNL     1       9.396   9.086   1.312  0.00  0.00    -0.174 OA
ATOM     26  C   UNL     1       7.198   8.811  -0.175  0.00  0.00    +0.170 C 
ENDBRANCH  19  20
ENDBRANCH   8  19
TORSDOF 3
