REMARK  Name = ZINC39685974
REMARK  6 active torsions:
REMARK  status: ('A' for Active; 'I' for Inactive)
REMARK    1  A    between atoms: C_1  and  C_2
REMARK    2  A    between atoms: C_2  and  C_3
REMARK    3  A    between atoms: C_2  and  C_4
REMARK    4  A    between atoms: C_9  and  N_12
REMARK    5  A    between atoms: C_13  and  C_15
REMARK    6  A    between atoms: C_26  and  C_28
REMARK                            x       y       z     vdW  Elec       q    Type
REMARK                         _______ _______ _______ _____ _____    ______ ____
ROOT
ATOM      1  C   UNL     1      -7.228   2.744  -2.453  0.00  0.00    +0.100 C 
ATOM      2  C   UNL     1      -7.677   3.603  -1.249  0.00  0.00    +0.121 C 
ATOM      3  N   UNL     1      -9.112   3.876  -1.499  0.00  0.00    -0.296 N 
ATOM      4  C   UNL     1      -9.639   2.604  -2.049  0.00  0.00    +0.115 C 
ATOM      5  C   UNL     1      -8.518   2.090  -2.974  0.00  0.00    -0.004 C 
ATOM      6  C   UNL     1      -8.414   0.570  -2.882  0.00  0.00    -0.010 C 
ATOM      7  C   UNL     1      -9.684  -0.060  -3.461  0.00  0.00    -0.082 C 
ATOM      8  N   UNL     1      -9.846   0.356  -4.859  0.00  0.00    +0.379 N 
ATOM      9  C   UNL     1     -10.039   1.809  -4.930  0.00  0.00    -0.082 C 
ATOM     10  C   UNL     1      -8.783   2.518  -4.414  0.00  0.00    -0.010 C 
ATOM     11  C   UNL     1      -9.786   5.021  -1.276  0.00  0.00    +0.247 C 
ATOM     12  O   UNL     1      -9.187   6.022  -0.935  0.00  0.00    -0.270 OA
ATOM     13  H   UNL     1      -9.021   0.101  -5.382  0.00  0.00    -0.086 HD
ATOM     14  H   UNL     1     -10.649  -0.108  -5.256  0.00  0.00    -0.086 HD
ENDROOT
BRANCH  11  15
ATOM     15  C   UNL     1     -11.254   5.061  -1.448  0.00  0.00    +0.042 A 
ATOM     16  C   UNL     1     -11.995   3.879  -1.413  0.00  0.00    +0.051 A 
ATOM     17  C   UNL     1     -13.367   3.921  -1.574  0.00  0.00    +0.127 A 
ATOM     18  C   UNL     1     -14.007   5.135  -1.770  0.00  0.00    +0.076 A 
ATOM     19  C   UNL     1     -13.276   6.311  -1.806  0.00  0.00    +0.127 A 
ATOM     20  C   UNL     1     -11.904   6.280  -1.640  0.00  0.00    +0.051 A 
ATOM     21  F   UNL     1     -13.906   7.490  -1.997  0.00  0.00    -0.205 F 
ATOM     22  F   UNL     1     -14.086   2.778  -1.540  0.00  0.00    -0.205 F 
ENDBRANCH  11  15
BRANCH   1  24
ATOM     23  N   UNL     1      -5.298   1.251  -2.859  0.00  0.00    -0.312 N 
ATOM     24  C   UNL     1      -6.247   1.690  -2.008  0.00  0.00    +0.218 C 
ATOM     25  O   UNL     1      -6.312   1.237  -0.885  0.00  0.00    -0.275 OA
ATOM     26  H   UNL     1      -5.246   1.613  -3.757  0.00  0.00    +0.149 HD
BRANCH  23  32
ATOM     27  C   UNL     1      -0.499  -1.199  -2.655  0.00  0.00    +0.218 C 
ATOM     28  O   UNL     1       0.358  -0.752  -1.922  0.00  0.00    -0.275 OA
ATOM     29  N   UNL     1      -1.801  -1.009  -2.365  0.00  0.00    -0.301 N 
ATOM     30  C   UNL     1      -2.849  -1.623  -3.191  0.00  0.00    +0.109 C 
ATOM     31  C   UNL     1      -3.820  -0.530  -3.649  0.00  0.00    +0.041 C 
ATOM     32  C   UNL     1      -4.345   0.226  -2.426  0.00  0.00    +0.076 C 
ATOM     33  C   UNL     1      -3.176   0.892  -1.696  0.00  0.00    +0.041 C 
ATOM     34  C   UNL     1      -2.199  -0.190  -1.212  0.00  0.00    +0.109 C 
BRANCH  27  36
ATOM     35  C   UNL     1      -0.154  -1.035  -5.106  0.00  0.00    +0.017 C 
ATOM     36  C   UNL     1      -0.107  -1.966  -3.892  0.00  0.00    +0.069 C 
ATOM     37  C   UNL     1       1.312  -2.513  -3.724  0.00  0.00    +0.017 C 
ENDBRANCH  27  36
ENDBRANCH  23  32
ENDBRANCH   1  24
TORSDOF 4
