REMARK  Name = ZINC12317266
REMARK  4 active torsions:
REMARK  status: ('A' for Active; 'I' for Inactive)
REMARK    1  A    between atoms: C_1  and  N_2
REMARK    2  A    between atoms: C_10  and  C_11
REMARK    3  A    between atoms: C_25  and  C_26
REMARK    4  A    between atoms: C_25  and  N_56
REMARK                            x       y       z     vdW  Elec       q    Type
REMARK                         _______ _______ _______ _____ _____    ______ ____
ROOT
ATOM      1  C   UNL     1      -4.879   2.438   0.036  0.00  0.00    +0.048 C 
ATOM      2  C   UNL     1      -3.367   2.431   0.032  0.00  0.00    +0.014 A 
ATOM      3  C   UNL     1      -2.629   3.560   0.047  0.00  0.00    -0.022 A 
ATOM      4  C   UNL     1      -1.227   3.165   0.030  0.00  0.00    +0.003 A 
ATOM      5  C   UNL     1      -0.015   3.860   0.022  0.00  0.00    +0.010 A 
ATOM      6  C   UNL     1       1.164   3.170   0.007  0.00  0.00    +0.001 A 
ATOM      7  C   UNL     1       1.170   1.782   0.001  0.00  0.00    +0.002 A 
ATOM      8  C   UNL     1      -0.013   1.076   0.008  0.00  0.00    +0.026 A 
ATOM      9  C   UNL     1      -1.226   1.756   0.017  0.00  0.00    +0.047 A 
ATOM     10  N   UNL     1      -2.542   1.345   0.021  0.00  0.00    -0.359 N 
ATOM     11  H   UNL     1      -2.837   0.421   0.018  0.00  0.00    +0.166 HD
ATOM     12  C   UNL     1      -3.219   4.947   0.050  0.00  0.00    +0.019 C 
ATOM     13  C   UNL     1      -4.696   4.827   0.452  0.00  0.00    -0.072 C 
ATOM     14  N   UNL     1      -5.332   3.785  -0.387  0.00  0.00    +0.394 N 
ATOM     15  H   UNL     1      -5.060   3.935  -1.365  0.00  0.00    -0.080 HD
ENDROOT
BRANCH   1  25
ATOM     16  C   UNL     1      -6.110  -0.308   0.747  0.00  0.00    +0.150 C 
ATOM     17  N   UNL     1      -5.932   0.215  -0.610  0.00  0.00    -0.332 N 
ATOM     18  C   UNL     1      -6.281  -0.422  -1.784  0.00  0.00    +0.069 A 
ATOM     19  C   UNL     1      -6.859  -1.647  -2.085  0.00  0.00    +0.028 A 
ATOM     20  C   UNL     1      -7.081  -1.994  -3.400  0.00  0.00    +0.002 A 
ATOM     21  C   UNL     1      -6.729  -1.126  -4.425  0.00  0.00    +0.002 A 
ATOM     22  C   UNL     1      -6.159   0.084  -4.148  0.00  0.00    +0.030 A 
ATOM     23  C   UNL     1      -5.925   0.457  -2.821  0.00  0.00    +0.089 A 
ATOM     24  N   UNL     1      -5.394   1.562  -2.239  0.00  0.00    -0.234 NA
ATOM     25  C   UNL     1      -5.394   1.418  -0.946  0.00  0.00    +0.103 A 
ENDBRANCH   1  25
BRANCH  14  26
ATOM     26  C   UNL     1      -6.802   3.879  -0.277  0.00  0.00    -0.013 C 
BRANCH  26  27
ATOM     27  C   UNL     1      -7.253   5.169  -0.913  0.00  0.00    +0.063 A 
ATOM     28  N   UNL     1      -7.570   5.389  -2.157  0.00  0.00    -0.246 NA
ATOM     29  C   UNL     1      -7.966   6.600  -2.601  0.00  0.00    +0.078 A 
ATOM     30  C   UNL     1      -8.342   6.991  -3.905  0.00  0.00    +0.029 A 
ATOM     31  C   UNL     1      -8.711   8.274  -4.166  0.00  0.00    +0.002 A 
ATOM     32  C   UNL     1      -8.732   9.243  -3.172  0.00  0.00    +0.001 A 
ATOM     33  C   UNL     1      -8.369   8.900  -1.883  0.00  0.00    +0.017 A 
ATOM     34  C   UNL     1      -7.996   7.607  -1.609  0.00  0.00    +0.039 A 
ATOM     35  S   UNL     1      -7.469   6.721  -0.164  0.00  0.00    -0.074 S 
ENDBRANCH  26  27
ENDBRANCH  14  26
TORSDOF 3
