REMARK  Name = ZINC00639114
REMARK  6 active torsions:
REMARK  status: ('A' for Active; 'I' for Inactive)
REMARK    1  A    between atoms: C_1  and  C_2
REMARK    2  A    between atoms: C_2  and  C_3
REMARK    3  A    between atoms: C_9  and  C_10
REMARK    4  A    between atoms: C_9  and  N_55
REMARK    5  A    between atoms: C_11  and  O_31
REMARK    6  A    between atoms: C_19  and  C_21
REMARK                            x       y       z     vdW  Elec       q    Type
REMARK                         _______ _______ _______ _____ _____    ______ ____
ROOT
ATOM      1  C   UNL     1      -1.343   5.005   0.176  0.00  0.00    +0.020 A 
ATOM      2  C   UNL     1      -0.237   5.621   0.738  0.00  0.00    +0.122 A 
ATOM      3  C   UNL     1      -0.187   7.009   0.862  0.00  0.00    +0.046 A 
ATOM      4  C   UNL     1      -1.232   7.777   0.442  0.00  0.00    +0.015 A 
ATOM      5  C   UNL     1      -2.364   7.170  -0.126  0.00  0.00    +0.019 A 
ATOM      6  C   UNL     1      -2.416   5.770  -0.258  0.00  0.00    +0.144 A 
ATOM      7  O   UNL     1      -3.496   5.166  -0.800  0.00  0.00    -0.421 OA
ATOM      8  C   UNL     1      -4.552   5.876  -1.231  0.00  0.00    +0.348 A 
ATOM      9  O   UNL     1      -5.511   5.304  -1.715  0.00  0.00    -0.244 OA
ATOM     10  C   UNL     1      -4.552   7.338  -1.119  0.00  0.00    +0.102 A 
ATOM     11  C   UNL     1      -3.451   7.965  -0.565  0.00  0.00    +0.030 A 
ENDROOT
BRANCH  10  12
ATOM     12  C   UNL     1      -5.707   8.126  -1.589  0.00  0.00    +0.146 A 
ATOM     13  N   UNL     1      -6.842   7.604  -2.151  0.00  0.00    -0.338 N 
ATOM     14  H   UNL     1      -7.032   6.635  -2.313  0.00  0.00    +0.167 HD
ATOM     15  C   UNL     1      -7.674   8.665  -2.452  0.00  0.00    +0.066 A 
ATOM     16  C   UNL     1      -8.935   8.768  -3.023  0.00  0.00    +0.028 A 
ATOM     17  C   UNL     1      -9.509  10.011  -3.192  0.00  0.00    +0.002 A 
ATOM     18  C   UNL     1      -8.836  11.157  -2.795  0.00  0.00    +0.002 A 
ATOM     19  C   UNL     1      -7.595  11.076  -2.230  0.00  0.00    +0.030 A 
ATOM     20  C   UNL     1      -6.992   9.827  -2.049  0.00  0.00    +0.089 A 
ATOM     21  N   UNL     1      -5.804   9.433  -1.527  0.00  0.00    -0.228 NA
ENDBRANCH  10  12
BRANCH   2  22
ATOM     22  O   UNL     1       0.808   4.869   1.167  0.00  0.00    -0.506 OA
ATOM     23  H   UNL     1       1.483   4.713   0.492  0.00  0.00    +0.292 HD
ENDBRANCH   2  22
BRANCH   1  24
ATOM     24  C   UNL     1      -1.383   3.505   0.041  0.00  0.00    -0.035 C 
BRANCH  24  30
ATOM     25  C   UNL     1      -0.706   1.654  -1.366  0.00  0.00    -0.068 C 
ATOM     26  C   UNL     1       0.016   1.291  -2.665  0.00  0.00    -0.015 C 
ATOM     27  C   UNL     1      -0.770   1.851  -3.854  0.00  0.00    -0.003 C 
ATOM     28  C   UNL     1      -0.914   3.367  -3.693  0.00  0.00    -0.019 C 
ATOM     29  C   UNL     1      -1.610   3.669  -2.364  0.00  0.00    -0.078 C 
ATOM     30  N   UNL     1      -0.791   3.126  -1.259  0.00  0.00    +0.384 N 
ATOM     31  H   UNL     1       0.155   3.520  -1.322  0.00  0.00    -0.081 HD
BRANCH  25  33
ATOM     32  C   UNL     1       0.146  -0.413  -0.251  0.00  0.00    +0.002 C 
ATOM     33  C   UNL     1       0.087   1.114  -0.174  0.00  0.00    -0.019 C 
ENDBRANCH  25  33
ENDBRANCH  24  30
ENDBRANCH   1  24
TORSDOF 5
