REMARK  Name = ZINC08308936
REMARK  8 active torsions:
REMARK  status: ('A' for Active; 'I' for Inactive)
REMARK    1  A    between atoms: C_1  and  C_2
REMARK    2  A    between atoms: C_5  and  N_9
REMARK    3  A    between atoms: C_6  and  C_8
REMARK    4  A    between atoms: N_9  and  C_10
REMARK    5  A    between atoms: C_10  and  C_11
REMARK    6  A    between atoms: N_13  and  N_14
REMARK    7  A    between atoms: C_15  and  C_17
REMARK    8  A    between atoms: C_17  and  C_18
REMARK                            x       y       z     vdW  Elec       q    Type
REMARK                         _______ _______ _______ _____ _____    ______ ____
ROOT
ATOM      1  C   UNL     1       0.082  -6.376  -1.026  0.00  0.00    +0.246 C 
ATOM      2  O   UNL     1       0.093  -6.786   0.115  0.00  0.00    -0.273 OA
ATOM      3  N   UNL     1       0.089  -7.246  -2.056  0.00  0.00    -0.233 N 
ATOM      4  H   UNL     1       0.080  -6.918  -2.968  0.00  0.00    +0.173 HD
ENDROOT
BRANCH   3   5
ATOM      5  N   UNL     1       0.108  -8.625  -1.807  0.00  0.00    -0.234 N 
ATOM      6  C   UNL     1       0.115  -9.495  -2.836  0.00  0.00    +0.233 C 
ATOM      7  O   UNL     1       0.104  -9.084  -3.978  0.00  0.00    -0.274 OA
ATOM      8  H   UNL     1       0.117  -8.953  -0.894  0.00  0.00    +0.173 HD
BRANCH   6   9
ATOM      9  C   UNL     1       0.136 -10.978  -2.569  0.00  0.00    +0.134 C 
BRANCH   9  10
ATOM     10  C   UNL     1       0.139 -11.724  -3.878  0.00  0.00    -0.014 A 
ATOM     11  C   UNL     1      -0.933 -12.210  -4.523  0.00  0.00    +0.087 A 
ATOM     12  N   UNL     1      -0.542 -12.827  -5.680  0.00  0.00    -0.360 N 
ATOM     13  H   UNL     1      -1.139 -13.255  -6.314  0.00  0.00    +0.165 HD
ATOM     14  C   UNL     1       0.827 -12.751  -5.812  0.00  0.00    +0.047 A 
ATOM     15  C   UNL     1       1.313 -12.051  -4.692  0.00  0.00    +0.003 A 
ATOM     16  C   UNL     1       2.682 -11.815  -4.559  0.00  0.00    +0.010 A 
ATOM     17  C   UNL     1       3.545 -12.263  -5.520  0.00  0.00    +0.001 A 
ATOM     18  C   UNL     1       3.070 -12.950  -6.628  0.00  0.00    +0.002 A 
ATOM     19  C   UNL     1       1.723 -13.202  -6.775  0.00  0.00    +0.026 A 
ENDBRANCH   9  10
ENDBRANCH   6   9
ENDBRANCH   3   5
BRANCH   1  20
ATOM     20  C   UNL     1       0.061  -4.893  -1.294  0.00  0.00    +0.199 C 
BRANCH  20  21
ATOM     21  N   UNL     1       0.058  -4.167  -0.021  0.00  0.00    -0.335 N 
ATOM     22  H   UNL     1       0.069  -4.657   0.816  0.00  0.00    +0.147 HD
BRANCH  21  27
ATOM     23  C   UNL     1      -0.018   1.503   0.010  0.00  0.00    +0.044 C 
ATOM     24  C   UNL     1       0.002  -0.004   0.002  0.00  0.00    -0.050 A 
ATOM     25  C   UNL     1       0.006  -0.687  -1.200  0.00  0.00    +0.005 A 
ATOM     26  C   UNL     1       0.024  -2.068  -1.212  0.00  0.00    +0.023 A 
ATOM     27  C   UNL     1       0.040  -2.771  -0.013  0.00  0.00    +0.030 A 
ATOM     28  C   UNL     1       0.036  -2.081   1.192  0.00  0.00    -0.029 A 
ATOM     29  C   UNL     1       0.023  -0.700   1.196  0.00  0.00    +0.008 A 
ATOM     30  C   UNL     1       0.052  -2.839   2.495  0.00  0.00    +0.045 C 
ENDBRANCH  21  27
ENDBRANCH  20  21
ENDBRANCH   1  20
TORSDOF 6
