REMARK  Name = ZINC36001526
REMARK  10 active torsions:
REMARK  status: ('A' for Active; 'I' for Inactive)
REMARK    1  A    between atoms: C_1  and  C_2
REMARK    2  A    between atoms: C_2  and  N_3
REMARK    3  A    between atoms: C_4  and  C_23
REMARK    4  A    between atoms: C_5  and  C_18
REMARK    5  A    between atoms: C_6  and  C_11
REMARK    6  A    between atoms: C_18  and  O_20
REMARK    7  A    between atoms: O_20  and  C_21
REMARK    8  A    between atoms: C_21  and  C_22
REMARK    9  A    between atoms: C_23  and  N_24
REMARK   10  A    between atoms: C_30  and  C_32
REMARK                            x       y       z     vdW  Elec       q    Type
REMARK                         _______ _______ _______ _____ _____    ______ ____
ROOT
ATOM      1  N   UNL     1       0.593  -0.321  -1.957  0.00  0.00    -0.258 N 
ATOM      2  C   UNL     1      -0.387  -0.459  -2.898  0.00  0.00    +0.041 C 
ATOM      3  C   UNL     1      -0.095  -0.862  -4.153  0.00  0.00    +0.080 C 
ATOM      4  C   UNL     1       1.355  -1.153  -4.482  0.00  0.00    +0.144 C 
ATOM      5  N   UNL     1       2.334  -0.973  -3.397  0.00  0.00    -0.288 N 
ATOM      6  C   UNL     1       1.889  -0.560  -2.194  0.00  0.00    +0.307 C 
ATOM      7  O   UNL     1       2.690  -0.404  -1.292  0.00  0.00    -0.252 OA
ATOM      8  H   UNL     1       3.277  -1.144  -3.546  0.00  0.00    +0.151 HD
ENDROOT
BRANCH   4   9
ATOM      9  C   UNL     1       1.446  -2.581  -4.956  0.00  0.00    -0.022 A 
ATOM     10  C   UNL     1       1.456  -3.614  -4.038  0.00  0.00    +0.007 A 
ATOM     11  C   UNL     1       1.540  -4.924  -4.472  0.00  0.00    +0.020 A 
ATOM     12  C   UNL     1       1.613  -5.200  -5.826  0.00  0.00    +0.041 A 
ATOM     13  C   UNL     1       1.602  -4.165  -6.744  0.00  0.00    +0.020 A 
ATOM     14  C   UNL     1       1.513  -2.857  -6.309  0.00  0.00    +0.007 A 
ATOM     15 CL   UNL     1       1.718  -6.845  -6.372  0.00  0.00    -0.084 Cl
ENDBRANCH   4   9
BRANCH   1  17
ATOM     16  C   UNL     1       0.251   1.647  -0.546  0.00  0.00    +0.025 C 
ATOM     17  C   UNL     1       0.206   0.120  -0.614  0.00  0.00    +0.111 C 
ENDBRANCH   1  17
BRANCH   3  18
ATOM     18  C   UNL     1      -1.109  -1.006  -5.129  0.00  0.00    +0.339 C 
ATOM     19  O   UNL     1      -1.594  -2.101  -5.345  0.00  0.00    -0.245 OA
BRANCH  18  20
ATOM     20  O   UNL     1      -1.539   0.070  -5.820  0.00  0.00    -0.462 OA
BRANCH  20  21
ATOM     21  C   UNL     1      -2.566  -0.149  -6.789  0.00  0.00    +0.229 C 
ATOM     22  C   UNL     1      -2.920   1.177  -7.466  0.00  0.00    +0.048 C 
ENDBRANCH  20  21
ENDBRANCH  18  20
ENDBRANCH   3  18
BRANCH   2  23
ATOM     23  C   UNL     1      -1.816  -0.158  -2.529  0.00  0.00    +0.136 C 
BRANCH  23  24
ATOM     24  N   UNL     1      -2.284  -1.140  -1.541  0.00  0.00    -0.294 NA
ATOM     25  C   UNL     1      -2.342  -2.487  -2.124  0.00  0.00    +0.104 C 
ATOM     26  C   UNL     1      -2.657  -3.504  -1.022  0.00  0.00    +0.123 C 
ATOM     27  N   UNL     1      -3.879  -3.075  -0.325  0.00  0.00    -0.295 N 
ATOM     28  C   UNL     1      -3.949  -1.691   0.168  0.00  0.00    +0.123 C 
ATOM     29  C   UNL     1      -3.583  -0.746  -0.981  0.00  0.00    +0.104 C 
ATOM     30  C   UNL     1      -4.907  -3.927  -0.143  0.00  0.00    +0.247 C 
ATOM     31  O   UNL     1      -5.946  -3.530   0.347  0.00  0.00    -0.270 OA
BRANCH  30  32
ATOM     32  C   UNL     1      -4.771  -5.344  -0.540  0.00  0.00    +0.037 A 
ATOM     33  C   UNL     1      -3.533  -5.983  -0.444  0.00  0.00    +0.016 A 
ATOM     34  C   UNL     1      -3.412  -7.304  -0.816  0.00  0.00    +0.039 A 
ATOM     35  C   UNL     1      -4.516  -8.000  -1.284  0.00  0.00    +0.123 A 
ATOM     36  C   UNL     1      -5.748  -7.370  -1.382  0.00  0.00    +0.039 A 
ATOM     37  C   UNL     1      -5.882  -6.050  -1.007  0.00  0.00    +0.016 A 
ATOM     38  F   UNL     1      -4.392  -9.295  -1.648  0.00  0.00    -0.205 F 
ENDBRANCH  30  32
ENDBRANCH  23  24
ENDBRANCH   2  23
TORSDOF 8
