REMARK  Name = ZINC67457731
REMARK  8 active torsions:
REMARK  status: ('A' for Active; 'I' for Inactive)
REMARK    1  A    between atoms: C_1  and  N_2
REMARK    2  A    between atoms: N_2  and  C_3
REMARK    3  A    between atoms: C_7  and  C_10
REMARK    4  A    between atoms: C_10  and  N_11
REMARK    5  A    between atoms: N_14  and  C_15
REMARK    6  A    between atoms: C_15  and  C_16
REMARK    7  A    between atoms: C_16  and  C_18
REMARK    8  A    between atoms: C_16  and  O_28
REMARK                            x       y       z     vdW  Elec       q    Type
REMARK                         _______ _______ _______ _____ _____    ______ ____
ROOT
ATOM      1  N   UNL     1      -5.295  -3.029   1.416  0.00  0.00    -0.295 N 
ATOM      2  C   UNL     1      -6.459  -3.659   1.670  0.00  0.00    +0.300 C 
ATOM      3  O   UNL     1      -7.161  -4.032   0.750  0.00  0.00    -0.253 OA
ATOM      4  N   UNL     1      -6.846  -3.874   2.943  0.00  0.00    -0.297 N 
ATOM      5  H   UNL     1      -4.735  -2.731   2.150  0.00  0.00    +0.151 HD
ATOM      6  H   UNL     1      -6.286  -3.576   3.677  0.00  0.00    +0.150 HD
ENDROOT
BRANCH   1   7
ATOM      7  C   UNL     1      -4.874  -2.795   0.033  0.00  0.00    +0.142 C 
BRANCH   7  14
ATOM      8  C   UNL     1      -0.018   1.461   0.010  0.00  0.00    +0.130 C 
ATOM      9  N   UNL     1       0.002  -0.004   0.002  0.00  0.00    -0.323 N 
ATOM     10  C   UNL     1       1.281  -0.719  -0.014  0.00  0.00    +0.130 C 
ATOM     11  C   UNL     1      -1.192  -0.715   0.010  0.00  0.00    +0.098 A 
ATOM     12  C   UNL     1      -1.166  -2.107   0.008  0.00  0.00    +0.042 A 
ATOM     13  C   UNL     1      -2.362  -2.802   0.015  0.00  0.00    +0.010 A 
ATOM     14  C   UNL     1      -3.548  -2.080   0.025  0.00  0.00    -0.014 A 
ATOM     15  C   UNL     1      -3.500  -0.700   0.026  0.00  0.00    +0.089 A 
ATOM     16  N   UNL     1      -2.344  -0.063   0.024  0.00  0.00    -0.349 N 
ATOM     17  H   UNL     1      -2.339   0.907   0.029  0.00  0.00    +0.167 HD
ENDBRANCH   7  14
ENDBRANCH   1   7
BRANCH   4  18
ATOM     18  C   UNL     1      -8.111  -4.558   3.218  0.00  0.00    +0.141 C 
BRANCH  18  19
ATOM     19  C   UNL     1      -8.310  -4.673   4.731  0.00  0.00    +0.162 C 
BRANCH  19  20
ATOM     20  C   UNL     1      -9.549  -5.484   5.014  0.00  0.00    -0.017 A 
ATOM     21  C   UNL     1     -10.801  -4.879   4.921  0.00  0.00    +0.007 A 
ATOM     22  C   UNL     1     -11.939  -5.582   5.171  0.00  0.00    +0.009 A 
ATOM     23  C   UNL     1     -11.854  -6.939   5.528  0.00  0.00    -0.018 A 
ATOM     24  C   UNL     1     -13.007  -7.697   5.793  0.00  0.00    +0.008 A 
ATOM     25  C   UNL     1     -12.886  -9.009   6.136  0.00  0.00    +0.001 A 
ATOM     26  C   UNL     1     -11.634  -9.614   6.229  0.00  0.00    +0.001 A 
ATOM     27  C   UNL     1     -10.496  -8.910   5.979  0.00  0.00    +0.008 A 
ATOM     28  C   UNL     1     -10.581  -7.554   5.622  0.00  0.00    -0.018 A 
ATOM     29  C   UNL     1      -9.428  -6.796   5.352  0.00  0.00    +0.014 A 
ENDBRANCH  19  20
BRANCH  19  30
ATOM     30  O   UNL     1      -8.456  -3.368   5.293  0.00  0.00    -0.386 OA
ATOM     31  H   UNL     1      -9.209  -2.871   4.943  0.00  0.00    +0.210 HD
ENDBRANCH  19  30
ENDBRANCH  18  19
ENDBRANCH   4  18
TORSDOF 6
