REMARK  Name = ZINC45315506
REMARK  8 active torsions:
REMARK  status: ('A' for Active; 'I' for Inactive)
REMARK    1  A    between atoms: C_4  and  C_7
REMARK    2  A    between atoms: C_7  and  N_8
REMARK    3  A    between atoms: N_8  and  C_9
REMARK    4  A    between atoms: C_9  and  C_10
REMARK    5  A    between atoms: C_10  and  N_11
REMARK    6  A    between atoms: C_16  and  N_28
REMARK    7  A    between atoms: C_19  and  C_20
REMARK    8  A    between atoms: C_22  and  C_26
REMARK                            x       y       z     vdW  Elec       q    Type
REMARK                         _______ _______ _______ _____ _____    ______ ____
ROOT
ATOM      1  N   UNL     1       7.183  -2.632   2.930  0.00  0.00    -0.325 N 
ATOM      2  C   UNL     1       7.353  -4.003   2.941  0.00  0.00    +0.071 A 
ATOM      3  C   UNL     1       6.509  -5.075   3.203  0.00  0.00    +0.028 A 
ATOM      4  C   UNL     1       6.990  -6.365   3.130  0.00  0.00    +0.004 A 
ATOM      5  C   UNL     1       8.315  -6.605   2.796  0.00  0.00    +0.025 A 
ATOM      6  C   UNL     1       9.173  -5.554   2.531  0.00  0.00    +0.058 A 
ATOM      7  C   UNL     1       8.696  -4.234   2.602  0.00  0.00    +0.111 A 
ATOM      8  N   UNL     1       9.274  -3.025   2.403  0.00  0.00    -0.226 NA
ATOM      9  C   UNL     1       8.388  -2.078   2.589  0.00  0.00    +0.143 A 
ENDROOT
BRANCH   6  10
ATOM     10  N   UNL     1      10.505  -5.802   2.196  0.00  0.00    -0.325 N 
ATOM     11  C   UNL     1      11.535  -5.893   3.240  0.00  0.00    +0.124 C 
ATOM     12  C   UNL     1      12.258  -7.238   3.099  0.00  0.00    +0.125 C 
ATOM     13  N   UNL     1      12.655  -7.414   1.695  0.00  0.00    -0.311 N 
ATOM     14  C   UNL     1      11.625  -7.323   0.651  0.00  0.00    +0.125 C 
ATOM     15  C   UNL     1      10.901  -5.983   0.792  0.00  0.00    +0.124 C 
ATOM     16  C   UNL     1      13.981  -7.661   1.361  0.00  0.00    +0.140 A 
ATOM     17  C   UNL     1      14.908  -7.965   2.356  0.00  0.00    +0.154 A 
ATOM     18  N   UNL     1      16.166  -8.199   2.034  0.00  0.00    -0.258 NA
ATOM     19  C   UNL     1      16.547  -8.145   0.769  0.00  0.00    +0.130 A 
ATOM     20  C   UNL     1      15.632  -7.843  -0.221  0.00  0.00    +0.132 A 
ATOM     21  N   UNL     1      14.368  -7.613   0.093  0.00  0.00    -0.237 NA
ENDBRANCH   6  10
BRANCH   9  22
ATOM     22  C   UNL     1       8.650  -0.628   2.454  0.00  0.00    +0.037 A 
ATOM     23  C   UNL     1       7.599   0.265   2.234  0.00  0.00    +0.033 A 
ATOM     24  C   UNL     1       7.902   1.624   2.114  0.00  0.00    +0.070 A 
ATOM     25  C   UNL     1       9.234   2.033   2.218  0.00  0.00    +0.129 A 
ATOM     26  N   UNL     1      10.195   1.157   2.426  0.00  0.00    -0.261 NA
ATOM     27  C   UNL     1       9.951  -0.132   2.551  0.00  0.00    +0.122 A 
BRANCH  24  28
ATOM     28  C   UNL     1       6.863   2.583   1.887  0.00  0.00    +0.101 C 
ATOM     29  N   UNL     1       6.039   3.344   1.707  0.00  0.00    -0.191 NA
ENDBRANCH  24  28
ENDBRANCH   9  22
BRANCH   1  30
ATOM     30  C   UNL     1       5.944  -1.908   3.223  0.00  0.00    +0.105 C 
BRANCH  30  31
ATOM     31  C   UNL     1       5.085  -1.836   1.959  0.00  0.00    -0.060 C 
BRANCH  31  32
ATOM     32  N   UNL     1       3.842  -1.109   2.252  0.00  0.00    +0.383 N 
ATOM     33  H   UNL     1       4.064  -0.175   2.561  0.00  0.00    -0.085 HD
ATOM     34  H   UNL     1       3.333  -1.592   2.978  0.00  0.00    -0.085 HD
BRANCH  32  35
ATOM     35  C   UNL     1       3.017  -1.040   1.039  0.00  0.00    -0.047 C 
BRANCH  35  39
ATOM     36  C   UNL     1      -0.597   1.073   1.889  0.00  0.00    +0.000 A 
ATOM     37  C   UNL     1       0.519   1.761   1.450  0.00  0.00    +0.000 A 
ATOM     38  C   UNL     1       1.689   1.077   1.175  0.00  0.00    +0.002 A 
ATOM     39  C   UNL     1       1.742  -0.295   1.339  0.00  0.00    -0.064 A 
ATOM     40  C   UNL     1       0.627  -0.982   1.780  0.00  0.00    +0.002 A 
ATOM     41  C   UNL     1      -0.543  -0.299   2.053  0.00  0.00    +0.000 A 
ENDBRANCH  35  39
ENDBRANCH  32  35
ENDBRANCH  31  32
ENDBRANCH  30  31
ENDBRANCH   1  30
TORSDOF 8
