REMARK  Name = ZINC03376942
REMARK  11 active torsions:
REMARK  status: ('A' for Active; 'I' for Inactive)
REMARK    1  A    between atoms: C_1  and  N_2
REMARK    2  A    between atoms: N_2  and  C_3
REMARK    3  A    between atoms: N_2  and  S_4
REMARK    4  A    between atoms: S_4  and  C_7
REMARK    5  A    between atoms: C_10  and  S_13
REMARK    6  A    between atoms: S_13  and  N_16
REMARK    7  A    between atoms: N_16  and  C_17
REMARK    8  A    between atoms: C_17  and  C_18
REMARK    9  A    between atoms: C_18  and  C_19
REMARK   10  A    between atoms: C_22  and  S_25
REMARK   11  A    between atoms: S_25  and  N_28
REMARK                            x       y       z     vdW  Elec       q    Type
REMARK                         _______ _______ _______ _____ _____    ______ ____
ROOT
ATOM      1  N   UNL     1      -2.385   2.673   6.434  0.00  0.00    -0.190 NA
ATOM      2  H   UNL     1      -2.736   1.997   7.035  0.00  0.00    +0.148 HD
ENDROOT
BRANCH   1   3
ATOM      3  S   UNL     1      -3.264   3.143   5.112  0.00  0.00    +0.058 S 
ATOM      4  O   UNL     1      -3.282   4.563   5.119  0.00  0.00    -0.153 OA
ATOM      5  O   UNL     1      -4.454   2.365   5.118  0.00  0.00    -0.153 OA
BRANCH   3   9
ATOM      6  C   UNL     1      -0.927   1.900   1.439  0.00  0.00    +0.106 A 
ATOM      7  C   UNL     1      -0.717   3.145   2.004  0.00  0.00    +0.030 A 
ATOM      8  C   UNL     1      -1.434   3.526   3.123  0.00  0.00    +0.030 A 
ATOM      9  C   UNL     1      -2.354   2.659   3.683  0.00  0.00    +0.105 A 
ATOM     10  C   UNL     1      -2.559   1.412   3.121  0.00  0.00    +0.030 A 
ATOM     11  C   UNL     1      -1.846   1.033   2.000  0.00  0.00    +0.030 A 
BRANCH   6  12
ATOM     12  S   UNL     1      -0.017   1.417   0.010  0.00  0.00    +0.060 S 
ATOM     13  O   UNL     1       0.002  -0.004   0.002  0.00  0.00    -0.153 OA
ATOM     14  O   UNL     1       1.172   2.195   0.003  0.00  0.00    -0.153 OA
BRANCH  12  16
ATOM     15  C   UNL     1      -0.691   3.213  -1.897  0.00  0.00    +0.131 C 
ATOM     16  N   UNL     1      -0.897   1.885  -1.312  0.00  0.00    -0.183 NA
ATOM     17  C   UNL     1      -1.883   0.973  -1.897  0.00  0.00    +0.131 C 
ENDBRANCH  12  16
ENDBRANCH   6  12
ENDBRANCH   3   9
ENDBRANCH   1   3
BRANCH   1  18
ATOM     18  C   UNL     1      -1.078   3.279   6.698  0.00  0.00    +0.110 C 
BRANCH  18  19
ATOM     19  C   UNL     1      -0.651   2.968   8.133  0.00  0.00    +0.052 C 
BRANCH  19  20
ATOM     20  C   UNL     1       0.694   3.591   8.404  0.00  0.00    -0.046 A 
ATOM     21  C   UNL     1       1.850   2.875   8.157  0.00  0.00    +0.005 A 
ATOM     22  C   UNL     1       3.084   3.449   8.401  0.00  0.00    +0.029 A 
ATOM     23  C   UNL     1       3.162   4.735   8.902  0.00  0.00    +0.105 A 
ATOM     24  C   UNL     1       2.005   5.449   9.154  0.00  0.00    +0.029 A 
ATOM     25  C   UNL     1       0.771   4.877   8.906  0.00  0.00    +0.005 A 
BRANCH  23  26
ATOM     26  S   UNL     1       4.734   5.464   9.217  0.00  0.00    +0.056 S 
ATOM     27  O   UNL     1       5.668   4.791   8.385  0.00  0.00    -0.153 OA
ATOM     28  O   UNL     1       4.546   6.872   9.168  0.00  0.00    -0.153 OA
BRANCH  26  29
ATOM     29  N   UNL     1       5.140   5.095  10.779  0.00  0.00    -0.204 NA
ATOM     30  H   UNL     1       6.073   5.002  11.029  0.00  0.00    +0.144 HD
ATOM     31  H   UNL     1       4.446   4.973  11.445  0.00  0.00    +0.144 HD
ENDBRANCH  26  29
ENDBRANCH  23  26
ENDBRANCH  19  20
ENDBRANCH  18  19
ENDBRANCH   1  18
TORSDOF 9
