REMARK  Name = ZINC40735440
REMARK  6 active torsions:
REMARK  status: ('A' for Active; 'I' for Inactive)
REMARK    1  A    between atoms: C_1  and  C_2
REMARK    2  A    between atoms: C_7  and  C_9
REMARK    3  A    between atoms: C_7  and  C_10
REMARK    4  A    between atoms: C_14  and  N_27
REMARK    5  A    between atoms: C_15  and  N_19
REMARK    6  A    between atoms: N_19  and  C_20
REMARK                            x       y       z     vdW  Elec       q    Type
REMARK                         _______ _______ _______ _____ _____    ______ ____
ROOT
ATOM      1  C   UNL     1       0.160   1.467   0.879  0.00  0.00    +0.013 C 
ATOM      2  C   UNL     1       0.068  -0.051   0.655  0.00  0.00    -0.014 C 
ATOM      3  C   UNL     1       0.985  -0.533  -0.503  0.00  0.00    +0.030 C 
ATOM      4  C   UNL     1       0.327  -1.904  -0.799  0.00  0.00    +0.076 C 
ATOM      5  C   UNL     1       0.751  -2.860   0.314  0.00  0.00    +0.029 C 
ATOM      6  C   UNL     1       0.431  -2.360   1.711  0.00  0.00    -0.033 C 
ATOM      7  C   UNL     1       0.445  -0.854   1.898  0.00  0.00    +0.014 C 
ATOM      8  C   UNL     1       1.503  -2.948   2.662  0.00  0.00    +0.011 C 
ATOM      9  C   UNL     1      -0.917  -2.934   2.171  0.00  0.00    +0.011 C 
ATOM     10  N   UNL     1      -1.125  -1.658  -0.698  0.00  0.00    -0.310 N 
ATOM     11  C   UNL     1      -1.332  -0.489   0.170  0.00  0.00    +0.113 C 
ATOM     12  C   UNL     1      -2.124  -2.395  -1.322  0.00  0.00    +0.147 A 
ATOM     13  C   UNL     1      -3.470  -2.139  -1.050  0.00  0.00    +0.106 A 
ATOM     14  C   UNL     1      -4.433  -2.908  -1.704  0.00  0.00    +0.149 A 
ATOM     15  N   UNL     1      -4.035  -3.850  -2.556  0.00  0.00    -0.219 NA
ATOM     16  C   UNL     1      -2.755  -4.060  -2.784  0.00  0.00    +0.225 A 
ATOM     17  N   UNL     1      -1.814  -3.353  -2.192  0.00  0.00    -0.219 NA
ENDROOT
BRANCH  13  18
ATOM     18  N   UNL     1      -3.843  -1.134  -0.142  0.00  0.00    -0.353 N 
ATOM     19  H   UNL     1      -3.316  -0.323  -0.073  0.00  0.00    +0.143 HD
ATOM     20  H   UNL     1      -4.628  -1.251   0.415  0.00  0.00    +0.143 HD
ENDBRANCH  13  18
BRANCH  14  21
ATOM     21  N   UNL     1      -5.786  -2.694  -1.469  0.00  0.00    -0.295 N 
ATOM     22  H   UNL     1      -6.066  -2.071  -0.780  0.00  0.00    +0.154 HD
BRANCH  21  23
ATOM     23  C   UNL     1      -6.744  -3.377  -2.225  0.00  0.00    +0.070 A 
ATOM     24  C   UNL     1      -6.393  -3.984  -3.428  0.00  0.00    +0.028 A 
ATOM     25  C   UNL     1      -7.376  -4.649  -4.141  0.00  0.00    +0.022 A 
ATOM     26  C   UNL     1      -8.664  -4.689  -3.641  0.00  0.00    +0.112 A 
ATOM     27  N   UNL     1      -8.966  -4.104  -2.498  0.00  0.00    -0.242 NA
ATOM     28  C   UNL     1      -8.060  -3.465  -1.784  0.00  0.00    +0.150 A 
ATOM     29 CL   UNL     1      -8.515  -2.721  -0.283  0.00  0.00    -0.060 Cl
ENDBRANCH  21  23
ENDBRANCH  14  21
TORSDOF 3
