REMARK  Name = ZINC52634745
REMARK  9 active torsions:
REMARK  status: ('A' for Active; 'I' for Inactive)
REMARK    1  A    between atoms: C_1  and  C_2
REMARK    2  A    between atoms: C_4  and  C_31
REMARK    3  A    between atoms: C_9  and  C_11
REMARK    4  A    between atoms: C_13  and  N_19
REMARK    5  A    between atoms: N_19  and  C_20
REMARK    6  A    between atoms: C_20  and  C_21
REMARK    7  A    between atoms: C_21  and  C_23
REMARK    8  A    between atoms: C_21  and  O_30
REMARK    9  A    between atoms: N_35  and  C_36
REMARK                            x       y       z     vdW  Elec       q    Type
REMARK                         _______ _______ _______ _____ _____    ______ ____
ROOT
ATOM      1  C   UNL     1      -0.890  -2.225   4.898  0.00  0.00    +0.186 C 
ATOM      2  C   UNL     1       0.503  -2.135   5.492  0.00  0.00    +0.025 C 
ATOM      3  C   UNL     1       0.928  -3.191   6.244  0.00  0.00    +0.037 C 
ATOM      4  C   UNL     1       0.112  -4.295   6.449  0.00  0.00    +0.102 C 
ATOM      5  N   UNL     1      -1.099  -4.422   5.958  0.00  0.00    -0.188 NA
ATOM      6  C   UNL     1      -1.673  -3.487   5.201  0.00  0.00    +0.252 C 
ATOM      7  O   UNL     1      -2.796  -3.643   4.765  0.00  0.00    -0.273 OA
ENDROOT
BRANCH   1  16
ATOM      8  C   UNL     1      -0.872   1.082   0.424  0.00  0.00    +0.046 C 
ATOM      9  C   UNL     1      -0.683  -0.406   0.279  0.00  0.00    -0.022 A 
ATOM     10  C   UNL     1      -0.501  -0.951  -0.957  0.00  0.00    +0.016 A 
ATOM     11  C   UNL     1      -0.324  -2.332  -1.106  0.00  0.00    +0.015 A 
ATOM     12  C   UNL     1      -0.334  -3.163   0.011  0.00  0.00    +0.039 A 
ATOM     13  C   UNL     1      -0.518  -2.615   1.269  0.00  0.00    +0.067 A 
ATOM     14  C   UNL     1      -0.690  -1.226   1.413  0.00  0.00    +0.092 A 
ATOM     15  N   UNL     1      -0.840  -0.982   2.738  0.00  0.00    -0.231 NA
ATOM     16  C   UNL     1      -0.768  -2.100   3.401  0.00  0.00    +0.126 A 
ATOM     17  N   UNL     1      -0.580  -3.140   2.546  0.00  0.00    -0.341 N 
ATOM     18  H   UNL     1      -0.494  -4.075   2.788  0.00  0.00    +0.167 HD
BRANCH  11  19
ATOM     19  C   UNL     1      -0.127  -2.909  -2.454  0.00  0.00    +0.102 C 
ATOM     20  N   UNL     1      -0.720  -2.452  -3.507  0.00  0.00    -0.371 N 
ATOM     21  C   UNL     1      -0.323  -3.230  -4.689  0.00  0.00    +0.133 C 
ATOM     22  C   UNL     1       0.656  -4.282  -4.133  0.00  0.00    +0.127 C 
ATOM     23  N   UNL     1       0.705  -3.973  -2.694  0.00  0.00    -0.318 N 
ATOM     24  C   UNL     1       1.502  -4.682  -1.690  0.00  0.00    +0.130 C 
ATOM     25  H   UNL     1      -1.337  -1.703  -3.517  0.00  0.00    +0.161 HD
ENDBRANCH  11  19
ENDBRANCH   1  16
BRANCH   2  26
ATOM     26  N   UNL     1       1.294  -1.048   5.283  0.00  0.00    -0.343 N 
ATOM     27  H   UNL     1       0.971  -0.309   4.745  0.00  0.00    +0.146 HD
BRANCH  26  28
ATOM     28  C   UNL     1       2.635  -0.994   5.872  0.00  0.00    +0.137 C 
BRANCH  28  29
ATOM     29  C   UNL     1       3.308   0.325   5.487  0.00  0.00    +0.161 C 
BRANCH  29  30
ATOM     30  C   UNL     1       4.729   0.328   5.989  0.00  0.00    -0.016 A 
ATOM     31  C   UNL     1       4.993   0.615   7.315  0.00  0.00    +0.006 A 
ATOM     32  C   UNL     1       6.296   0.618   7.776  0.00  0.00    +0.002 A 
ATOM     33  C   UNL     1       7.336   0.336   6.911  0.00  0.00    +0.020 A 
ATOM     34  C   UNL     1       7.073   0.049   5.583  0.00  0.00    +0.041 A 
ATOM     35  C   UNL     1       5.768   0.040   5.124  0.00  0.00    +0.026 A 
ATOM     36 CL   UNL     1       8.379  -0.305   4.496  0.00  0.00    -0.084 Cl
ENDBRANCH  29  30
BRANCH  29  37
ATOM     37  O   UNL     1       2.593   1.414   6.074  0.00  0.00    -0.386 OA
ATOM     38  H   UNL     1       2.555   1.385   7.040  0.00  0.00    +0.210 HD
ENDBRANCH  29  37
ENDBRANCH  28  29
ENDBRANCH  26  28
ENDBRANCH   2  26
TORSDOF 7
