REMARK  Name = ZINC07126323
REMARK  8 active torsions:
REMARK  status: ('A' for Active; 'I' for Inactive)
REMARK    1  A    between atoms: C_1  and  C_2
REMARK    2  A    between atoms: C_2  and  C_3
REMARK    3  A    between atoms: C_2  and  C_4
REMARK    4  A    between atoms: C_4  and  O_5
REMARK    5  A    between atoms: O_5  and  C_6
REMARK    6  A    between atoms: C_9  and  C_14
REMARK    7  A    between atoms: C_11  and  O_12
REMARK    8  A    between atoms: O_12  and  C_13
REMARK                            x       y       z     vdW  Elec       q    Type
REMARK                         _______ _______ _______ _____ _____    ______ ____
ROOT
ATOM      1  C   UNL     1      -6.407  -4.577  -0.143  0.00  0.00    +0.209 C 
ATOM      2  N   UNL     1      -7.379  -3.787  -0.922  0.00  0.00    -0.294 N 
ATOM      3  C   UNL     1      -7.985  -2.706  -0.297  0.00  0.00    +0.159 C 
ATOM      4  N   UNL     1      -8.582  -2.958   0.938  0.00  0.00    -0.259 N 
ATOM      5  C   UNL     1      -7.939  -3.912   1.723  0.00  0.00    +0.205 A 
ATOM      6  N   UNL     1      -6.916  -4.691   1.228  0.00  0.00    -0.288 N 
ATOM      7  C   UNL     1      -6.518  -5.523   2.235  0.00  0.00    +0.072 A 
ATOM      8  C   UNL     1      -5.547  -6.514   2.314  0.00  0.00    +0.028 A 
ATOM      9  C   UNL     1      -5.413  -7.172   3.526  0.00  0.00    +0.002 A 
ATOM     10  C   UNL     1      -6.206  -6.866   4.619  0.00  0.00    +0.002 A 
ATOM     11  C   UNL     1      -7.180  -5.885   4.566  0.00  0.00    +0.030 A 
ATOM     12  C   UNL     1      -7.332  -5.207   3.351  0.00  0.00    +0.091 A 
ATOM     13  N   UNL     1      -8.171  -4.218   2.970  0.00  0.00    -0.214 NA
ATOM     14  N   UNL     1      -7.995  -1.520  -0.835  0.00  0.00    -0.375 N 
ATOM     15  H   UNL     1      -7.588  -4.016  -1.841  0.00  0.00    +0.151 HD
ATOM     16  H   UNL     1      -7.571  -1.373  -1.695  0.00  0.00    +0.158 HD
ATOM     17  H   UNL     1      -9.388  -2.502   1.229  0.00  0.00    +0.158 HD
ATOM     18  H   UNL     1      -8.426  -0.782  -0.376  0.00  0.00    +0.158 HD
ENDROOT
BRANCH   1  22
ATOM     19  C   UNL     1      -2.620  -2.590  -0.120  0.00  0.00    +0.162 A 
ATOM     20  C   UNL     1      -3.791  -1.857  -0.015  0.00  0.00    +0.050 A 
ATOM     21  C   UNL     1      -5.014  -2.502  -0.023  0.00  0.00    +0.011 A 
ATOM     22  C   UNL     1      -5.072  -3.879  -0.135  0.00  0.00    -0.003 A 
ATOM     23  C   UNL     1      -3.907  -4.616  -0.240  0.00  0.00    +0.056 A 
ATOM     24  C   UNL     1      -2.679  -3.975  -0.239  0.00  0.00    +0.162 A 
BRANCH  24  25
ATOM     25  O   UNL     1      -1.533  -4.699  -0.348  0.00  0.00    -0.491 OA
ATOM     26  C   UNL     1      -1.669  -6.117  -0.466  0.00  0.00    +0.277 C 
ENDBRANCH  24  25
BRANCH  19  27
ATOM     27  O   UNL     1      -1.417  -1.957  -0.112  0.00  0.00    -0.488 OA
BRANCH  27  28
ATOM     28  C   UNL     1      -1.433  -0.534   0.013  0.00  0.00    +0.232 C 
BRANCH  28  30
ATOM     29  C   UNL     1      -0.019   1.526   0.010  0.00  0.00    +0.010 C 
ATOM     30  C   UNL     1       0.002  -0.004   0.002  0.00  0.00    +0.020 C 
ATOM     31  C   UNL     1       0.742  -0.511   1.242  0.00  0.00    +0.010 C 
ENDBRANCH  28  30
ENDBRANCH  27  28
ENDBRANCH  19  27
ENDBRANCH   1  22
TORSDOF 5
