REMARK  Name = ZINC05319230
REMARK  5 active torsions:
REMARK  status: ('A' for Active; 'I' for Inactive)
REMARK    1  A    between atoms: C_3  and  O_25
REMARK    2  A    between atoms: C_4  and  C_8
REMARK    3  A    between atoms: N_9  and  N_10
REMARK    4  A    between atoms: C_11  and  C_13
REMARK    5  A    between atoms: C_15  and  C_19
REMARK                            x       y       z     vdW  Elec       q    Type
REMARK                         _______ _______ _______ _____ _____    ______ ____
ROOT
ATOM      1  N   UNL     1       6.029  -0.708  -0.061  0.00  0.00    -0.202 N 
ATOM      2  C   UNL     1       7.187  -0.018  -0.069  0.00  0.00    +0.281 C 
ATOM      3  O   UNL     1       7.170   1.199  -0.062  0.00  0.00    -0.267 OA
ATOM      4  H   UNL     1       6.043  -1.678  -0.066  0.00  0.00    +0.178 HD
ENDROOT
BRANCH   2   5
ATOM      5  C   UNL     1       8.472  -0.735  -0.085  0.00  0.00    +0.122 A 
ATOM      6  C   UNL     1       9.725  -0.164  -0.089  0.00  0.00    +0.063 A 
ATOM      7  C   UNL     1      10.666  -1.207  -0.106  0.00  0.00    +0.100 A 
ATOM      8  N   UNL     1      10.017  -2.355  -0.113  0.00  0.00    -0.173 NA
ATOM      9  N   UNL     1       8.642  -2.092  -0.094  0.00  0.00    -0.272 N 
ATOM     10  H   UNL     1       7.935  -2.756  -0.090  0.00  0.00    +0.189 HD
BRANCH   7  11
ATOM     11  C   UNL     1      12.137  -1.044  -0.116  0.00  0.00    +0.041 A 
ATOM     12  C   UNL     1      13.110  -2.006  -0.138  0.00  0.00    +0.019 A 
ATOM     13  C   UNL     1      14.431  -1.612  -0.143  0.00  0.00    +0.028 A 
ATOM     14  C   UNL     1      14.726  -0.286  -0.126  0.00  0.00    +0.079 A 
ATOM     15  S   UNL     1      13.103   0.457  -0.109  0.00  0.00    -0.075 S 
ATOM     16 CL   UNL     1      16.280   0.486  -0.128  0.00  0.00    -0.076 Cl
ENDBRANCH   7  11
ENDBRANCH   2   5
BRANCH   1  18
ATOM     17  C   UNL     1       3.692  -0.690  -0.037  0.00  0.00    +0.142 C 
ATOM     18  N   UNL     1       4.806  -0.025  -0.045  0.00  0.00    -0.187 NA
BRANCH  17  22
ATOM     19  C   UNL     1      -0.017   1.381   0.010  0.00  0.00    +0.019 A 
ATOM     20  C   UNL     1       1.166   2.096   0.002  0.00  0.00    +0.047 A 
ATOM     21  C   UNL     1       2.381   1.430  -0.013  0.00  0.00    +0.126 A 
ATOM     22  C   UNL     1       2.405   0.028  -0.021  0.00  0.00    +0.037 A 
ATOM     23  C   UNL     1       1.204  -0.683  -0.013  0.00  0.00    +0.028 A 
ATOM     24  C   UNL     1       0.002  -0.004   0.002  0.00  0.00    +0.019 A 
ATOM     25 BR   UNL     1      -1.625  -0.968   0.013  0.00  0.00    -0.050 Br
BRANCH  21  26
ATOM     26  O   UNL     1       3.543   2.132  -0.021  0.00  0.00    -0.506 OA
ATOM     27  H   UNL     1       3.888   2.331   0.860  0.00  0.00    +0.292 HD
ENDBRANCH  21  26
ENDBRANCH  17  22
ENDBRANCH   1  18
TORSDOF 5
