REMARK  Name = ZINC56626370
REMARK  7 active torsions:
REMARK  status: ('A' for Active; 'I' for Inactive)
REMARK    1  A    between atoms: C_1  and  C_2
REMARK    2  A    between atoms: N_4  and  C_5
REMARK    3  A    between atoms: N_4  and  C_6
REMARK    4  A    between atoms: C_6  and  C_7
REMARK    5  A    between atoms: C_12  and  N_13
REMARK    6  A    between atoms: N_16  and  C_17
REMARK    7  A    between atoms: N_26  and  C_28
REMARK                            x       y       z     vdW  Elec       q    Type
REMARK                         _______ _______ _______ _____ _____    ______ ____
ROOT
ATOM      1  N   UNL     1      -3.548  -2.378   1.230  0.00  0.00    -0.269 N 
ATOM      2  C   UNL     1      -4.781  -2.572   1.739  0.00  0.00    +0.304 C 
ATOM      3  O   UNL     1      -4.913  -3.006   2.867  0.00  0.00    -0.253 OA
ATOM      4  N   UNL     1      -5.869  -2.285   0.996  0.00  0.00    -0.296 N 
ATOM      5  H   UNL     1      -3.441  -1.954   0.365  0.00  0.00    +0.156 HD
ATOM      6  H   UNL     1      -5.764  -1.939   0.096  0.00  0.00    +0.151 HD
ENDROOT
BRANCH   4   7
ATOM      7  C   UNL     1      -7.206  -2.495   1.547  0.00  0.00    +0.077 C 
ATOM      8  C   UNL     1      -7.657  -1.263   2.336  0.00  0.00    -0.007 C 
ATOM      9  C   UNL     1      -9.001  -1.549   2.995  0.00  0.00    +0.003 C 
ATOM     10  C   UNL     1     -10.065  -1.979   1.997  0.00  0.00    +0.001 C 
ATOM     11  C   UNL     1      -9.581  -3.039   1.020  0.00  0.00    +0.003 C 
ATOM     12  C   UNL     1      -8.219  -2.710   0.420  0.00  0.00    -0.007 C 
ATOM     13  C   UNL     1      -8.282  -1.481  -0.474  0.00  0.00    -0.073 C 
ATOM     14  N   UNL     1      -8.575  -0.251   0.254  0.00  0.00    +0.382 N 
ATOM     15  C   UNL     1      -7.725  -0.049   1.423  0.00  0.00    -0.073 C 
ATOM     16  H   UNL     1      -9.547  -0.224   0.519  0.00  0.00    -0.081 HD
BRANCH  14  17
ATOM     17  C   UNL     1      -8.366   0.879  -0.661  0.00  0.00    -0.069 C 
ATOM     18  C   UNL     1      -9.496   1.901  -0.790  0.00  0.00    -0.017 C 
ATOM     19  C   UNL     1      -9.214   0.924  -1.933  0.00  0.00    -0.017 C 
ENDBRANCH  14  17
ENDBRANCH   4   7
BRANCH   1  25
ATOM     20  C   UNL     1      -1.193  -2.181   1.730  0.00  0.00    -0.009 A 
ATOM     21  C   UNL     1      -0.084  -2.585   2.448  0.00  0.00    +0.007 A 
ATOM     22  C   UNL     1      -0.195  -3.598   3.382  0.00  0.00    +0.000 A 
ATOM     23  C   UNL     1      -1.416  -4.210   3.601  0.00  0.00    +0.002 A 
ATOM     24  C   UNL     1      -2.528  -3.811   2.887  0.00  0.00    +0.023 A 
ATOM     25  C   UNL     1      -2.421  -2.789   1.952  0.00  0.00    +0.039 A 
BRANCH  20  26
ATOM     26  C   UNL     1      -1.071  -1.077   0.712  0.00  0.00    +0.144 C 
BRANCH  26  30
ATOM     27  C   UNL     1      -0.908   2.315   2.478  0.00  0.00    +0.109 C 
ATOM     28  C   UNL     1      -0.513   1.005   1.847  0.00  0.00    +0.213 C 
ATOM     29  O   UNL     1       0.655   0.677   1.812  0.00  0.00    -0.276 OA
ATOM     30  N   UNL     1      -1.456   0.197   1.324  0.00  0.00    -0.300 N 
ATOM     31  C   UNL     1      -2.866   0.593   1.367  0.00  0.00    +0.132 C 
ENDBRANCH  26  30
ENDBRANCH  20  26
ENDBRANCH   1  25
TORSDOF 5
