REMARK  Name = ZINC12402290
REMARK  7 active torsions:
REMARK  status: ('A' for Active; 'I' for Inactive)
REMARK    1  A    between atoms: C_1  and  C_2
REMARK    2  A    between atoms: C_2  and  C_33
REMARK    3  A    between atoms: C_6  and  C_22
REMARK    4  A    between atoms: C_8  and  C_20
REMARK    5  A    between atoms: C_9  and  N_19
REMARK    6  A    between atoms: N_10  and  C_11
REMARK    7  A    between atoms: C_25  and  N_27
REMARK                            x       y       z     vdW  Elec       q    Type
REMARK                         _______ _______ _______ _____ _____    ______ ____
ROOT
ATOM      1  C   UNL     1       2.802   5.314   1.785  0.00  0.00    +0.011 C 
ATOM      2  C   UNL     1       2.224   5.424   0.373  0.00  0.00    -0.023 C 
ATOM      3  C   UNL     1       2.107   4.029  -0.245  0.00  0.00    +0.058 C 
ATOM      4  C   UNL     1       3.477   3.403  -0.344  0.00  0.00    +0.025 C 
ATOM      5  C   UNL     1       4.577   4.163  -0.532  0.00  0.00    +0.026 C 
ATOM      6  C   UNL     1       5.942   3.534  -0.650  0.00  0.00    +0.104 C 
ATOM      7  C   UNL     1       5.942   2.134  -0.110  0.00  0.00    +0.077 C 
ATOM      8  C   UNL     1       4.781   1.450   0.074  0.00  0.00    +0.107 C 
ATOM      9  N   UNL     1       3.578   2.040  -0.241  0.00  0.00    -0.260 N 
ATOM     10  C   UNL     1       4.483   5.563  -0.622  0.00  0.00    +0.162 C 
ATOM     11  O   UNL     1       5.492   6.217  -0.799  0.00  0.00    -0.292 OA
ATOM     12  C   UNL     1       3.159   6.266  -0.502  0.00  0.00    +0.086 C 
ATOM     13  C   UNL     1       0.844   6.083   0.431  0.00  0.00    +0.011 C 
ENDROOT
BRANCH   9  14
ATOM     14  C   UNL     1       2.448   1.242  -0.452  0.00  0.00    +0.042 A 
ATOM     15  C   UNL     1       1.651   0.867   0.622  0.00  0.00    +0.044 A 
ATOM     16  C   UNL     1       0.535   0.079   0.410  0.00  0.00    +0.044 A 
ATOM     17  C   UNL     1       0.211  -0.336  -0.870  0.00  0.00    +0.040 A 
ATOM     18  C   UNL     1       1.004   0.037  -1.942  0.00  0.00    +0.044 A 
ATOM     19  C   UNL     1       2.121   0.825  -1.736  0.00  0.00    +0.044 A 
ATOM     20 CL   UNL     1       0.594  -0.485  -3.546  0.00  0.00    -0.083 Cl
ATOM     21 CL   UNL     1      -0.465  -0.385   1.751  0.00  0.00    -0.083 Cl
ENDBRANCH   9  14
BRANCH   6  22
ATOM     22  C   UNL     1       6.348   3.503  -2.101  0.00  0.00    +0.005 A 
ATOM     23  C   UNL     1       7.416   4.082  -2.701  0.00  0.00    +0.014 A 
ATOM     24  C   UNL     1       7.594   3.915  -4.062  0.00  0.00    +0.041 A 
ATOM     25  C   UNL     1       6.688   3.185  -4.758  0.00  0.00    +0.164 A 
ATOM     26  S   UNL     1       5.542   2.701  -3.478  0.00  0.00    -0.068 S 
BRANCH  25  27
ATOM     27  N   UNL     1       6.657   2.872  -6.204  0.00  0.00    +0.063 N 
ATOM     28  O   UNL     1       7.534   3.292  -6.937  0.00  0.00    -0.126 OA
ATOM     29  O   UNL     1       5.754   2.193  -6.661  0.00  0.00    -0.126 OA
ENDBRANCH  25  27
ENDBRANCH   6  22
BRANCH   8  30
ATOM     30  N   UNL     1       4.808   0.168   0.568  0.00  0.00    -0.345 N 
ATOM     31  H   UNL     1       3.978  -0.286   0.782  0.00  0.00    +0.144 HD
ATOM     32  H   UNL     1       5.657  -0.282   0.704  0.00  0.00    +0.144 HD
ENDBRANCH   8  30
BRANCH   7  33
ATOM     33  C   UNL     1       7.187   1.509   0.223  0.00  0.00    +0.099 C 
ATOM     34  N   UNL     1       8.174   1.013   0.488  0.00  0.00    -0.191 NA
ENDBRANCH   7  33
TORSDOF 5
