REMARK  Name = ZINC59019553
REMARK  10 active torsions:
REMARK  status: ('A' for Active; 'I' for Inactive)
REMARK    1  A    between atoms: C_1  and  C_2
REMARK    2  A    between atoms: C_5  and  C_8
REMARK    3  A    between atoms: N_9  and  N_10
REMARK    4  A    between atoms: C_13  and  S_16
REMARK    5  A    between atoms: S_16  and  C_17
REMARK    6  A    between atoms: C_17  and  C_18
REMARK    7  A    between atoms: N_20  and  C_21
REMARK    8  A    between atoms: C_26  and  S_27
REMARK    9  A    between atoms: S_27  and  C_28
REMARK   10  A    between atoms: C_28  and  C_29
REMARK                            x       y       z     vdW  Elec       q    Type
REMARK                         _______ _______ _______ _____ _____    ______ ____
ROOT
ATOM      1  C   UNL     1       0.136  -8.889   6.829  0.00  0.00    +0.173 C 
ENDROOT
BRANCH   1   2
ATOM      2  C   UNL     1       0.150  -8.828   8.335  0.00  0.00    +0.228 C 
ATOM      3  O   UNL     1       0.136  -7.754   8.898  0.00  0.00    -0.275 OA
ATOM      4  N   UNL     1       0.180  -9.967   9.055  0.00  0.00    -0.284 N 
ATOM      5  H   UNL     1       0.126 -10.825   8.607  0.00  0.00    +0.155 HD
BRANCH   4   6
ATOM      6  C   UNL     1       0.288  -9.910  10.451  0.00  0.00    +0.047 A 
ATOM      7  C   UNL     1      -0.320  -8.881  11.154  0.00  0.00    +0.024 A 
ATOM      8  C   UNL     1      -0.212  -8.827  12.531  0.00  0.00    +0.002 A 
ATOM      9  C   UNL     1       0.501  -9.797  13.213  0.00  0.00    +0.001 A 
ATOM     10  C   UNL     1       1.109 -10.826  12.520  0.00  0.00    +0.016 A 
ATOM     11  C   UNL     1       1.002 -10.892  11.138  0.00  0.00    +0.029 A 
BRANCH  11  12
ATOM     12  S   UNL     1       1.771 -12.207  10.253  0.00  0.00    -0.119 S 
BRANCH  12  13
ATOM     13  C   UNL     1       2.558 -13.205  11.547  0.00  0.00    +0.109 C 
BRANCH  13  14
ATOM     14  C   UNL     1       3.262 -14.380  10.917  0.00  0.00    -0.037 A 
ATOM     15  C   UNL     1       2.585 -15.570  10.727  0.00  0.00    +0.007 A 
ATOM     16  C   UNL     1       3.229 -16.647  10.149  0.00  0.00    +0.038 A 
ATOM     17  C   UNL     1       4.553 -16.535   9.761  0.00  0.00    +0.123 A 
ATOM     18  C   UNL     1       5.231 -15.342   9.952  0.00  0.00    +0.038 A 
ATOM     19  C   UNL     1       4.583 -14.264  10.525  0.00  0.00    +0.007 A 
ATOM     20  F   UNL     1       5.184 -17.587   9.196  0.00  0.00    -0.205 F 
ENDBRANCH  13  14
ENDBRANCH  12  13
ENDBRANCH  11  12
ENDBRANCH   4   6
ENDBRANCH   1   2
BRANCH   1  21
ATOM     21  S   UNL     1       0.097  -7.205   6.156  0.00  0.00    -0.075 S 
BRANCH  21  25
ATOM     22  N   UNL     1       0.028  -6.302   1.093  0.00  0.00    -0.205 N 
ATOM     23  C   UNL     1       0.053  -7.000   2.287  0.00  0.00    +0.232 A 
ATOM     24  N   UNL     1       0.056  -6.472   3.493  0.00  0.00    -0.186 NA
ATOM     25  C   UNL     1       0.084  -7.444   4.410  0.00  0.00    +0.211 A 
ATOM     26  N   UNL     1       0.100  -8.605   3.800  0.00  0.00    -0.144 NA
ATOM     27  N   UNL     1       0.074  -8.343   2.420  0.00  0.00    -0.245 N 
ATOM     28  H   UNL     1       0.024  -6.782   0.251  0.00  0.00    +0.177 HD
ATOM     29  H   UNL     1       0.074  -8.998   1.705  0.00  0.00    +0.192 HD
BRANCH  22  31
ATOM     30  C   UNL     1      -0.016  -4.245  -0.019  0.00  0.00    +0.138 C 
ATOM     31  N   UNL     1       0.008  -4.901   1.102  0.00  0.00    -0.188 NA
BRANCH  30  36
ATOM     32  C   UNL     1      -0.099   1.505   0.015  0.00  0.00    +0.044 C 
ATOM     33  C   UNL     1      -0.078  -0.002   0.006  0.00  0.00    -0.050 A 
ATOM     34  C   UNL     1      -0.083  -0.683  -1.198  0.00  0.00    +0.004 A 
ATOM     35  C   UNL     1      -0.063  -2.062  -1.214  0.00  0.00    +0.010 A 
ATOM     36  C   UNL     1      -0.037  -2.771  -0.010  0.00  0.00    -0.005 A 
ATOM     37  C   UNL     1      -0.032  -2.076   1.202  0.00  0.00    +0.010 A 
ATOM     38  C   UNL     1      -0.047  -0.697   1.202  0.00  0.00    +0.004 A 
ENDBRANCH  30  36
ENDBRANCH  22  31
ENDBRANCH  21  25
ENDBRANCH   1  21
TORSDOF 9
