REMARK  Name = ZINC09286881
REMARK  11 active torsions:
REMARK  status: ('A' for Active; 'I' for Inactive)
REMARK    1  A    between atoms: C_1  and  C_2
REMARK    2  A    between atoms: N_5  and  S_11
REMARK    3  A    between atoms: C_7  and  C_10
REMARK    4  A    between atoms: S_11  and  C_14
REMARK    5  A    between atoms: C_18  and  C_20
REMARK    6  A    between atoms: N_24  and  N_25
REMARK    7  A    between atoms: C_26  and  C_27
REMARK    8  A    between atoms: C_30  and  O_35
REMARK    9  A    between atoms: C_32  and  O_33
REMARK   10  A    between atoms: O_33  and  C_34
REMARK   11  A    between atoms: O_35  and  C_36
REMARK                            x       y       z     vdW  Elec       q    Type
REMARK                         _______ _______ _______ _____ _____    ______ ____
ROOT
ATOM      1  C   UNL     1       1.025   1.939   0.003  0.00  0.00    +0.055 A 
ATOM      2  C   UNL     1      -0.013   1.076   0.008  0.00  0.00    +0.075 A 
ATOM      3  S   UNL     1      -1.416   2.179   0.019  0.00  0.00    -0.056 S 
ATOM      4  C   UNL     1      -0.517   3.723   0.026  0.00  0.00    +0.192 A 
ATOM      5  N   UNL     1      -0.983   4.961   0.037  0.00  0.00    -0.124 NA
ATOM      6  N   UNL     1       0.786   3.284   0.012  0.00  0.00    -0.332 N 
ATOM      7  H   UNL     1       1.520   3.918   0.008  0.00  0.00    +0.168 HD
ENDROOT
BRANCH   1  12
ATOM      8  C   UNL     1       3.956  -0.410  -0.036  0.00  0.00    +0.106 A 
ATOM      9  C   UNL     1       5.015   0.480  -0.040  0.00  0.00    +0.028 A 
ATOM     10  C   UNL     1       4.780   1.843  -0.031  0.00  0.00    +0.003 A 
ATOM     11  C   UNL     1       3.487   2.324  -0.023  0.00  0.00    +0.010 A 
ATOM     12  C   UNL     1       2.414   1.431  -0.012  0.00  0.00    +0.001 A 
ATOM     13  C   UNL     1       2.658   0.057  -0.022  0.00  0.00    +0.038 A 
BRANCH   8  14
ATOM     14  S   UNL     1       4.266  -2.145  -0.047  0.00  0.00    +0.061 S 
ATOM     15  O   UNL     1       5.568  -2.329   0.491  0.00  0.00    -0.153 OA
ATOM     16  O   UNL     1       3.116  -2.767   0.510  0.00  0.00    -0.153 OA
BRANCH  14  20
ATOM     17  C   UNL     1       7.007  -3.941  -3.964  0.00  0.00    +0.039 C 
ATOM     18  C   UNL     1       5.790  -3.980  -3.039  0.00  0.00    +0.131 C 
ATOM     19  C   UNL     1       5.613  -2.614  -2.368  0.00  0.00    +0.140 C 
ATOM     20  N   UNL     1       4.338  -2.619  -1.633  0.00  0.00    -0.172 NA
ATOM     21  C   UNL     1       3.130  -3.063  -2.346  0.00  0.00    +0.140 C 
ATOM     22  C   UNL     1       3.427  -4.403  -3.020  0.00  0.00    +0.131 C 
ATOM     23  O   UNL     1       4.619  -4.286  -3.800  0.00  0.00    -0.371 OA
ATOM     24  C   UNL     1       2.258  -4.791  -3.927  0.00  0.00    +0.039 C 
ENDBRANCH  14  20
ENDBRANCH   8  14
ENDBRANCH   1  12
BRANCH   5  25
ATOM     25  N   UNL     1      -2.256   5.172   0.050  0.00  0.00    -0.154 NA
ATOM     26  C   UNL     1      -2.715   6.395   0.060  0.00  0.00    +0.146 C 
BRANCH  26  27
ATOM     27  C   UNL     1      -4.166   6.635   0.075  0.00  0.00    +0.037 A 
ATOM     28  C   UNL     1      -4.661   7.943   0.092  0.00  0.00    +0.016 A 
ATOM     29  C   UNL     1      -6.022   8.163   0.100  0.00  0.00    +0.046 A 
ATOM     30  C   UNL     1      -6.904   7.089   0.103  0.00  0.00    +0.124 A 
ATOM     31  C   UNL     1      -6.423   5.788   0.091  0.00  0.00    +0.091 A 
ATOM     32  C   UNL     1      -5.059   5.553   0.078  0.00  0.00    +0.132 A 
BRANCH  32  33
ATOM     33  O   UNL     1      -4.587   4.279   0.067  0.00  0.00    -0.494 OA
ATOM     34  C   UNL     1      -5.556   3.228   0.071  0.00  0.00    +0.277 C 
ENDBRANCH  32  33
BRANCH  30  35
ATOM     35  O   UNL     1      -8.244   7.315   0.117  0.00  0.00    -0.495 OA
ATOM     36  C   UNL     1      -8.672   8.678   0.128  0.00  0.00    +0.277 C 
ENDBRANCH  30  35
ENDBRANCH  26  27
ENDBRANCH   5  25
TORSDOF 7
