REMARK  Name = ZINC03137447
REMARK  6 active torsions:
REMARK  status: ('A' for Active; 'I' for Inactive)
REMARK    1  A    between atoms: C_6  and  C_8
REMARK    2  A    between atoms: C_6  and  N_12
REMARK    3  A    between atoms: C_6  and  N_45
REMARK    4  A    between atoms: N_15  and  C_16
REMARK    5  A    between atoms: C_16  and  C_18
REMARK    6  A    between atoms: C_16  and  N_47
REMARK                            x       y       z     vdW  Elec       q    Type
REMARK                         _______ _______ _______ _____ _____    ______ ____
ROOT
ATOM      1  N   UNL     1       0.383  -0.067  -0.608  0.00  0.00    -0.309 N 
ATOM      2  C   UNL     1       1.122   1.044  -0.425  0.00  0.00    +0.297 C 
ATOM      3  O   UNL     1       0.582   2.133  -0.383  0.00  0.00    -0.253 OA
ATOM      4  N   UNL     1       2.459   0.949  -0.287  0.00  0.00    -0.309 N 
ATOM      5  H   UNL     1       0.813  -0.936  -0.642  0.00  0.00    +0.148 HD
ATOM      6  H   UNL     1       2.890   0.081  -0.321  0.00  0.00    +0.148 HD
ENDROOT
BRANCH   1   7
ATOM      7  C   UNL     1      -1.071   0.037  -0.763  0.00  0.00    +0.072 C 
BRANCH   7  13
ATOM      8  C   UNL     1      -0.507   0.572  -3.057  0.00  0.00    -0.047 C 
ATOM      9  C   UNL     1      -0.878   0.293  -4.516  0.00  0.00    +0.141 C 
ATOM     10  O   UNL     1      -2.243   0.659  -4.735  0.00  0.00    -0.383 OA
ATOM     11  C   UNL     1      -3.167  -0.034  -3.892  0.00  0.00    +0.141 C 
ATOM     12  C   UNL     1      -2.819   0.242  -2.427  0.00  0.00    -0.047 C 
ATOM     13  N   UNL     1      -1.426  -0.185  -2.182  0.00  0.00    +0.398 N 
ATOM     14  H   UNL     1      -1.341  -1.186  -2.394  0.00  0.00    -0.079 HD
ENDBRANCH   7  13
BRANCH   7  15
ATOM     15  C   UNL     1      -1.752  -1.036   0.089  0.00  0.00    +0.194 C 
ATOM     16 CL   UNL     1      -1.131  -0.946   1.779  0.00  0.00    -0.084 Cl
ATOM     17 CL   UNL     1      -3.534  -0.761   0.088  0.00  0.00    -0.084 Cl
ATOM     18 CL   UNL     1      -1.395  -2.665  -0.597  0.00  0.00    -0.084 Cl
ENDBRANCH   7  15
ENDBRANCH   1   7
BRANCH   4  19
ATOM     19  C   UNL     1       3.263   2.158  -0.088  0.00  0.00    +0.072 C 
BRANCH  19  25
ATOM     20  C   UNL     1       3.062   3.083  -2.317  0.00  0.00    -0.047 C 
ATOM     21  C   UNL     1       3.853   3.462  -3.572  0.00  0.00    +0.141 C 
ATOM     22  O   UNL     1       4.514   2.300  -4.081  0.00  0.00    -0.383 OA
ATOM     23  C   UNL     1       5.410   1.692  -3.148  0.00  0.00    +0.141 C 
ATOM     24  C   UNL     1       4.634   1.295  -1.889  0.00  0.00    -0.047 C 
ATOM     25  N   UNL     1       3.993   2.503  -1.327  0.00  0.00    +0.398 N 
ATOM     26  H   UNL     1       4.718   3.195  -1.105  0.00  0.00    -0.079 HD
ENDBRANCH  19  25
BRANCH  19  27
ATOM     27  C   UNL     1       4.278   1.916   1.031  0.00  0.00    +0.194 C 
ATOM     28 CL   UNL     1       5.206   0.410   0.685  0.00  0.00    -0.084 Cl
ATOM     29 CL   UNL     1       5.414   3.314   1.124  0.00  0.00    -0.084 Cl
ATOM     30 CL   UNL     1       3.411   1.741   2.602  0.00  0.00    -0.084 Cl
ENDBRANCH  19  27
ENDBRANCH   4  19
TORSDOF 6
