REMARK  Name = ZINC44982935
REMARK  3 active torsions:
REMARK  status: ('A' for Active; 'I' for Inactive)
REMARK    1  A    between atoms: C_1  and  C_2
REMARK    2  A    between atoms: C_5  and  C_8
REMARK    3  A    between atoms: C_10  and  C_13
REMARK                            x       y       z     vdW  Elec       q    Type
REMARK                         _______ _______ _______ _____ _____    ______ ____
ROOT
ATOM      1  C   UNL     1       1.499  -4.041  -0.034  0.00  0.00    +0.175 A 
ATOM      2  N   UNL     1       2.597  -4.800  -0.043  0.00  0.00    -0.191 NA
ATOM      3  C   UNL     1       2.264  -6.072  -0.049  0.00  0.00    +0.261 A 
ATOM      4  O   UNL     1       0.921  -6.149  -0.043  0.00  0.00    -0.333 OA
ATOM      5  N   UNL     1       0.448  -4.811  -0.028  0.00  0.00    -0.061 NA
ENDROOT
BRANCH   3   6
ATOM      6  C   UNL     1       3.199  -7.214  -0.060  0.00  0.00    +0.071 C 
ATOM      7  C   UNL     1       2.731  -8.448  -0.069  0.00  0.00    -0.041 C 
ATOM      8  C   UNL     1       3.775  -9.529  -0.392  0.00  0.00    +0.079 C 
ATOM      9  S   UNL     1       5.343  -8.621  -0.172  0.00  0.00    -0.098 S 
ATOM     10  C   UNL     1       4.660  -6.972  -0.066  0.00  0.00    +0.101 C 
ATOM     11  N   UNL     1       5.294  -5.834  -0.006  0.00  0.00    -0.292 NA
ATOM     12  C   UNL     1       3.521 -10.550   0.728  0.00  0.00    +0.019 C 
ATOM     13  C   UNL     1       1.970 -10.627   0.743  0.00  0.00    +0.006 C 
ATOM     14  C   UNL     1       1.478  -9.295   0.133  0.00  0.00    +0.033 C 
ATOM     15  H   UNL     1       6.264  -5.818  -0.019  0.00  0.00    +0.187 HD
ENDBRANCH   3   6
BRANCH   1  20
ATOM     16  C   UNL     1      -0.019   1.526   0.010  0.00  0.00    +0.007 C 
ATOM     17  C   UNL     1       0.002  -0.004   0.002  0.00  0.00    -0.014 C 
ATOM     18  C   UNL     1       0.718  -0.497  -1.257  0.00  0.00    +0.004 C 
ATOM     19  C   UNL     1       0.739  -2.027  -1.265  0.00  0.00    +0.011 C 
ATOM     20  C   UNL     1       1.479  -2.534  -0.026  0.00  0.00    +0.060 C 
ATOM     21  C   UNL     1       0.763  -2.041   1.233  0.00  0.00    +0.011 C 
ATOM     22  C   UNL     1       0.742  -0.511   1.242  0.00  0.00    +0.004 C 
ENDBRANCH   1  20
TORSDOF 2
