REMARK  Name = ZINC39676389
REMARK  5 active torsions:
REMARK  status: ('A' for Active; 'I' for Inactive)
REMARK    1  A    between atoms: C_4  and  C_8
REMARK    2  A    between atoms: C_12  and  C_21
REMARK    3  A    between atoms: N_23  and  C_24
REMARK    4  A    between atoms: C_24  and  C_25
REMARK    5  A    between atoms: C_25  and  C_26
REMARK                            x       y       z     vdW  Elec       q    Type
REMARK                         _______ _______ _______ _____ _____    ______ ____
ROOT
ATOM      1  C   UNL     1       3.400  -0.651  -0.169  0.00  0.00    +0.252 C 
ATOM      2  O   UNL     1       3.845  -0.939   0.925  0.00  0.00    -0.270 OA
ATOM      3  N   UNL     1       4.082  -0.983  -1.283  0.00  0.00    -0.296 N 
ATOM      4  C   UNL     1       3.708  -0.713  -2.692  0.00  0.00    +0.121 C 
ATOM      5  C   UNL     1       5.038  -0.339  -3.384  0.00  0.00    +0.100 C 
ATOM      6  C   UNL     1       6.128  -0.990  -2.518  0.00  0.00    -0.004 C 
ATOM      7  C   UNL     1       5.380  -1.694  -1.376  0.00  0.00    +0.115 C 
ATOM      8  C   UNL     1       7.060   0.077  -1.950  0.00  0.00    -0.010 C 
ATOM      9  C   UNL     1       8.169  -0.599  -1.140  0.00  0.00    -0.082 C 
ATOM     10  N   UNL     1       8.917  -1.521  -2.004  0.00  0.00    +0.379 N 
ATOM     11  C   UNL     1       8.034  -2.597  -2.470  0.00  0.00    -0.082 C 
ATOM     12  C   UNL     1       6.919  -2.006  -3.337  0.00  0.00    -0.010 C 
ATOM     13  H   UNL     1       9.278  -1.016  -2.799  0.00  0.00    -0.086 HD
ATOM     14  H   UNL     1       9.684  -1.920  -1.484  0.00  0.00    -0.086 HD
ENDROOT
BRANCH   1  18
ATOM     15  C   UNL     1      -0.306   1.403  -0.481  0.00  0.00    +0.006 A 
ATOM     16  C   UNL     1       0.872   2.121  -0.389  0.00  0.00    +0.039 A 
ATOM     17  C   UNL     1       2.083   1.461  -0.287  0.00  0.00    +0.138 A 
ATOM     18  C   UNL     1       2.113   0.062  -0.277  0.00  0.00    +0.107 A 
ATOM     19  C   UNL     1       0.916  -0.656  -0.371  0.00  0.00    +0.138 A 
ATOM     20  C   UNL     1      -0.285   0.020  -0.472  0.00  0.00    +0.039 A 
ATOM     21  F   UNL     1       0.935  -2.007  -0.363  0.00  0.00    -0.205 F 
ATOM     22  F   UNL     1       3.232   2.164  -0.197  0.00  0.00    -0.205 F 
ENDBRANCH   1  18
BRANCH   5  23
ATOM     23  C   UNL     1       5.211   1.158  -3.413  0.00  0.00    +0.218 C 
ATOM     24  O   UNL     1       4.735   1.841  -2.530  0.00  0.00    -0.275 OA
ATOM     25  N   UNL     1       5.895   1.738  -4.419  0.00  0.00    -0.315 N 
ATOM     26  H   UNL     1       6.275   1.192  -5.125  0.00  0.00    +0.149 HD
BRANCH  25  27
ATOM     27  C   UNL     1       6.063   3.193  -4.447  0.00  0.00    +0.109 C 
BRANCH  27  28
ATOM     28  C   UNL     1       6.871   3.589  -5.684  0.00  0.00    +0.056 C 
BRANCH  28  29
ATOM     29  C   UNL     1       7.045   5.086  -5.713  0.00  0.00    -0.021 A 
ATOM     30  C   UNL     1       8.085   5.856  -5.026  0.00  0.00    +0.004 A 
ATOM     31  C   UNL     1       9.158   5.515  -4.201  0.00  0.00    +0.030 A 
ATOM     32  C   UNL     1       9.975   6.505  -3.702  0.00  0.00    +0.042 A 
ATOM     33  C   UNL     1       9.736   7.837  -4.017  0.00  0.00    +0.022 A 
ATOM     34  C   UNL     1       8.682   8.189  -4.830  0.00  0.00    +0.027 A 
ATOM     35  C   UNL     1       7.844   7.205  -5.345  0.00  0.00    +0.047 A 
ATOM     36  N   UNL     1       6.737   7.237  -6.164  0.00  0.00    -0.360 N 
ATOM     37  C   UNL     1       6.279   5.966  -6.377  0.00  0.00    +0.087 A 
ATOM     38 CL   UNL     1      11.311   6.087  -2.675  0.00  0.00    -0.084 Cl
ATOM     39  H   UNL     1       6.344   8.041  -6.537  0.00  0.00    +0.165 HD
ENDBRANCH  28  29
ENDBRANCH  27  28
ENDBRANCH  25  27
ENDBRANCH   5  23
TORSDOF 5
