REMARK  Name = ZINC04758313
REMARK  13 active torsions:
REMARK  status: ('A' for Active; 'I' for Inactive)
REMARK    1  A    between atoms: C_1  and  O_2
REMARK    2  A    between atoms: O_2  and  C_3
REMARK    3  A    between atoms: C_5  and  O_31
REMARK    4  A    between atoms: C_7  and  O_23
REMARK    5  A    between atoms: C_9  and  N_67
REMARK    6  A    between atoms: C_11  and  C_14
REMARK    7  A    between atoms: C_14  and  O_15
REMARK    8  A    between atoms: O_15  and  C_16
REMARK    9  A    between atoms: C_16  and  C_17
REMARK   10  A    between atoms: O_23  and  C_24
REMARK   11  A    between atoms: C_24  and  C_25
REMARK   12  A    between atoms: O_31  and  C_32
REMARK   13  A    between atoms: C_32  and  C_33
REMARK                            x       y       z     vdW  Elec       q    Type
REMARK                         _______ _______ _______ _____ _____    ______ ____
ROOT
ATOM      1  C   UNL     1      -0.008  -0.508  -1.444  0.00  0.00    +0.281 C 
ATOM      2  C   UNL     1       0.002  -0.004   0.002  0.00  0.00    +0.201 C 
ATOM      3  C   UNL     1      -1.236  -0.537   0.730  0.00  0.00    +0.140 C 
ATOM      4  C   UNL     1      -1.244  -2.066   0.648  0.00  0.00    -0.011 C 
ATOM      5  C   UNL     1      -1.208  -2.490  -0.823  0.00  0.00    +0.135 C 
ATOM      6  O   UNL     1      -0.049  -1.936  -1.448  0.00  0.00    -0.345 OA
ENDROOT
BRANCH   4   9
ATOM      7  H   UNL     1      -0.050  -3.610   1.303  0.00  0.00    -0.089 HD
ATOM      8  H   UNL     1       0.784  -2.211   0.969  0.00  0.00    -0.089 HD
ATOM      9  N   UNL     1      -0.071  -2.594   1.367  0.00  0.00    +0.383 N 
ATOM     10  H   UNL     1      -0.132  -2.322   2.356  0.00  0.00    -0.089 HD
ENDBRANCH   4   9
BRANCH   1  12
ATOM     11  C   UNL     1      -1.207  -0.317  -3.510  0.00  0.00    +0.197 C 
ATOM     12  O   UNL     1      -1.160   0.003  -2.118  0.00  0.00    -0.352 OA
ENDBRANCH   1  12
BRANCH   5  13
ATOM     13  C   UNL     1      -1.155  -4.017  -0.912  0.00  0.00    +0.190 C 
BRANCH  13  14
ATOM     14  O   UNL     1      -1.239  -4.417  -2.282  0.00  0.00    -0.373 OA
BRANCH  14  15
ATOM     15  C   UNL     1      -1.198  -5.832  -2.478  0.00  0.00    +0.195 C 
BRANCH  15  16
ATOM     16  C   UNL     1      -1.293  -6.138  -3.950  0.00  0.00    -0.022 A 
ATOM     17  C   UNL     1      -2.529  -6.330  -4.538  0.00  0.00    +0.006 A 
ATOM     18  C   UNL     1      -2.616  -6.606  -5.890  0.00  0.00    +0.000 A 
ATOM     19  C   UNL     1      -1.466  -6.701  -6.651  0.00  0.00    +0.000 A 
ATOM     20  C   UNL     1      -0.229  -6.514  -6.062  0.00  0.00    +0.000 A 
ATOM     21  C   UNL     1      -0.143  -6.233  -4.711  0.00  0.00    +0.006 A 
ENDBRANCH  15  16
ENDBRANCH  14  15
ENDBRANCH  13  14
ENDBRANCH   5  13
BRANCH   3  22
ATOM     22  O   UNL     1      -1.197  -0.130   2.100  0.00  0.00    -0.371 OA
BRANCH  22  23
ATOM     23  C   UNL     1      -1.830   1.126   2.351  0.00  0.00    +0.195 C 
BRANCH  23  24
ATOM     24  C   UNL     1      -1.730   1.454   3.819  0.00  0.00    -0.022 A 
ATOM     25  C   UNL     1      -2.725   1.046   4.688  0.00  0.00    +0.006 A 
ATOM     26  C   UNL     1      -2.631   1.343   6.034  0.00  0.00    +0.000 A 
ATOM     27  C   UNL     1      -1.546   2.055   6.511  0.00  0.00    +0.000 A 
ATOM     28  C   UNL     1      -0.553   2.467   5.641  0.00  0.00    +0.000 A 
ATOM     29  C   UNL     1      -0.645   2.167   4.295  0.00  0.00    +0.006 A 
ENDBRANCH  23  24
ENDBRANCH  22  23
ENDBRANCH   3  22
BRANCH   2  30
ATOM     30  O   UNL     1      -0.017   1.425   0.010  0.00  0.00    -0.364 OA
BRANCH  30  31
ATOM     31  C   UNL     1       1.280   2.024   0.001  0.00  0.00    +0.195 C 
BRANCH  31  32
ATOM     32  C   UNL     1       1.141   3.524   0.010  0.00  0.00    -0.022 A 
ATOM     33  C   UNL     1       1.071   4.219  -1.183  0.00  0.00    +0.006 A 
ATOM     34  C   UNL     1       0.939   5.595  -1.174  0.00  0.00    +0.000 A 
ATOM     35  C   UNL     1       0.885   6.277   0.027  0.00  0.00    +0.000 A 
ATOM     36  C   UNL     1       0.960   5.582   1.220  0.00  0.00    +0.000 A 
ATOM     37  C   UNL     1       1.088   4.206   1.212  0.00  0.00    +0.006 A 
ENDBRANCH  31  32
ENDBRANCH  30  31
ENDBRANCH   2  30
TORSDOF 12
