REMARK  Name = ZINC39432224
REMARK  7 active torsions:
REMARK  status: ('A' for Active; 'I' for Inactive)
REMARK    1  A    between atoms: C_1  and  C_2
REMARK    2  A    between atoms: C_7  and  C_12
REMARK    3  A    between atoms: C_12  and  C_24
REMARK    4  A    between atoms: C_13  and  C_14
REMARK    5  A    between atoms: C_18  and  O_21
REMARK    6  A    between atoms: C_19  and  O_20
REMARK    7  A    between atoms: O_21  and  C_22
REMARK                            x       y       z     vdW  Elec       q    Type
REMARK                         _______ _______ _______ _____ _____    ______ ____
ROOT
ATOM      1  C   UNL     1      -1.163  -5.202   1.814  0.00  0.00    +0.072 C 
ATOM      2  C   UNL     1      -1.020  -6.294   2.595  0.00  0.00    +0.030 C 
ENDROOT
BRANCH   1   9
ATOM      3  C   UNL     1      -0.240   1.220  -0.782  0.00  0.00    +0.044 C 
ATOM      4  C   UNL     1      -0.128  -0.273  -0.612  0.00  0.00    -0.048 A 
ATOM      5  C   UNL     1       0.040  -1.072  -1.756  0.00  0.00    +0.005 A 
ATOM      6  C   UNL     1       0.148  -2.415  -1.696  0.00  0.00    +0.027 A 
ATOM      7  C   UNL     1       0.093  -3.089  -0.392  0.00  0.00    +0.060 A 
ATOM      8  N   UNL     1       0.168  -4.339  -0.037  0.00  0.00    -0.359 N 
ATOM      9  C   UNL     1       0.046  -4.391   1.425  0.00  0.00    +0.216 C 
ATOM     10  N   UNL     1      -0.111  -3.002   1.877  0.00  0.00    -0.359 N 
ATOM     11  C   UNL     1      -0.084  -2.243   0.820  0.00  0.00    +0.061 A 
ATOM     12  C   UNL     1      -0.186  -0.789   0.632  0.00  0.00    +0.030 A 
ATOM     13  H   UNL     1       0.283  -5.098  -0.631  0.00  0.00    +0.162 HD
ATOM     14  H   UNL     1      -0.215  -2.706   2.794  0.00  0.00    +0.162 HD
ENDBRANCH   1   9
BRANCH   2  15
ATOM     15  C   UNL     1      -2.208  -6.998   3.099  0.00  0.00    +0.022 A 
ATOM     16  C   UNL     1      -3.372  -6.284   3.405  0.00  0.00    +0.027 A 
ATOM     17  C   UNL     1      -4.483  -6.949   3.876  0.00  0.00    +0.022 A 
ATOM     18  C   UNL     1      -4.455  -8.325   4.049  0.00  0.00    +0.064 A 
ATOM     19  C   UNL     1      -3.310  -9.045   3.750  0.00  0.00    +0.163 A 
ATOM     20  C   UNL     1      -2.182  -8.390   3.269  0.00  0.00    +0.166 A 
ATOM     21 BR   UNL     1      -6.054  -5.981   4.290  0.00  0.00    -0.050 Br
BRANCH  20  22
ATOM     22  O   UNL     1      -1.060  -9.094   2.970  0.00  0.00    -0.503 OA
ATOM     23  H   UNL     1      -0.447  -9.191   3.712  0.00  0.00    +0.292 HD
ENDBRANCH  20  22
BRANCH  19  24
ATOM     24  O   UNL     1      -3.291 -10.393   3.923  0.00  0.00    -0.491 OA
ATOM     25  C   UNL     1      -4.487 -11.001   4.416  0.00  0.00    +0.277 C 
ENDBRANCH  19  24
ENDBRANCH   2  15
BRANCH   1  26
ATOM     26  C   UNL     1      -2.463  -4.816   1.356  0.00  0.00    +0.099 C 
ATOM     27  N   UNL     1      -3.494  -4.509   0.992  0.00  0.00    -0.191 NA
ENDBRANCH   1  26
TORSDOF 5
