REMARK  Name = ZINC00174272
REMARK  2 active torsions:
REMARK  status: ('A' for Active; 'I' for Inactive)
REMARK    1  A    between atoms: C_4  and  C_8
REMARK    2  A    between atoms: N_9  and  N_10
REMARK                            x       y       z     vdW  Elec       q    Type
REMARK                         _______ _______ _______ _____ _____    ______ ____
ROOT
ATOM      1  N   UNL     1       5.089   0.378  -0.043  0.00  0.00    -0.248 N 
ATOM      2  C   UNL     1       3.813  -0.138  -0.034  0.00  0.00    +0.196 C 
ATOM      3  H   UNL     1       4.333  -2.107  -0.049  0.00  0.00    +0.159 HD
ATOM      4  N   UNL     1       2.727   0.710  -0.020  0.00  0.00    -0.296 N 
ATOM      5  C   UNL     1       1.440   0.189  -0.011  0.00  0.00    +0.229 A 
ATOM      6  N   UNL     1       1.099  -1.132  -0.015  0.00  0.00    -0.314 N 
ATOM      7  H   UNL     1       1.702  -1.892  -0.025  0.00  0.00    +0.170 HD
ATOM      8  C   UNL     1      -0.266  -1.163  -0.002  0.00  0.00    +0.223 A 
ATOM      9  N   UNL     1      -0.682   0.072   0.009  0.00  0.00    -0.136 NA
ATOM     10  N   UNL     1       0.322   0.874   0.004  0.00  0.00    -0.111 NA
ATOM     11  H   UNL     1       5.224   1.339  -0.040  0.00  0.00    +0.192 HD
ATOM     12  H   UNL     1       2.862   1.670  -0.016  0.00  0.00    +0.172 HD
ATOM     13  N   UNL     1       3.562  -1.439  -0.039  0.00  0.00    -0.370 N 
ATOM     14  H   UNL     1       2.592  -1.775  -0.032  0.00  0.00    +0.159 HD
ENDROOT
BRANCH   1  16
ATOM     15  C   UNL     1       7.396   0.003  -0.067  0.00  0.00    +0.143 C 
ATOM     16  N   UNL     1       6.194  -0.484  -0.058  0.00  0.00    -0.179 NA
BRANCH  15  20
ATOM     17  C   UNL     1      10.743  -2.610  -0.111  0.00  0.00    +0.003 A 
ATOM     18  C   UNL     1      10.939  -1.240  -0.106  0.00  0.00    +0.021 A 
ATOM     19  C   UNL     1       9.856  -0.384  -0.091  0.00  0.00    +0.051 A 
ATOM     20  C   UNL     1       8.559  -0.904  -0.082  0.00  0.00    +0.031 A 
ATOM     21  C   UNL     1       8.369  -2.289  -0.082  0.00  0.00    +0.051 A 
ATOM     22  C   UNL     1       9.462  -3.132  -0.102  0.00  0.00    +0.021 A 
ATOM     23 CL   UNL     1       6.763  -2.948  -0.063  0.00  0.00    -0.083 Cl
ATOM     24 CL   UNL     1      10.104   1.334  -0.084  0.00  0.00    -0.083 Cl
ENDBRANCH  15  20
ENDBRANCH   1  16
TORSDOF 2
