REMARK  Name = ZINC08920831
REMARK  10 active torsions:
REMARK  status: ('A' for Active; 'I' for Inactive)
REMARK    1  A    between atoms: C_1  and  C_2
REMARK    2  A    between atoms: C_2  and  C_3
REMARK    3  A    between atoms: C_3  and  C_4
REMARK    4  A    between atoms: C_3  and  C_5
REMARK    5  A    between atoms: C_3  and  C_6
REMARK    6  A    between atoms: C_15  and  O_30
REMARK    7  A    between atoms: C_17  and  C_20
REMARK    8  A    between atoms: C_22  and  O_28
REMARK    9  A    between atoms: C_23  and  O_27
REMARK   10  A    between atoms: O_28  and  C_29
REMARK                            x       y       z     vdW  Elec       q    Type
REMARK                         _______ _______ _______ _____ _____    ______ ____
ROOT
ATOM      1  C   UNL     1       5.469   1.176  -7.040  0.00  0.00    -0.000 C 
ATOM      2  C   UNL     1       5.656  -0.246  -6.503  0.00  0.00    +0.009 C 
ATOM      3  C   UNL     1       4.988  -0.377  -5.133  0.00  0.00    +0.037 C 
ATOM      4  C   UNL     1       5.496   0.740  -4.230  0.00  0.00    -0.023 A 
ATOM      5  C   UNL     1       6.086   1.840  -4.753  0.00  0.00    -0.004 A 
ATOM      6  S   UNL     1       6.510   2.840  -3.351  0.00  0.00    -0.078 S 
ATOM      7  C   UNL     1       5.920   1.821  -2.109  0.00  0.00    +0.080 A 
ATOM      8  C   UNL     1       5.392   0.713  -2.781  0.00  0.00    +0.068 A 
ATOM      9  C   UNL     1       4.785  -0.360  -1.953  0.00  0.00    +0.220 C 
ATOM     10  N   UNL     1       4.602  -0.118  -0.684  0.00  0.00    -0.223 NA
ATOM     11  C   UNL     1       4.856   1.163  -0.037  0.00  0.00    +0.224 C 
ATOM     12  N   UNL     1       5.901   1.931  -0.740  0.00  0.00    -0.313 N 
ATOM     13  C   UNL     1       6.325   2.136  -6.200  0.00  0.00    +0.046 C 
ATOM     14  H   UNL     1       6.538   2.483  -0.261  0.00  0.00    +0.149 HD
ENDROOT
BRANCH  11  15
ATOM     15  C   UNL     1       3.582   1.967  -0.021  0.00  0.00    -0.000 A 
ATOM     16  C   UNL     1       2.359   1.321  -0.013  0.00  0.00    +0.056 A 
ATOM     17  C   UNL     1       1.186   2.059   0.002  0.00  0.00    +0.163 A 
ATOM     18  C   UNL     1       1.241   3.449   0.003  0.00  0.00    +0.177 A 
ATOM     19  C   UNL     1       2.470   4.090   0.001  0.00  0.00    +0.086 A 
ATOM     20  C   UNL     1       3.638   3.348  -0.014  0.00  0.00    +0.031 A 
ATOM     21 CL   UNL     1       2.545   5.825   0.011  0.00  0.00    -0.080 Cl
BRANCH  18  22
ATOM     22  O   UNL     1       0.092   4.177   0.012  0.00  0.00    -0.502 OA
ATOM     23  H   UNL     1      -0.233   4.387   0.898  0.00  0.00    +0.292 HD
ENDBRANCH  18  22
BRANCH  17  24
ATOM     24  O   UNL     1      -0.017   1.425   0.010  0.00  0.00    -0.491 OA
ATOM     25  C   UNL     1       0.002  -0.004   0.002  0.00  0.00    +0.277 C 
ENDBRANCH  17  24
ENDBRANCH  11  15
BRANCH   1  26
ATOM     26  C   UNL     1       5.916   1.235  -8.502  0.00  0.00    -0.032 C 
ATOM     27  C   UNL     1       7.391   0.844  -8.601  0.00  0.00    +0.011 C 
ATOM     28  C   UNL     1       5.074   0.264  -9.332  0.00  0.00    +0.011 C 
BRANCH  26  30
ATOM     29  C   UNL     1       6.175   2.716 -10.497  0.00  0.00    +0.004 C 
ATOM     30  C   UNL     1       5.728   2.657  -9.035  0.00  0.00    +0.003 C 
ENDBRANCH  26  30
ENDBRANCH   1  26
BRANCH   9  31
ATOM     31  O   UNL     1       4.433  -1.549  -2.496  0.00  0.00    -0.492 OA
ATOM     32  H   UNL     1       4.048  -2.171  -1.864  0.00  0.00    +0.294 HD
ENDBRANCH   9  31
TORSDOF 6
