REMARK  Name = ZINC39687455
REMARK  8 active torsions:
REMARK  status: ('A' for Active; 'I' for Inactive)
REMARK    1  A    between atoms: C_1  and  C_2
REMARK    2  A    between atoms: C_2  and  C_3
REMARK    3  A    between atoms: C_3  and  C_4
REMARK    4  A    between atoms: C_4  and  C_5
REMARK    5  A    between atoms: C_5  and  C_6
REMARK    6  A    between atoms: C_6  and  C_7
REMARK    7  A    between atoms: C_11  and  C_20
REMARK    8  A    between atoms: N_22  and  C_23
REMARK                            x       y       z     vdW  Elec       q    Type
REMARK                         _______ _______ _______ _____ _____    ______ ____
ROOT
ATOM      1  C   UNL     1       2.213  -4.583  -3.767  0.00  0.00    +0.216 C 
ATOM      2  O   UNL     1       2.647  -3.768  -4.553  0.00  0.00    -0.276 OA
ATOM      3  N   UNL     1       2.345  -5.900  -4.020  0.00  0.00    -0.300 N 
ATOM      4  C   UNL     1       1.878  -7.035  -3.191  0.00  0.00    +0.121 C 
ATOM      5  C   UNL     1       1.352  -8.072  -4.208  0.00  0.00    +0.100 C 
ATOM      6  C   UNL     1       2.087  -7.743  -5.519  0.00  0.00    -0.004 C 
ATOM      7  C   UNL     1       2.984  -6.540  -5.195  0.00  0.00    +0.115 C 
ATOM      8  C   UNL     1       2.934  -8.931  -5.963  0.00  0.00    -0.010 C 
ATOM      9  C   UNL     1       3.609  -8.601  -7.297  0.00  0.00    -0.082 C 
ATOM     10  N   UNL     1       2.584  -8.302  -8.305  0.00  0.00    +0.379 N 
ATOM     11  C   UNL     1       1.834  -7.102  -7.915  0.00  0.00    -0.082 C 
ATOM     12  C   UNL     1       1.084  -7.369  -6.607  0.00  0.00    -0.010 C 
ATOM     13  H   UNL     1       3.028  -8.145  -9.197  0.00  0.00    -0.086 HD
ATOM     14  H   UNL     1       1.951  -9.084  -8.380  0.00  0.00    -0.086 HD
ENDROOT
BRANCH   5  15
ATOM     15  C   UNL     1      -0.137  -7.924  -4.387  0.00  0.00    +0.218 C 
ATOM     16  O   UNL     1      -0.670  -6.857  -4.168  0.00  0.00    -0.275 OA
ATOM     17  N   UNL     1      -0.875  -8.976  -4.791  0.00  0.00    -0.312 N 
ATOM     18  H   UNL     1      -0.449  -9.829  -4.967  0.00  0.00    +0.149 HD
BRANCH  17  19
ATOM     19  C   UNL     1      -2.323  -8.832  -4.965  0.00  0.00    +0.076 C 
ATOM     20  C   UNL     1      -3.021  -9.043  -3.620  0.00  0.00    +0.041 C 
ATOM     21  C   UNL     1      -4.531  -8.857  -3.798  0.00  0.00    +0.108 C 
ATOM     22  N   UNL     1      -4.995  -9.753  -4.866  0.00  0.00    -0.317 N 
ATOM     23  C   UNL     1      -4.330  -9.696  -6.175  0.00  0.00    +0.108 C 
ATOM     24  C   UNL     1      -2.822  -9.873  -5.970  0.00  0.00    +0.041 C 
ATOM     25  C   UNL     1      -6.043 -10.639  -4.642  0.00  0.00    +0.099 A 
ATOM     26  C   UNL     1      -6.377 -11.572  -5.618  0.00  0.00    +0.042 A 
ATOM     27  C   UNL     1      -7.422 -12.447  -5.383  0.00  0.00    +0.005 A 
ATOM     28  C   UNL     1      -8.100 -12.359  -4.174  0.00  0.00    +0.018 A 
ATOM     29  C   UNL     1      -7.715 -11.408  -3.250  0.00  0.00    +0.084 A 
ATOM     30  N   UNL     1      -6.711 -10.590  -3.500  0.00  0.00    -0.350 N 
ATOM     31  H   UNL     1      -6.458  -9.934  -2.832  0.00  0.00    +0.166 HD
ENDBRANCH  17  19
ENDBRANCH   5  15
BRANCH   1  32
ATOM     32  C   UNL     1       1.526  -4.123  -2.507  0.00  0.00    +0.096 C 
BRANCH  32  33
ATOM     33  C   UNL     1       1.510  -2.594  -2.463  0.00  0.00    +0.009 C 
BRANCH  33  34
ATOM     34  C   UNL     1       0.812  -2.127  -1.184  0.00  0.00    +0.000 C 
BRANCH  34  35
ATOM     35  C   UNL     1       0.796  -0.598  -1.141  0.00  0.00    -0.000 C 
BRANCH  35  37
ATOM     36  C   UNL     1       0.083   1.399   0.182  0.00  0.00    +0.004 C 
ATOM     37  C   UNL     1       0.099  -0.131   0.138  0.00  0.00    -0.003 C 
ENDBRANCH  35  37
ENDBRANCH  34  35
ENDBRANCH  33  34
ENDBRANCH  32  33
ENDBRANCH   1  32
TORSDOF 7
