REMARK  Name = ZINC01096800
REMARK  6 active torsions:
REMARK  status: ('A' for Active; 'I' for Inactive)
REMARK    1  A    between atoms: C_3  and  N_35
REMARK    2  A    between atoms: C_6  and  C_7
REMARK    3  A    between atoms: C_12  and  S_16
REMARK    4  A    between atoms: S_16  and  C_19
REMARK    5  A    between atoms: C_26  and  C_28
REMARK    6  A    between atoms: C_31  and  N_34
REMARK                            x       y       z     vdW  Elec       q    Type
REMARK                         _______ _______ _______ _____ _____    ______ ____
ROOT
ATOM      1  S   UNL     1      -8.452  -0.682   0.037  0.00  0.00    +0.025 S 
ATOM      2  O   UNL     1      -8.841  -1.935   0.583  0.00  0.00    -0.164 OA
ATOM      3  O   UNL     1      -8.869   0.555   0.597  0.00  0.00    -0.164 OA
ENDROOT
BRANCH   1   9
ATOM      4  C   UNL     1     -10.266   0.929  -5.659  0.00  0.00    +0.228 A 
ATOM      5  N   UNL     1     -10.215  -0.375  -5.546  0.00  0.00    -0.209 NA
ATOM      6  C   UNL     1      -9.814  -0.689  -4.287  0.00  0.00    +0.110 A 
ATOM      7  C   UNL     1      -9.588  -1.895  -3.620  0.00  0.00    +0.033 A 
ATOM      8  C   UNL     1      -9.175  -1.882  -2.307  0.00  0.00    +0.030 A 
ATOM      9  C   UNL     1      -8.981  -0.679  -1.644  0.00  0.00    +0.097 A 
ATOM     10  C   UNL     1      -9.205   0.520  -2.288  0.00  0.00    +0.076 A 
ATOM     11  C   UNL     1      -9.616   0.526  -3.612  0.00  0.00    +0.158 A 
ATOM     12  O   UNL     1      -9.907   1.506  -4.497  0.00  0.00    -0.435 OA
BRANCH   4  18
ATOM     13  C   UNL     1     -10.685   3.055  -6.884  0.00  0.00    +0.015 A 
ATOM     14  C   UNL     1     -11.050   3.733  -8.026  0.00  0.00    +0.023 A 
ATOM     15  C   UNL     1     -11.402   3.028  -9.173  0.00  0.00    +0.025 A 
ATOM     16  C   UNL     1     -11.383   1.637  -9.171  0.00  0.00    +0.023 A 
ATOM     17  C   UNL     1     -11.015   0.953  -8.033  0.00  0.00    +0.015 A 
ATOM     18  C   UNL     1     -10.661   1.658  -6.880  0.00  0.00    +0.037 A 
BRANCH  15  19
ATOM     19  N   UNL     1     -11.775   3.716 -10.325  0.00  0.00    -0.358 N 
ATOM     20  H   UNL     1     -12.021   3.225 -11.125  0.00  0.00    +0.142 HD
ATOM     21  H   UNL     1     -11.789   4.686 -10.328  0.00  0.00    +0.142 HD
ENDBRANCH  15  19
ENDBRANCH   4  18
ENDBRANCH   1   9
BRANCH   1  22
ATOM     22  C   UNL     1      -6.690  -0.663   0.029  0.00  0.00    +0.096 A 
ATOM     23  C   UNL     1      -5.988  -1.859   0.019  0.00  0.00    +0.031 A 
ATOM     24  C   UNL     1      -4.608  -1.861   0.013  0.00  0.00    +0.050 A 
ATOM     25  C   UNL     1      -3.915  -0.660   0.016  0.00  0.00    +0.156 A 
ATOM     26  C   UNL     1      -4.622   0.553   0.025  0.00  0.00    +0.112 A 
ATOM     27  C   UNL     1      -6.019   0.539   0.032  0.00  0.00    +0.059 A 
ATOM     28  N   UNL     1      -3.695   1.545   0.033  0.00  0.00    -0.209 NA
ATOM     29  C   UNL     1      -2.501   1.005   0.019  0.00  0.00    +0.228 A 
ATOM     30  O   UNL     1      -2.603  -0.337   0.012  0.00  0.00    -0.435 OA
BRANCH  29  31
ATOM     31  C   UNL     1      -1.231   1.759   0.017  0.00  0.00    +0.037 A 
ATOM     32  C   UNL     1      -0.013   1.076   0.008  0.00  0.00    +0.015 A 
ATOM     33  C   UNL     1       1.170   1.781   0.001  0.00  0.00    +0.023 A 
ATOM     34  C   UNL     1       1.152   3.172   0.008  0.00  0.00    +0.025 A 
ATOM     35  C   UNL     1      -0.060   3.855   0.023  0.00  0.00    +0.023 A 
ATOM     36  C   UNL     1      -1.246   3.156   0.031  0.00  0.00    +0.015 A 
BRANCH  34  37
ATOM     37  N   UNL     1       2.350   3.883   0.000  0.00  0.00    -0.358 N 
ATOM     38  H   UNL     1       3.196   3.408  -0.011  0.00  0.00    +0.142 HD
ATOM     39  H   UNL     1       2.339   4.853   0.005  0.00  0.00    +0.142 HD
ENDBRANCH  34  37
ENDBRANCH  29  31
ENDBRANCH   1  22
TORSDOF 6
