REMARK  Name = ZINC01288592
REMARK  9 active torsions:
REMARK  status: ('A' for Active; 'I' for Inactive)
REMARK    1  A    between atoms: C_5  and  C_7
REMARK    2  A    between atoms: C_7  and  N_8
REMARK    3  A    between atoms: C_16  and  S_17
REMARK    4  A    between atoms: S_17  and  C_18
REMARK    5  A    between atoms: C_18  and  C_19
REMARK    6  A    between atoms: N_21  and  N_22
REMARK    7  A    between atoms: C_23  and  C_24
REMARK    8  A    between atoms: C_27  and  O_31
REMARK    9  A    between atoms: C_28  and  O_30
REMARK                            x       y       z     vdW  Elec       q    Type
REMARK                         _______ _______ _______ _____ _____    ______ ____
ROOT
ATOM      1  S   UNL     1       3.163   7.124  -0.299  0.00  0.00    -0.078 S 
ENDROOT
BRANCH   1  10
ATOM      2  N   UNL     1       2.257   4.510  -0.010  0.00  0.00    -0.314 N 
ATOM      3  C   UNL     1       1.051   3.837   0.107  0.00  0.00    +0.070 A 
ATOM      4  C   UNL     1       0.706   2.502   0.250  0.00  0.00    +0.028 A 
ATOM      5  C   UNL     1      -0.623   2.143   0.343  0.00  0.00    +0.002 A 
ATOM      6  C   UNL     1      -1.618   3.108   0.289  0.00  0.00    +0.002 A 
ATOM      7  C   UNL     1      -1.292   4.439   0.153  0.00  0.00    +0.030 A 
ATOM      8  C   UNL     1       0.049   4.820   0.057  0.00  0.00    +0.090 A 
ATOM      9  N   UNL     1       0.671   6.019  -0.085  0.00  0.00    -0.222 NA
ATOM     10  C   UNL     1       1.968   5.840  -0.125  0.00  0.00    +0.171 A 
BRANCH   2  11
ATOM     11  C   UNL     1       3.592   3.907  -0.011  0.00  0.00    +0.161 C 
BRANCH  11  16
ATOM     12  C   UNL     1       5.162   4.550  -3.384  0.00  0.00    +0.000 A 
ATOM     13  C   UNL     1       4.904   3.361  -4.041  0.00  0.00    +0.001 A 
ATOM     14  C   UNL     1       4.221   2.348  -3.394  0.00  0.00    +0.020 A 
ATOM     15  C   UNL     1       3.801   2.522  -2.087  0.00  0.00    +0.046 A 
ATOM     16  C   UNL     1       4.054   3.714  -1.433  0.00  0.00    -0.009 A 
ATOM     17  C   UNL     1       4.737   4.726  -2.080  0.00  0.00    +0.007 A 
ATOM     18 CL   UNL     1       2.950   1.248  -1.272  0.00  0.00    -0.083 Cl
ENDBRANCH  11  16
ENDBRANCH   2  11
ENDBRANCH   1  10
BRANCH   1  19
ATOM     19  C   UNL     1       2.067   8.562  -0.389  0.00  0.00    +0.174 C 
BRANCH  19  20
ATOM     20  C   UNL     1       2.893   9.813  -0.544  0.00  0.00    +0.242 C 
ATOM     21  O   UNL     1       4.103   9.740  -0.589  0.00  0.00    -0.273 OA
ATOM     22  N   UNL     1       2.287  11.014  -0.633  0.00  0.00    -0.206 N 
ATOM     23  H   UNL     1       1.319  11.073  -0.597  0.00  0.00    +0.177 HD
BRANCH  22  24
ATOM     24  N   UNL     1       3.054  12.177  -0.777  0.00  0.00    -0.188 NA
ATOM     25  C   UNL     1       2.471  13.333  -0.862  0.00  0.00    +0.138 C 
BRANCH  25  26
ATOM     26  C   UNL     1       3.279  14.557  -1.014  0.00  0.00    -0.002 A 
ATOM     27  C   UNL     1       4.673  14.475  -1.061  0.00  0.00    +0.013 A 
ATOM     28  C   UNL     1       5.426  15.621  -1.208  0.00  0.00    +0.050 A 
ATOM     29  C   UNL     1       4.803  16.857  -1.300  0.00  0.00    +0.158 A 
ATOM     30  C   UNL     1       3.414  16.947  -1.248  0.00  0.00    +0.159 A 
ATOM     31  C   UNL     1       2.652  15.803  -1.106  0.00  0.00    +0.058 A 
BRANCH  30  32
ATOM     32  O   UNL     1       2.808  18.161  -1.338  0.00  0.00    -0.503 OA
ATOM     33  H   UNL     1       2.670  18.596  -0.486  0.00  0.00    +0.292 HD
ENDBRANCH  30  32
BRANCH  29  34
ATOM     34  O   UNL     1       5.551  17.984  -1.441  0.00  0.00    -0.503 OA
ATOM     35  H   UNL     1       5.806  18.394  -0.603  0.00  0.00    +0.292 HD
ENDBRANCH  29  34
ENDBRANCH  25  26
ENDBRANCH  22  24
ENDBRANCH  19  20
ENDBRANCH   1  19
TORSDOF 9
