REMARK  Name = ZINC63103740
REMARK  8 active torsions:
REMARK  status: ('A' for Active; 'I' for Inactive)
REMARK    1  A    between atoms: CD1_1  and  CG_2
REMARK    2  A    between atoms: CG_2  and  CD2_3
REMARK    3  A    between atoms: CG_2  and  CB_4
REMARK    4  A    between atoms: CB_4  and  CA_5
REMARK    5  A    between atoms: CA_5  and  C_7
REMARK    6  A    between atoms: CA_5  and  N_9
REMARK    7  A    between atoms: C_7  and  O_8
REMARK    8  A    between atoms: C_15  and  N_19
REMARK                            x       y       z     vdW  Elec       q    Type
REMARK                         _______ _______ _______ _____ _____    ______ ____
ROOT
ATOM      1  N   LEU A   1      -0.876  -2.426  -1.433  0.00  0.00    -0.318 N 
ATOM      2  C   UNK A   0      -0.284  -3.661  -1.613  0.00  0.00    +0.160 A 
ATOM      3  N   UNK A   0      -0.117  -4.629  -0.743  0.00  0.00    -0.225 NA
ATOM      4  C   UNK A   0       0.487  -5.797  -1.063  0.00  0.00    +0.080 A 
ATOM      5  C   UNK A   0       0.728  -6.911  -0.226  0.00  0.00    +0.031 A 
ATOM      6  C   UNK A   0       1.358  -8.028  -0.708  0.00  0.00    +0.025 A 
ATOM      7  C   UNK A   0       1.783  -8.107  -2.032  0.00  0.00    +0.026 A 
ATOM      8  C   UNK A   0       1.561  -7.030  -2.880  0.00  0.00    +0.040 A 
ATOM      9  C   UNK A   0       0.930  -5.910  -2.400  0.00  0.00    +0.042 A 
ATOM     10  S   UNK A   0       0.444  -4.348  -3.094  0.00  0.00    -0.052 S 
ATOM     11  H   LEU A   1      -0.936  -1.804  -2.174  0.00  0.00    +0.148 HD
ENDROOT
BRANCH   7  12
ATOM     12  N   UNK A   0       2.426  -9.258  -2.502  0.00  0.00    -0.358 N 
ATOM     13  H   UNK A   0       2.578 -10.007  -1.905  0.00  0.00    +0.142 HD
ATOM     14  H   UNK A   0       2.719  -9.307  -3.425  0.00  0.00    +0.142 HD
ENDBRANCH   7  12
BRANCH   1  15
ATOM     15  CA  LEU A   1      -1.416  -2.058  -0.121  0.00  0.00    +0.098 C 
BRANCH  15  16
ATOM     16  CB  LEU A   1      -1.433  -0.534   0.013  0.00  0.00    +0.027 C 
BRANCH  16  18
ATOM     17  CD1 LEU A   1      -0.019   1.526   0.010  0.00  0.00    +0.007 C 
ATOM     18  CG  LEU A   1       0.002  -0.004   0.002  0.00  0.00    -0.015 C 
ATOM     19  CD2 LEU A   1       0.742  -0.511   1.242  0.00  0.00    +0.007 C 
ENDBRANCH  16  18
ENDBRANCH  15  16
BRANCH  15  20
ATOM     20  C   LEU A   1      -2.841  -2.598   0.015  0.00  0.00    +0.178 C 
BRANCH  20  21
ATOM     21  O   LEU A   1      -3.688  -1.952  -0.938  0.00  0.00    -0.393 OA
ATOM     22  H   LEU A   1      -4.609  -2.247  -0.908  0.00  0.00    +0.209 HD
ENDBRANCH  20  21
ENDBRANCH  15  20
ENDBRANCH   1  15
TORSDOF 6
