REMARK  Name = ZINC06911566
REMARK  4 active torsions:
REMARK  status: ('A' for Active; 'I' for Inactive)
REMARK    1  A    between atoms: C_4  and  S_7
REMARK    2  A    between atoms: S_7  and  C_8
REMARK    3  A    between atoms: C_8  and  C_9
REMARK    4  A    between atoms: N_14  and  C_15
REMARK                            x       y       z     vdW  Elec       q    Type
REMARK                         _______ _______ _______ _____ _____    ______ ____
ROOT
ATOM      1  C   UNL     1      -0.016   1.344   0.009  0.00  0.00    +0.231 C 
ATOM      2  O   UNL     1       1.025   1.964   0.003  0.00  0.00    -0.274 OA
ATOM      3  N   UNL     1       0.002  -0.004   0.002  0.00  0.00    -0.239 N 
ATOM      4  C   UNL     1       1.178  -0.662  -0.013  0.00  0.00    +0.306 C 
ATOM      5  O   UNL     1       2.222  -0.040  -0.019  0.00  0.00    -0.252 OA
ATOM      6  N   UNL     1       1.196  -2.010  -0.020  0.00  0.00    -0.294 N 
ATOM      7  H   UNL     1      -0.831  -0.500   0.007  0.00  0.00    +0.159 HD
ATOM      8  H   UNL     1       0.363  -2.506  -0.015  0.00  0.00    +0.151 HD
ENDROOT
BRANCH   6   9
ATOM      9  C   UNL     1       2.475  -2.725  -0.036  0.00  0.00    +0.037 C 
ATOM     10  C   UNL     1       3.260  -2.337  -1.291  0.00  0.00    +0.029 C 
ATOM     11  C   UNL     1       4.596  -3.084  -1.308  0.00  0.00    -0.008 C 
ATOM     12  C   UNL     1       4.336  -4.592  -1.313  0.00  0.00    +0.007 C 
ATOM     13  C   UNL     1       3.551  -4.979  -0.059  0.00  0.00    -0.008 C 
ATOM     14  C   UNL     1       2.216  -4.233  -0.042  0.00  0.00    +0.029 C 
ATOM     15  C   UNL     1       4.360  -4.606   1.185  0.00  0.00    +0.007 C 
ATOM     16  C   UNL     1       4.619  -3.098   1.191  0.00  0.00    -0.008 C 
ATOM     17  C   UNL     1       5.405  -2.711  -0.064  0.00  0.00    +0.007 C 
ATOM     18  C   UNL     1       3.284  -2.351   1.207  0.00  0.00    +0.029 C 
ENDBRANCH   6   9
BRANCH   1  19
ATOM     19  C   UNL     1      -1.331   2.079   0.020  0.00  0.00    +0.173 C 
BRANCH  19  20
ATOM     20  S   UNL     1      -1.025   3.863   0.028  0.00  0.00    -0.077 S 
BRANCH  20  24
ATOM     21  C   UNL     1      -5.203   5.363   0.055  0.00  0.00    +0.039 A 
ATOM     22  C   UNL     1      -4.134   6.245   0.055  0.00  0.00    +0.115 A 
ATOM     23  N   UNL     1      -2.901   5.766   0.047  0.00  0.00    -0.230 NA
ATOM     24  C   UNL     1      -2.683   4.458   0.039  0.00  0.00    +0.189 A 
ATOM     25  N   UNL     1      -3.683   3.588   0.034  0.00  0.00    -0.230 NA
ATOM     26  C   UNL     1      -4.939   4.002   0.046  0.00  0.00    +0.115 A 
ENDBRANCH  20  24
ENDBRANCH  19  20
ENDBRANCH   1  19
TORSDOF 4
