REMARK  Name = ZINC36494408
REMARK  13 active torsions:
REMARK  status: ('A' for Active; 'I' for Inactive)
REMARK    1  A    between atoms: C_1  and  C_2
REMARK    2  A    between atoms: C_2  and  C_3
REMARK    3  A    between atoms: C_3  and  C_4
REMARK    4  A    between atoms: C_4  and  N_5
REMARK    5  A    between atoms: C_6  and  C_8
REMARK    6  A    between atoms: C_8  and  C_10
REMARK    7  A    between atoms: C_8  and  N_19
REMARK    8  A    between atoms: C_11  and  O_18
REMARK    9  A    between atoms: C_13  and  O_17
REMARK   10  A    between atoms: C_15  and  O_16
REMARK   11  A    between atoms: N_19  and  C_20
REMARK   12  A    between atoms: C_20  and  C_21
REMARK   13  A    between atoms: C_26  and  C_28
REMARK                            x       y       z     vdW  Elec       q    Type
REMARK                         _______ _______ _______ _____ _____    ______ ____
ROOT
ATOM      1  C   UNL     1       1.924  -3.969   4.417  0.00  0.00    +0.200 C 
ENDROOT
BRANCH   1   2
ATOM      2  C   UNL     1       3.033  -2.959   4.560  0.00  0.00    +0.065 A 
ATOM      3  C   UNL     1       4.254  -3.178   3.941  0.00  0.00    +0.129 A 
ATOM      4  C   UNL     1       5.275  -2.249   4.072  0.00  0.00    +0.091 A 
ATOM      5  C   UNL     1       5.074  -1.101   4.824  0.00  0.00    +0.124 A 
ATOM      6  C   UNL     1       3.853  -0.881   5.443  0.00  0.00    +0.091 A 
ATOM      7  C   UNL     1       2.831  -1.809   5.307  0.00  0.00    +0.129 A 
BRANCH   7   8
ATOM      8  O   UNL     1       1.632  -1.592   5.910  0.00  0.00    -0.506 OA
ATOM      9  H   UNL     1       1.573  -1.947   6.807  0.00  0.00    +0.292 HD
ENDBRANCH   7   8
BRANCH   5  10
ATOM     10  O   UNL     1       6.075  -0.190   4.954  0.00  0.00    -0.507 OA
ATOM     11  H   UNL     1       6.075   0.494   4.270  0.00  0.00    +0.292 HD
ENDBRANCH   5  10
BRANCH   3  12
ATOM     12  O   UNL     1       4.451  -4.303   3.205  0.00  0.00    -0.506 OA
ATOM     13  H   UNL     1       4.292  -4.187   2.258  0.00  0.00    +0.292 HD
ENDBRANCH   3  12
ENDBRANCH   1   2
BRANCH   1  15
ATOM     14  N   UNL     1       1.229  -3.154   2.188  0.00  0.00    -0.313 N 
ATOM     15  C   UNL     1       1.628  -4.187   2.955  0.00  0.00    +0.238 C 
ATOM     16  O   UNL     1       1.750  -5.292   2.470  0.00  0.00    -0.273 OA
ATOM     17  H   UNL     1       1.132  -2.270   2.576  0.00  0.00    +0.149 HD
BRANCH  14  18
ATOM     18  C   UNL     1       0.942  -3.365   0.767  0.00  0.00    +0.104 C 
BRANCH  18  19
ATOM     19  C   UNL     1       0.512  -2.042   0.131  0.00  0.00    +0.018 C 
BRANCH  19  21
ATOM     20  C   UNL     1      -0.218  -0.940  -1.989  0.00  0.00    +0.004 C 
ATOM     21  C   UNL     1       0.212  -2.263  -1.353  0.00  0.00    -0.002 C 
ENDBRANCH  19  21
ENDBRANCH  18  19
ENDBRANCH  14  18
ENDBRANCH   1  15
BRANCH   1  22
ATOM     22  N   UNL     1       2.335  -5.237   5.026  0.00  0.00    -0.278 N 
ATOM     23  C   UNL     1       1.572  -6.337   4.873  0.00  0.00    +0.220 C 
ATOM     24  O   UNL     1       0.619  -6.315   4.123  0.00  0.00    -0.275 OA
BRANCH  23  25
ATOM     25  C   UNL     1       1.903  -7.595   5.634  0.00  0.00    +0.075 C 
ATOM     26  C   UNL     1       3.076  -8.307   4.957  0.00  0.00    +0.013 C 
ATOM     27  C   UNL     1       3.412  -9.584   5.729  0.00  0.00    +0.001 C 
ATOM     28  C   UNL     1       2.193 -10.508   5.741  0.00  0.00    +0.000 C 
ATOM     29  C   UNL     1       1.020  -9.797   6.418  0.00  0.00    +0.001 C 
ATOM     30  C   UNL     1       0.684  -8.520   5.646  0.00  0.00    +0.013 C 
ENDBRANCH  23  25
BRANCH  22  31
ATOM     31  C   UNL     1       3.576  -5.308   5.801  0.00  0.00    +0.183 C 
BRANCH  31  32
ATOM     32  C   UNL     1       3.261  -5.168   7.268  0.00  0.00    +0.122 A 
ATOM     33  C   UNL     1       3.097  -6.181   8.138  0.00  0.00    +0.046 A 
ATOM     34  C   UNL     1       2.817  -5.600   9.396  0.00  0.00    +0.041 A 
ATOM     35  C   UNL     1       2.827  -4.266   9.220  0.00  0.00    +0.195 A 
ATOM     36  O   UNL     1       3.102  -4.010   7.931  0.00  0.00    -0.466 OA
ENDBRANCH  31  32
ENDBRANCH  22  31
ENDBRANCH   1  22
TORSDOF 12
