REMARK  Name = ZINC20418644
REMARK  10 active torsions:
REMARK  status: ('A' for Active; 'I' for Inactive)
REMARK    1  A    between atoms: C_1  and  C_2
REMARK    2  A    between atoms: C_7  and  C_8
REMARK    3  A    between atoms: C_8  and  O_9
REMARK    4  A    between atoms: O_9  and  C_10
REMARK    5  A    between atoms: C_13  and  C_18
REMARK    6  A    between atoms: C_15  and  O_16
REMARK    7  A    between atoms: O_16  and  C_17
REMARK    8  A    between atoms: C_21  and  C_32
REMARK    9  A    between atoms: C_27  and  N_31
REMARK   10  A    between atoms: C_28  and  C_29
REMARK                            x       y       z     vdW  Elec       q    Type
REMARK                         _______ _______ _______ _____ _____    ______ ____
ROOT
ATOM      1  C   UNL     1       0.068   1.241   8.803  0.00  0.00    +0.102 C 
ATOM      2  C   UNL     1       1.276   2.124   8.986  0.00  0.00    +0.054 A 
ATOM      3  C   UNL     1       2.621   1.767   9.117  0.00  0.00    +0.100 A 
ATOM      4  N   UNL     1       3.324   2.876   9.254  0.00  0.00    -0.171 NA
ATOM      5  N   UNL     1       2.441   3.966   9.214  0.00  0.00    -0.246 N 
ATOM      6  H   UNL     1       2.686   4.902   9.290  0.00  0.00    +0.192 HD
ATOM      7  C   UNL     1       1.191   3.485   9.050  0.00  0.00    +0.223 A 
ATOM      8  O   UNL     1       0.013   4.151   8.958  0.00  0.00    -0.423 OA
ATOM      9  C   UNL     1      -1.122   3.432   9.073  0.00  0.00    +0.200 C 
ATOM     10  C   UNL     1      -1.167   2.081   9.014  0.00  0.00    +0.098 C 
ENDROOT
BRANCH   1  14
ATOM     11  C   UNL     1       0.053  -0.376   4.845  0.00  0.00    +0.162 A 
ATOM     12  C   UNL     1       0.031   0.996   5.036  0.00  0.00    +0.050 A 
ATOM     13  C   UNL     1       0.035   1.516   6.317  0.00  0.00    +0.008 A 
ATOM     14  C   UNL     1       0.063   0.669   7.409  0.00  0.00    -0.031 A 
ATOM     15  C   UNL     1       0.086  -0.701   7.226  0.00  0.00    +0.054 A 
ATOM     16  C   UNL     1       0.075  -1.228   5.945  0.00  0.00    +0.162 A 
BRANCH  16  17
ATOM     17  O   UNL     1       0.092  -2.576   5.763  0.00  0.00    -0.491 OA
ATOM     18  C   UNL     1       0.114  -3.389   6.937  0.00  0.00    +0.277 C 
ENDBRANCH  16  17
BRANCH  11  19
ATOM     19  O   UNL     1       0.048  -0.889   3.585  0.00  0.00    -0.484 OA
BRANCH  19  20
ATOM     20  C   UNL     1       0.025   0.045   2.504  0.00  0.00    +0.265 C 
BRANCH  20  27
ATOM     21  C   UNL     1      -0.018   1.503   0.010  0.00  0.00    +0.044 C 
ATOM     22  C   UNL     1       0.002  -0.004   0.002  0.00  0.00    -0.044 A 
ATOM     23  C   UNL     1       0.006  -0.689  -1.199  0.00  0.00    +0.004 A 
ATOM     24  C   UNL     1       0.025  -2.071  -1.207  0.00  0.00    +0.000 A 
ATOM     25  C   UNL     1       0.040  -2.768  -0.013  0.00  0.00    +0.000 A 
ATOM     26  C   UNL     1       0.037  -2.084   1.188  0.00  0.00    +0.007 A 
ATOM     27  C   UNL     1       0.023  -0.702   1.195  0.00  0.00    -0.007 A 
ENDBRANCH  20  27
ENDBRANCH  19  20
ENDBRANCH  11  19
ENDBRANCH   1  14
BRANCH   3  28
ATOM     28  C   UNL     1       3.163   0.386   9.104  0.00  0.00    +0.003 A 
ATOM     29  C   UNL     1       2.427  -0.659   9.659  0.00  0.00    +0.010 A 
ATOM     30  C   UNL     1       2.936  -1.942   9.645  0.00  0.00    +0.001 A 
ATOM     31  C   UNL     1       4.175  -2.191   9.081  0.00  0.00    +0.000 A 
ATOM     32  C   UNL     1       4.909  -1.157   8.529  0.00  0.00    +0.001 A 
ATOM     33  C   UNL     1       4.407   0.128   8.532  0.00  0.00    +0.010 A 
ENDBRANCH   3  28
BRANCH   9  34
ATOM     34  N   UNL     1      -2.300   4.109   9.264  0.00  0.00    -0.328 N 
ATOM     35  H   UNL     1      -2.300   5.078   9.311  0.00  0.00    +0.145 HD
ATOM     36  H   UNL     1      -3.133   3.619   9.350  0.00  0.00    +0.145 HD
ENDBRANCH   9  34
BRANCH  10  37
ATOM     37  C   UNL     1      -2.432   1.425   9.155  0.00  0.00    +0.101 C 
ATOM     38  N   UNL     1      -3.435   0.904   9.267  0.00  0.00    -0.191 NA
ENDBRANCH  10  37
TORSDOF 8
