REMARK  Name = ZINC40073164
REMARK  8 active torsions:
REMARK  status: ('A' for Active; 'I' for Inactive)
REMARK    1  A    between atoms: C_1  and  C_2
REMARK    2  A    between atoms: C_14  and  C_37
REMARK    3  A    between atoms: C_15  and  N_16
REMARK    4  A    between atoms: C_17  and  C_19
REMARK    5  A    between atoms: C_19  and  C_20
REMARK    6  A    between atoms: C_23  and  C_24
REMARK    7  A    between atoms: N_29  and  C_30
REMARK    8  A    between atoms: C_30  and  C_31
REMARK                            x       y       z     vdW  Elec       q    Type
REMARK                         _______ _______ _______ _____ _____    ______ ____
ROOT
ATOM      1  C   UNL     1       0.687   0.953   0.168  0.00  0.00    +0.047 C 
ATOM      2  C   UNL     1       0.161  -0.454   0.291  0.00  0.00    -0.007 A 
ATOM      3  C   UNL     1      -0.116  -1.180  -0.826  0.00  0.00    +0.008 A 
ATOM      4  C   UNL     1      -0.605  -2.490  -0.699  0.00  0.00    +0.019 A 
ATOM      5  C   UNL     1      -0.798  -3.024   0.526  0.00  0.00    +0.096 A 
ATOM      6  N   UNL     1      -0.524  -2.305   1.654  0.00  0.00    -0.267 N 
ATOM      7  C   UNL     1      -0.041  -1.027   1.565  0.00  0.00    +0.145 A 
ATOM      8  N   UNL     1       0.242  -0.299   2.639  0.00  0.00    -0.211 NA
ATOM      9  C   UNL     1       0.079  -0.768   3.881  0.00  0.00    +0.150 A 
ATOM     10  C   UNL     1      -0.414  -2.089   4.056  0.00  0.00    +0.084 A 
ATOM     11  C   UNL     1      -0.732  -2.877   2.864  0.00  0.00    +0.268 A 
ATOM     12  O   UNL     1      -1.157  -4.014   2.957  0.00  0.00    -0.267 OA
ATOM     13  C   UNL     1      -0.592  -2.596   5.341  0.00  0.00    +0.039 A 
ATOM     14  C   UNL     1      -0.273  -1.770   6.421  0.00  0.00    +0.091 A 
ATOM     15  C   UNL     1       0.212  -0.468   6.173  0.00  0.00    +0.124 A 
ATOM     16  N   UNL     1       0.370  -0.017   4.945  0.00  0.00    -0.310 N 
ENDROOT
BRANCH  15  17
ATOM     17  N   UNL     1       0.529   0.353   7.244  0.00  0.00    -0.270 N 
ATOM     18  C   UNL     1       1.190  -0.149   8.306  0.00  0.00    +0.222 C 
ATOM     19  O   UNL     1       1.567  -1.302   8.296  0.00  0.00    -0.275 OA
ATOM     20  H   UNL     1       0.276   1.289   7.229  0.00  0.00    +0.156 HD
BRANCH  18  21
ATOM     21  C   UNL     1       1.460   0.721   9.506  0.00  0.00    +0.127 C 
BRANCH  21  22
ATOM     22  C   UNL     1       2.315  -0.033  10.491  0.00  0.00    +0.032 C 
ATOM     23  C   UNL     1       3.504   0.457  10.856  0.00  0.00    +0.163 C 
ATOM     24  C   UNL     1       4.455  -0.164  11.801  0.00  0.00    +0.166 C 
ATOM     25  C   UNL     1       4.186  -1.131  12.709  0.00  0.00    +0.049 C 
ATOM     26  O   UNL     1       5.661   0.437  11.572  0.00  0.00    -0.453 OA
ATOM     27  C   UNL     1       5.334   1.750  11.085  0.00  0.00    +0.466 C 
ATOM     28  O   UNL     1       4.069   1.620  10.420  0.00  0.00    -0.453 OA
BRANCH  25  29
ATOM     29  C   UNL     1       5.252  -1.639  13.574  0.00  0.00    -0.004 C 
ATOM     30  C   UNL     1       4.987  -2.592  14.469  0.00  0.00    +0.008 C 
ENDBRANCH  25  29
ENDBRANCH  21  22
ENDBRANCH  18  21
ENDBRANCH  15  17
BRANCH  14  31
ATOM     31  C   UNL     1      -0.436  -2.239   7.764  0.00  0.00    +0.103 C 
ATOM     32  N   UNL     1      -0.566  -2.611   8.830  0.00  0.00    -0.191 NA
ENDBRANCH  14  31
BRANCH  16  33
ATOM     33  C   UNL     1       0.877   1.343   4.742  0.00  0.00    +0.156 C 
BRANCH  33  34
ATOM     34  C   UNL     1      -0.298   2.301   4.539  0.00  0.00    +0.138 C 
ATOM     35  C   UNL     1       0.228   3.732   4.298  0.00  0.00    +0.035 C 
ATOM     36  C   UNL     1      -0.792   4.596   5.089  0.00  0.00    +0.031 C 
ATOM     37  C   UNL     1      -1.115   3.655   6.277  0.00  0.00    +0.160 C 
ATOM     38  O   UNL     1      -1.111   2.329   5.719  0.00  0.00    -0.375 OA
ENDBRANCH  33  34
ENDBRANCH  16  33
TORSDOF 7
