REMARK  Name = ZINC43547822
REMARK  12 active torsions:
REMARK  status: ('A' for Active; 'I' for Inactive)
REMARK    1  A    between atoms: C_1  and  C_2
REMARK    2  A    between atoms: N_4  and  C_5
REMARK    3  A    between atoms: C_8  and  C_35
REMARK    4  A    between atoms: C_8  and  C_36
REMARK    5  A    between atoms: C_11  and  C_18
REMARK    6  A    between atoms: C_14  and  C_16
REMARK    7  A    between atoms: C_14  and  O_17
REMARK    8  A    between atoms: C_18  and  C_19
REMARK    9  A    between atoms: C_19  and  C_20
REMARK   10  A    between atoms: N_22  and  C_23
REMARK   11  A    between atoms: C_23  and  C_24
REMARK   12  A    between atoms: C_24  and  C_25
REMARK                            x       y       z     vdW  Elec       q    Type
REMARK                         _______ _______ _______ _____ _____    ______ ____
ROOT
ATOM      1  C   UNL     1       0.064  -2.275  -1.876  0.00  0.00    +0.080 C 
ATOM      2  C   UNL     1      -1.366  -2.814  -1.623  0.00  0.00    +0.029 C 
ATOM      3  C   UNL     1      -1.802  -3.530  -2.931  0.00  0.00    -0.030 C 
ATOM      4  C   UNL     1      -0.929  -2.858  -3.997  0.00  0.00    +0.005 C 
ATOM      5  C   UNL     1       0.442  -2.766  -3.269  0.00  0.00    -0.007 C 
ATOM      6  C   UNL     1       1.332  -1.855  -4.091  0.00  0.00    +0.012 C 
ATOM      7  C   UNL     1       1.569  -2.546  -5.444  0.00  0.00    +0.035 C 
ATOM      8  C   UNL     1       0.253  -2.841  -6.158  0.00  0.00    +0.064 C 
ATOM      9  C   UNL     1      -0.722  -3.649  -5.275  0.00  0.00    +0.039 C 
ATOM     10  C   UNL     1       0.543  -3.631  -7.436  0.00  0.00    +0.041 C 
ATOM     11  C   UNL     1      -1.503  -5.028  -2.853  0.00  0.00    +0.011 C 
ATOM     12  C   UNL     1      -3.286  -3.286  -3.213  0.00  0.00    +0.011 C 
ENDROOT
BRANCH   1  16
ATOM     13  C   UNL     1       0.246   1.337  -0.620  0.00  0.00    +0.109 C 
ATOM     14  C   UNL     1       0.241  -0.170  -0.662  0.00  0.00    +0.210 C 
ATOM     15  O   UNL     1       0.390  -0.805   0.360  0.00  0.00    -0.276 OA
ATOM     16  N   UNL     1       0.070  -0.811  -1.835  0.00  0.00    -0.312 N 
ATOM     17  H   UNL     1      -0.050  -0.302  -2.652  0.00  0.00    +0.149 HD
ENDBRANCH   1  16
BRANCH   8  18
ATOM     18  O   UNL     1      -0.377  -1.607  -6.506  0.00  0.00    -0.389 OA
ATOM     19  H   UNL     1       0.151  -1.048  -7.093  0.00  0.00    +0.210 HD
ENDBRANCH   8  18
BRANCH   5  20
ATOM     20  C   UNL     1       1.072  -4.157  -3.175  0.00  0.00    +0.018 C 
BRANCH  20  21
ATOM     21  C   UNL     1       2.418  -4.060  -2.453  0.00  0.00    +0.096 C 
BRANCH  21  22
ATOM     22  C   UNL     1       3.038  -5.430  -2.360  0.00  0.00    +0.213 C 
ATOM     23  O   UNL     1       2.461  -6.390  -2.825  0.00  0.00    -0.276 OA
ATOM     24  N   UNL     1       4.235  -5.588  -1.760  0.00  0.00    -0.315 N 
ATOM     25  H   UNL     1       4.696  -4.820  -1.389  0.00  0.00    +0.149 HD
BRANCH  24  26
ATOM     26  C   UNL     1       4.838  -6.920  -1.669  0.00  0.00    +0.109 C 
BRANCH  26  27
ATOM     27  C   UNL     1       6.184  -6.822  -0.948  0.00  0.00    +0.056 C 
BRANCH  27  28
ATOM     28  C   UNL     1       6.804  -8.193  -0.855  0.00  0.00    -0.021 A 
ATOM     29  C   UNL     1       6.709  -9.043   0.179  0.00  0.00    +0.087 A 
ATOM     30  N   UNL     1       7.402 -10.191  -0.096  0.00  0.00    -0.360 N 
ATOM     31  H   UNL     1       7.479 -10.952   0.501  0.00  0.00    +0.165 HD
ATOM     32  C   UNL     1       7.975 -10.104  -1.345  0.00  0.00    +0.047 A 
ATOM     33  C   UNL     1       7.620  -8.851  -1.878  0.00  0.00    +0.003 A 
ATOM     34  C   UNL     1       8.061  -8.486  -3.151  0.00  0.00    +0.010 A 
ATOM     35  C   UNL     1       8.833  -9.350  -3.876  0.00  0.00    +0.001 A 
ATOM     36  C   UNL     1       9.182 -10.588  -3.356  0.00  0.00    +0.002 A 
ATOM     37  C   UNL     1       8.766 -10.966  -2.098  0.00  0.00    +0.026 A 
ENDBRANCH  27  28
ENDBRANCH  26  27
ENDBRANCH  24  26
ENDBRANCH  21  22
ENDBRANCH  20  21
ENDBRANCH   5  20
TORSDOF 8
