REMARK  Name = ZINC67266076
REMARK  7 active torsions:
REMARK  status: ('A' for Active; 'I' for Inactive)
REMARK    1  A    between atoms: C_4  and  C_7
REMARK    2  A    between atoms: C_7  and  C_8
REMARK    3  A    between atoms: C_8  and  C_10
REMARK    4  A    between atoms: C_8  and  N_17
REMARK    5  A    between atoms: N_12  and  C_13
REMARK    6  A    between atoms: C_13  and  C_14
REMARK    7  A    between atoms: C_18  and  C_20
REMARK                            x       y       z     vdW  Elec       q    Type
REMARK                         _______ _______ _______ _____ _____    ______ ____
ROOT
ATOM      1  C   UNL     1       4.171  -0.963   1.399  0.00  0.00    +0.163 C 
ENDROOT
BRANCH   1   2
ATOM      2  C   UNL     1       5.422  -1.804   1.383  0.00  0.00    +0.234 C 
ATOM      3  O   UNL     1       6.446  -1.378   1.874  0.00  0.00    -0.274 OA
ATOM      4  N   UNL     1       5.402  -3.031   0.824  0.00  0.00    -0.305 N 
ATOM      5  H   UNL     1       4.583  -3.372   0.432  0.00  0.00    +0.149 HD
BRANCH   4   6
ATOM      6  C   UNL     1       6.617  -3.849   0.809  0.00  0.00    +0.199 C 
BRANCH   6   7
ATOM      7  C   UNL     1       6.330  -5.164   0.132  0.00  0.00    +0.228 C 
ATOM      8  O   UNL     1       5.219  -5.395  -0.296  0.00  0.00    -0.274 OA
ATOM      9  N   UNL     1       7.307  -6.083   0.002  0.00  0.00    -0.328 N 
ATOM     10  H   UNL     1       8.195  -5.898   0.344  0.00  0.00    +0.145 HD
ATOM     11  H   UNL     1       7.122  -6.929  -0.434  0.00  0.00    +0.145 HD
ENDBRANCH   6   7
ENDBRANCH   4   6
ENDBRANCH   1   2
BRANCH   1  12
ATOM     12  N   UNL     1       4.451   0.315   2.057  0.00  0.00    -0.303 N 
ATOM     13  C   UNL     1       3.451   1.007   2.638  0.00  0.00    +0.220 C 
ATOM     14  O   UNL     1       2.319   0.571   2.616  0.00  0.00    -0.275 OA
ATOM     15  H   UNL     1       5.356   0.664   2.075  0.00  0.00    +0.149 HD
BRANCH  13  16
ATOM     16  C   UNL     1       3.739   2.322   3.316  0.00  0.00    +0.048 C 
ATOM     17  C   UNL     1       4.324   3.303   2.297  0.00  0.00    +0.019 C 
ATOM     18  C   UNL     1       4.616   4.638   2.985  0.00  0.00    -0.009 C 
ATOM     19  C   UNL     1       3.318   5.211   3.558  0.00  0.00    +0.007 C 
ATOM     20  C   UNL     1       2.733   4.231   4.576  0.00  0.00    -0.009 C 
ATOM     21  C   UNL     1       2.441   2.896   3.888  0.00  0.00    +0.019 C 
ATOM     22  C   UNL     1       3.738   4.012   5.709  0.00  0.00    +0.007 C 
ATOM     23  C   UNL     1       5.035   3.438   5.136  0.00  0.00    -0.009 C 
ATOM     24  C   UNL     1       5.621   4.419   4.118  0.00  0.00    +0.007 C 
ATOM     25  C   UNL     1       4.743   2.103   4.449  0.00  0.00    +0.019 C 
ENDBRANCH  13  16
ENDBRANCH   1  12
BRANCH   1  26
ATOM     26  C   UNL     1       3.711  -0.707  -0.038  0.00  0.00    +0.067 C 
BRANCH  26  30
ATOM     27  C   UNL     1      -0.017   1.378   0.010  0.00  0.00    +0.000 A 
ATOM     28  C   UNL     1       1.171   2.086   0.002  0.00  0.00    +0.000 A 
ATOM     29  C   UNL     1       2.377   1.411  -0.013  0.00  0.00    +0.004 A 
ATOM     30  C   UNL     1       2.396   0.029  -0.020  0.00  0.00    -0.045 A 
ATOM     31  C   UNL     1       1.208  -0.679  -0.012  0.00  0.00    +0.004 A 
ATOM     32  C   UNL     1       0.002  -0.004   0.002  0.00  0.00    +0.000 A 
ENDBRANCH  26  30
ENDBRANCH   1  26
TORSDOF 7
