REMARK  Name = ZINC19808771
REMARK  6 active torsions:
REMARK  status: ('A' for Active; 'I' for Inactive)
REMARK    1  A    between atoms: C_1  and  C_2
REMARK    2  A    between atoms: C_6  and  C_19
REMARK    3  A    between atoms: C_7  and  O_8
REMARK    4  A    between atoms: O_8  and  C_9
REMARK    5  A    between atoms: C_9  and  C_10
REMARK    6  A    between atoms: C_14  and  C_16
REMARK                            x       y       z     vdW  Elec       q    Type
REMARK                         _______ _______ _______ _____ _____    ______ ____
ROOT
ATOM      1  C   UNL     1       4.152   4.971  -1.086  0.00  0.00    -0.010 A 
ATOM      2  C   UNL     1       5.355   4.292  -1.010  0.00  0.00    +0.007 A 
ATOM      3  C   UNL     1       6.538   4.987  -0.836  0.00  0.00    +0.001 A 
ATOM      4  C   UNL     1       6.525   6.363  -0.737  0.00  0.00    +0.011 A 
ATOM      5  C   UNL     1       5.316   7.053  -0.812  0.00  0.00    +0.012 A 
ATOM      6  C   UNL     1       4.126   6.347  -0.993  0.00  0.00    +0.018 A 
ENDROOT
BRANCH   5   7
ATOM      7  C   UNL     1       5.295   8.530  -0.707  0.00  0.00    +0.094 C 
ATOM      8  N   UNL     1       4.163   9.172  -0.778  0.00  0.00    -0.387 N 
ATOM      9  N   UNL     1       6.471   9.225  -0.535  0.00  0.00    -0.345 N 
ATOM     10  H   UNL     1       4.148  10.269  -0.700  0.00  0.00    +0.157 HD
ATOM     11  H   UNL     1       6.456  10.322  -0.456  0.00  0.00    +0.144 HD
ATOM     12  H   UNL     1       7.427   8.683  -0.475  0.00  0.00    +0.144 HD
ATOM     13  H   UNL     1       3.224   8.617  -0.916  0.00  0.00    +0.157 HD
ENDBRANCH   5   7
BRANCH   1  14
ATOM     14  C   UNL     1       2.868   4.206  -1.275  0.00  0.00    +0.264 C 
BRANCH  14  15
ATOM     15  O   UNL     1       2.322   3.866   0.001  0.00  0.00    -0.487 OA
BRANCH  15  22
ATOM     16  C   UNL     1       2.490   1.047  -0.016  0.00  0.00    +0.047 C 
ATOM     17  C   UNL     1       1.175   1.782   0.000  0.00  0.00    -0.007 A 
ATOM     18  C   UNL     1      -0.013   1.076   0.008  0.00  0.00    +0.027 A 
ATOM     19  C   UNL     1      -1.220   1.751   0.017  0.00  0.00    +0.042 A 
ATOM     20  C   UNL     1      -1.242   3.134   0.031  0.00  0.00    +0.027 A 
ATOM     21  C   UNL     1      -0.057   3.844   0.023  0.00  0.00    -0.007 A 
ATOM     22  C   UNL     1       1.155   3.169   0.008  0.00  0.00    +0.127 A 
ATOM     23  C   UNL     1      -0.081   5.351   0.031  0.00  0.00    +0.047 C 
ATOM     24 CL   UNL     1      -2.711   0.861   0.019  0.00  0.00    -0.084 Cl
ENDBRANCH  15  22
ENDBRANCH  14  15
ENDBRANCH   1  14
TORSDOF 4
