REMARK  Name = ZINC59385409
REMARK  11 active torsions:
REMARK  status: ('A' for Active; 'I' for Inactive)
REMARK    1  A    between atoms: C_1  and  C_2
REMARK    2  A    between atoms: C_2  and  O_3
REMARK    3  A    between atoms: O_3  and  C_4
REMARK    4  A    between atoms: C_7  and  C_10
REMARK    5  A    between atoms: C_12  and  C_19
REMARK    6  A    between atoms: C_13  and  C_18
REMARK    7  A    between atoms: N_21  and  N_22
REMARK    8  A    between atoms: C_23  and  C_24
REMARK    9  A    between atoms: C_27  and  N_30
REMARK   10  A    between atoms: N_30  and  C_31
REMARK   11  A    between atoms: N_30  and  C_32
REMARK                            x       y       z     vdW  Elec       q    Type
REMARK                         _______ _______ _______ _____ _____    ______ ____
ROOT
ATOM      1  C   UNL     1       1.216  -6.046  -1.845  0.00  0.00    +0.139 C 
ATOM      2  C   UNL     1       2.621  -6.478  -1.476  0.00  0.00    +0.057 C 
ATOM      3  C   UNL     1       3.356  -7.099  -2.422  0.00  0.00    +0.017 C 
ATOM      4  N   UNL     1       2.850  -7.329  -3.670  0.00  0.00    -0.300 N 
ATOM      5  C   UNL     1       1.618  -6.969  -4.049  0.00  0.00    +0.135 C 
ATOM      6  S   UNL     1       1.107  -7.317  -5.646  0.00  0.00    -0.019 S 
ATOM      7  N   UNL     1       0.766  -6.341  -3.215  0.00  0.00    -0.315 N 
ATOM      8  C   UNL     1       4.759  -7.545  -2.097  0.00  0.00    +0.061 C 
ATOM      9  H   UNL     1       3.416  -7.778  -4.318  0.00  0.00    +0.154 HD
ATOM     10  H   UNL     1      -0.122  -6.089  -3.511  0.00  0.00    +0.149 HD
ENDROOT
BRANCH   1  14
ATOM     11  C   UNL     1       0.937  -1.824  -1.246  0.00  0.00    +0.121 A 
ATOM     12  C   UNL     1       0.437  -2.696  -0.289  0.00  0.00    +0.046 A 
ATOM     13  C   UNL     1       0.528  -4.060  -0.485  0.00  0.00    +0.009 A 
ATOM     14  C   UNL     1       1.118  -4.557  -1.633  0.00  0.00    -0.022 A 
ATOM     15  C   UNL     1       1.617  -3.690  -2.588  0.00  0.00    +0.009 A 
ATOM     16  C   UNL     1       1.523  -2.325  -2.399  0.00  0.00    +0.046 A 
BRANCH  11  17
ATOM     17  O   UNL     1       0.849  -0.481  -1.055  0.00  0.00    -0.492 OA
BRANCH  17  19
ATOM     18  C   UNL     1       0.224   1.492   0.192  0.00  0.00    +0.048 C 
ATOM     19  C   UNL     1       0.233  -0.037   0.156  0.00  0.00    +0.225 C 
ENDBRANCH  17  19
ENDBRANCH  11  17
ENDBRANCH   1  14
BRANCH   2  20
ATOM     20  C   UNL     1       3.145  -6.239  -0.182  0.00  0.00    +0.263 C 
ATOM     21  O   UNL     1       2.897  -7.010   0.728  0.00  0.00    -0.269 OA
ATOM     22  N   UNL     1       3.917  -5.157   0.043  0.00  0.00    -0.203 N 
ATOM     23  H   UNL     1       4.174  -4.583  -0.696  0.00  0.00    +0.178 HD
BRANCH  22  24
ATOM     24  N   UNL     1       4.348  -4.862   1.343  0.00  0.00    -0.187 NA
ATOM     25  C   UNL     1       5.092  -3.820   1.559  0.00  0.00    +0.138 C 
BRANCH  25  26
ATOM     26  C   UNL     1       5.545  -3.510   2.927  0.00  0.00    -0.005 A 
ATOM     27  C   UNL     1       5.180  -4.339   3.991  0.00  0.00    +0.011 A 
ATOM     28  C   UNL     1       5.606  -4.045   5.268  0.00  0.00    +0.024 A 
ATOM     29  C   UNL     1       6.397  -2.925   5.499  0.00  0.00    +0.029 A 
ATOM     30  C   UNL     1       6.762  -2.098   4.442  0.00  0.00    +0.024 A 
ATOM     31  C   UNL     1       6.346  -2.388   3.162  0.00  0.00    +0.011 A 
BRANCH  29  32
ATOM     32  N   UNL     1       6.826  -2.631   6.793  0.00  0.00    -0.336 N 
ATOM     33  C   UNL     1       6.550  -3.567   7.886  0.00  0.00    +0.129 C 
ATOM     34  C   UNL     1       7.552  -1.387   7.059  0.00  0.00    +0.129 C 
ENDBRANCH  29  32
ENDBRANCH  25  26
ENDBRANCH  22  24
ENDBRANCH   2  20
TORSDOF 7
