REMARK  Name = ZINC36544133
REMARK  16 active torsions:
REMARK  status: ('A' for Active; 'I' for Inactive)
REMARK    1  A    between atoms: C_1  and  C_2
REMARK    2  A    between atoms: C_2  and  C_3
REMARK    3  A    between atoms: C_2  and  C_4
REMARK    4  A    between atoms: C_2  and  C_5
REMARK    5  A    between atoms: C_5  and  C_6
REMARK    6  A    between atoms: C_6  and  C_7
REMARK    7  A    between atoms: C_6  and  C_8
REMARK    8  A    between atoms: C_6  and  N_9
REMARK    9  A    between atoms: C_10  and  C_12
REMARK   10  A    between atoms: C_12  and  C_14
REMARK   11  A    between atoms: C_12  and  N_23
REMARK   12  A    between atoms: C_17  and  O_22
REMARK   13  A    between atoms: C_18  and  O_20
REMARK   14  A    between atoms: O_20  and  C_21
REMARK   15  A    between atoms: N_23  and  C_24
REMARK   16  A    between atoms: C_31  and  C_33
REMARK                            x       y       z     vdW  Elec       q    Type
REMARK                         _______ _______ _______ _____ _____    ______ ____
ROOT
ATOM      1  C   UNL     1       5.368  -0.574  -4.230  0.00  0.00    +0.198 C 
ENDROOT
BRANCH   1   2
ATOM      2  C   UNL     1       5.332  -1.983  -4.765  0.00  0.00    -0.014 A 
ATOM      3  C   UNL     1       6.148  -2.952  -4.212  0.00  0.00    +0.010 A 
ATOM      4  C   UNL     1       6.119  -4.245  -4.699  0.00  0.00    +0.049 A 
ATOM      5  C   UNL     1       5.270  -4.573  -5.744  0.00  0.00    +0.158 A 
ATOM      6  C   UNL     1       4.448  -3.597  -6.301  0.00  0.00    +0.162 A 
ATOM      7  C   UNL     1       4.479  -2.304  -5.804  0.00  0.00    +0.055 A 
BRANCH   6   8
ATOM      8  O   UNL     1       3.613  -3.914  -7.326  0.00  0.00    -0.491 OA
ATOM      9  C   UNL     1       2.799  -2.862  -7.848  0.00  0.00    +0.277 C 
ENDBRANCH   6   8
BRANCH   5  10
ATOM     10  O   UNL     1       5.240  -5.844  -6.225  0.00  0.00    -0.503 OA
ATOM     11  H   UNL     1       4.597  -6.417  -5.784  0.00  0.00    +0.292 HD
ENDBRANCH   5  10
ENDBRANCH   1   2
BRANCH   1  13
ATOM     12  N   UNL     1       3.401  -0.929  -2.771  0.00  0.00    -0.308 N 
ATOM     13  C   UNL     1       4.683  -0.529  -2.888  0.00  0.00    +0.239 C 
ATOM     14  O   UNL     1       5.286  -0.133  -1.913  0.00  0.00    -0.273 OA
ATOM     15  H   UNL     1       2.920  -1.246  -3.551  0.00  0.00    +0.149 HD
BRANCH  12  16
ATOM     16  C   UNL     1       2.736  -0.886  -1.467  0.00  0.00    +0.030 C 
ATOM     17  C   UNL     1       2.861   0.521  -0.877  0.00  0.00    +0.031 C 
ATOM     18  C   UNL     1       3.395  -1.894  -0.524  0.00  0.00    +0.031 C 
BRANCH  16  19
ATOM     19  C   UNL     1       1.257  -1.238  -1.637  0.00  0.00    +0.031 C 
BRANCH  19  21
ATOM     20  C   UNL     1       1.062  -1.282  -4.127  0.00  0.00    +0.010 C 
ATOM     21  C   UNL     1       0.696  -0.508  -2.859  0.00  0.00    -0.036 C 
ATOM     22  C   UNL     1       1.292   0.899  -2.931  0.00  0.00    +0.010 C 
ATOM     23  C   UNL     1      -0.826  -0.412  -2.742  0.00  0.00    +0.010 C 
ENDBRANCH  19  21
ENDBRANCH  16  19
ENDBRANCH  12  16
ENDBRANCH   1  13
BRANCH   1  24
ATOM     24  N   UNL     1       6.760  -0.143  -4.082  0.00  0.00    -0.247 N 
ATOM     25  C   UNL     1       7.553  -0.043  -5.168  0.00  0.00    +0.287 C 
ATOM     26  O   UNL     1       7.112  -0.310  -6.270  0.00  0.00    -0.266 OA
BRANCH  24  27
ATOM     27  C   UNL     1       7.267   0.164  -2.815  0.00  0.00    +0.056 A 
ATOM     28  C   UNL     1       7.859  -0.827  -2.043  0.00  0.00    +0.025 A 
ATOM     29  C   UNL     1       8.358  -0.520  -0.793  0.00  0.00    +0.002 A 
ATOM     30  C   UNL     1       8.269   0.772  -0.308  0.00  0.00    +0.002 A 
ATOM     31  C   UNL     1       7.680   1.761  -1.073  0.00  0.00    +0.022 A 
ATOM     32  C   UNL     1       7.184   1.463  -2.328  0.00  0.00    +0.062 A 
ATOM     33 CL   UNL     1       6.451   2.708  -3.292  0.00  0.00    -0.082 Cl
ENDBRANCH  24  27
BRANCH  25  34
ATOM     34  C   UNL     1       8.946   0.389  -5.020  0.00  0.00    +0.190 A 
ATOM     35  C   UNL     1       9.852   0.537  -6.032  0.00  0.00    +0.054 A 
ATOM     36  C   UNL     1      11.051   0.964  -5.440  0.00  0.00    +0.042 A 
ATOM     37  C   UNL     1      10.828   1.056  -4.111  0.00  0.00    +0.196 A 
ATOM     38  O   UNL     1       9.557   0.714  -3.862  0.00  0.00    -0.458 OA
ENDBRANCH  25  34
ENDBRANCH   1  24
TORSDOF 10
