REMARK  Name = ZINC11910444
REMARK  8 active torsions:
REMARK  status: ('A' for Active; 'I' for Inactive)
REMARK    1  A    between atoms: C_1  and  C_2
REMARK    2  A    between atoms: C_2  and  C_3
REMARK    3  A    between atoms: C_6  and  C_9
REMARK    4  A    between atoms: C_9  and  N_61
REMARK    5  A    between atoms: C_12  and  C_15
REMARK    6  A    between atoms: C_15  and  C_22
REMARK    7  A    between atoms: C_22  and  C_23
REMARK    8  A    between atoms: C_23  and  C_24
REMARK                            x       y       z     vdW  Elec       q    Type
REMARK                         _______ _______ _______ _____ _____    ______ ____
ROOT
ATOM      1  C   UNL     1      -0.729   1.579   1.267  0.00  0.00    +0.115 C 
ATOM      2  C   UNL     1      -0.779   3.094   1.293  0.00  0.00    +0.244 C 
ATOM      3  O   UNL     1       0.162   3.858   1.316  0.00  0.00    -0.273 OA
ATOM      4  N   UNL     1      -2.088   3.415   1.283  0.00  0.00    -0.238 N 
ATOM      5  C   UNL     1      -2.864   2.325   1.255  0.00  0.00    +0.307 C 
ATOM      6  O   UNL     1      -4.078   2.361   1.242  0.00  0.00    -0.252 OA
ATOM      7  N   UNL     1      -2.148   1.186   1.243  0.00  0.00    -0.285 N 
ATOM      8  H   UNL     1      -2.426   4.324   1.294  0.00  0.00    +0.159 HD
ATOM      9  H   UNL     1      -2.499   0.282   1.223  0.00  0.00    +0.151 HD
ENDROOT
BRANCH   1  12
ATOM     10  C   UNL     1      -0.117   0.957   5.016  0.00  0.00    -0.078 C 
ATOM     11  C   UNL     1      -0.775   1.547   3.766  0.00  0.00    -0.013 C 
ATOM     12  C   UNL     1      -0.039   1.042   2.522  0.00  0.00    +0.018 C 
ATOM     13  C   UNL     1      -0.067  -0.489   2.506  0.00  0.00    -0.013 C 
ATOM     14  C   UNL     1       0.569  -1.019   3.794  0.00  0.00    -0.078 C 
ATOM     15  N   UNL     1      -0.200  -0.517   4.952  0.00  0.00    +0.382 N 
ATOM     16  H   UNL     1      -1.184  -0.791   4.843  0.00  0.00    -0.081 HD
BRANCH  15  17
ATOM     17  C   UNL     1       0.326  -1.107   6.200  0.00  0.00    -0.043 C 
BRANCH  17  21
ATOM     18  C   UNL     1       0.782  -5.322   5.674  0.00  0.00    -0.048 A 
ATOM     19  C   UNL     1       1.835  -4.471   5.390  0.00  0.00    +0.004 A 
ATOM     20  C   UNL     1       1.687  -3.108   5.561  0.00  0.00    +0.002 A 
ATOM     21  C   UNL     1       0.487  -2.594   6.015  0.00  0.00    -0.064 A 
ATOM     22  C   UNL     1      -0.564  -3.445   6.303  0.00  0.00    +0.002 A 
ATOM     23  C   UNL     1      -0.418  -4.808   6.129  0.00  0.00    +0.004 A 
BRANCH  18  25
ATOM     24  C   UNL     1       1.462  -7.432   6.784  0.00  0.00    +0.009 C 
ATOM     25  C   UNL     1       0.943  -6.808   5.487  0.00  0.00    +0.032 C 
ENDBRANCH  18  25
ENDBRANCH  17  21
ENDBRANCH  15  17
ENDBRANCH   1  12
BRANCH   1  26
ATOM     26  C   UNL     1      -0.013   1.086   0.008  0.00  0.00    +0.040 C 
BRANCH  26  27
ATOM     27  C   UNL     1      -0.753   1.593  -1.232  0.00  0.00    +0.038 C 
BRANCH  27  28
ATOM     28  C   UNL     1      -0.047   1.107  -2.471  0.00  0.00    -0.047 A 
ATOM     29  C   UNL     1       0.950   1.873  -3.045  0.00  0.00    +0.003 A 
ATOM     30  C   UNL     1       1.601   1.425  -4.179  0.00  0.00    +0.000 A 
ATOM     31  C   UNL     1       1.246   0.215  -4.747  0.00  0.00    +0.000 A 
ATOM     32  C   UNL     1       0.245  -0.549  -4.176  0.00  0.00    +0.000 A 
ATOM     33  C   UNL     1      -0.402  -0.103  -3.039  0.00  0.00    +0.003 A 
ENDBRANCH  27  28
ENDBRANCH  26  27
ENDBRANCH   1  26
TORSDOF 7
