REMARK  Name = ZINC34677821
REMARK  9 active torsions:
REMARK  status: ('A' for Active; 'I' for Inactive)
REMARK    1  A    between atoms: C_4  and  C_7
REMARK    2  A    between atoms: C_7  and  C_8
REMARK    3  A    between atoms: C_8  and  C_10
REMARK    4  A    between atoms: C_8  and  O_36
REMARK    5  A    between atoms: C_10  and  N_11
REMARK    6  A    between atoms: N_14  and  C_17
REMARK    7  A    between atoms: C_17  and  C_18
REMARK    8  A    between atoms: C_20  and  C_23
REMARK    9  A    between atoms: N_28  and  C_31
REMARK                            x       y       z     vdW  Elec       q    Type
REMARK                         _______ _______ _______ _____ _____    ______ ____
ROOT
ATOM      1  C   UNL     1       7.839  -3.848   5.900  0.00  0.00    +0.019 C 
ENDROOT
BRANCH   1   5
ATOM      2  N   UNL     1       6.172  -2.001   2.504  0.00  0.00    -0.303 NA
ATOM      3  C   UNL     1       5.409  -3.082   3.144  0.00  0.00    +0.066 C 
ATOM      4  C   UNL     1       5.923  -3.289   4.571  0.00  0.00    -0.063 C 
ATOM      5  N   UNL     1       7.351  -3.631   4.532  0.00  0.00    +0.387 N 
ATOM      6  C   UNL     1       8.102  -2.531   3.913  0.00  0.00    -0.063 C 
ATOM      7  C   UNL     1       7.607  -2.317   2.481  0.00  0.00    +0.066 C 
ATOM      8  H   UNL     1       7.481  -4.473   3.992  0.00  0.00    -0.081 HD
BRANCH   2   9
ATOM      9  C   UNL     1       5.670  -1.732   1.150  0.00  0.00    +0.115 C 
BRANCH   9  10
ATOM     10  C   UNL     1       6.114  -0.336   0.709  0.00  0.00    +0.133 C 
BRANCH  10  11
ATOM     11  O   UNL     1       5.539   0.643   1.577  0.00  0.00    -0.390 OA
ATOM     12  H   UNL     1       4.572   0.640   1.587  0.00  0.00    +0.210 HD
ENDBRANCH  10  11
BRANCH  10  13
ATOM     13  C   UNL     1       5.647  -0.082  -0.726  0.00  0.00    +0.067 C 
BRANCH  13  17
ATOM     14  C   UNL     1       7.179   3.668  -2.081  0.00  0.00    +0.000 A 
ATOM     15  C   UNL     1       7.910   2.511  -2.277  0.00  0.00    +0.000 A 
ATOM     16  C   UNL     1       7.414   1.298  -1.838  0.00  0.00    +0.004 A 
ATOM     17  C   UNL     1       6.188   1.241  -1.203  0.00  0.00    -0.045 A 
ATOM     18  C   UNL     1       5.457   2.398  -1.007  0.00  0.00    +0.004 A 
ATOM     19  C   UNL     1       5.952   3.611  -1.447  0.00  0.00    +0.000 A 
ENDBRANCH  13  17
ENDBRANCH  10  13
ENDBRANCH   9  10
ENDBRANCH   2   9
ENDBRANCH   1   5
BRANCH   1  20
ATOM     20  C   UNL     1       9.271  -4.317   5.854  0.00  0.00    +0.179 A 
ATOM     21  N   UNL     1      10.316  -3.546   5.878  0.00  0.00    -0.210 NA
ATOM     22  C   UNL     1      11.429  -4.327   5.822  0.00  0.00    +0.164 A 
ATOM     23  C   UNL     1      11.008  -5.620   5.763  0.00  0.00    +0.230 A 
ATOM     24  O   UNL     1       9.666  -5.596   5.789  0.00  0.00    -0.449 OA
BRANCH  22  25
ATOM     25  C   UNL     1      12.828  -3.860   5.824  0.00  0.00    +0.268 C 
ATOM     26  O   UNL     1      13.733  -4.652   5.646  0.00  0.00    -0.268 OA
ATOM     27  N   UNL     1      13.102  -2.556   6.024  0.00  0.00    -0.300 N 
ATOM     28  C   UNL     1      12.021  -1.566   6.155  0.00  0.00    +0.089 C 
ATOM     29  C   UNL     1      12.275  -0.735   7.417  0.00  0.00    -0.059 C 
ATOM     30  N   UNL     1      13.623  -0.155   7.357  0.00  0.00    +0.384 N 
ATOM     31  C   UNL     1      14.628  -1.225   7.381  0.00  0.00    -0.059 C 
ATOM     32  C   UNL     1      14.491  -2.082   6.123  0.00  0.00    +0.089 C 
ATOM     33  H   UNL     1      13.721   0.379   6.507  0.00  0.00    -0.081 HD
BRANCH  30  34
ATOM     34  C   UNL     1      13.825   0.730   8.513  0.00  0.00    -0.068 C 
ATOM     35  C   UNL     1      12.828   1.906   8.458  0.00  0.00    -0.015 C 
ATOM     36  C   UNL     1      13.639   3.116   8.986  0.00  0.00    -0.002 C 
ATOM     37  C   UNL     1      15.045   2.874   8.383  0.00  0.00    -0.002 C 
ATOM     38  C   UNL     1      15.234   1.345   8.465  0.00  0.00    -0.015 C 
ENDBRANCH  30  34
ENDBRANCH  22  25
ENDBRANCH   1  20
TORSDOF 9
