REMARK  Name = ZINC38831916
REMARK  12 active torsions:
REMARK  status: ('A' for Active; 'I' for Inactive)
REMARK    1  A    between atoms: C_1  and  C_2
REMARK    2  A    between atoms: N_7  and  C_9
REMARK    3  A    between atoms: C_9  and  C_10
REMARK    4  A    between atoms: C_13  and  C_16
REMARK    5  A    between atoms: C_16  and  N_17
REMARK    6  A    between atoms: C_18  and  C_20
REMARK    7  A    between atoms: N_23  and  S_35
REMARK    8  A    between atoms: C_26  and  C_31
REMARK    9  A    between atoms: C_31  and  C_32
REMARK   10  A    between atoms: C_31  and  C_33
REMARK   11  A    between atoms: C_31  and  C_34
REMARK   12  A    between atoms: S_35  and  C_38
REMARK                            x       y       z     vdW  Elec       q    Type
REMARK                         _______ _______ _______ _____ _____    ______ ____
ROOT
ATOM      1  N   UNL     1       0.455  -8.725   1.381  0.00  0.00    -0.308 N 
ATOM      2  C   UNL     1       0.223 -10.047   1.253  0.00  0.00    +0.256 C 
ATOM      3  O   UNL     1       0.623 -10.817   2.100  0.00  0.00    -0.272 OA
ATOM      4  H   UNL     1       0.135  -8.109   0.703  0.00  0.00    +0.149 HD
ENDROOT
BRANCH   2   5
ATOM      5  C   UNL     1      -0.532 -10.568   0.057  0.00  0.00    +0.277 C 
ATOM      6  C   UNL     1      -1.975 -10.046   0.093  0.00  0.00    +0.185 C 
ATOM      7  N   UNL     1      -2.685 -10.620  -1.063  0.00  0.00    -0.200 N 
ATOM      8  C   UNL     1      -2.453 -11.971  -1.367  0.00  0.00    +0.093 A 
ATOM      9  C   UNL     1      -3.290 -12.638  -2.247  0.00  0.00    +0.032 A 
ATOM     10  C   UNL     1      -3.056 -13.968  -2.546  0.00  0.00    -0.040 A 
ATOM     11  C   UNL     1      -1.988 -14.630  -1.968  0.00  0.00    +0.008 A 
ATOM     12  C   UNL     1      -1.151 -13.969  -1.088  0.00  0.00    +0.048 A 
ATOM     13  C   UNL     1      -1.380 -12.636  -0.781  0.00  0.00    +0.144 A 
ATOM     14  O   UNL     1      -0.554 -11.996   0.089  0.00  0.00    -0.476 OA
BRANCH  10  15
ATOM     15  C   UNL     1      -3.964 -14.696  -3.503  0.00  0.00    -0.013 C 
ATOM     16  C   UNL     1      -3.934 -14.000  -4.865  0.00  0.00    +0.015 C 
ATOM     17  C   UNL     1      -3.488 -16.142  -3.658  0.00  0.00    +0.015 C 
ATOM     18  C   UNL     1      -5.394 -14.685  -2.957  0.00  0.00    +0.015 C 
ENDBRANCH  10  15
BRANCH   7  19
ATOM     19  S   UNL     1      -3.720  -9.702  -1.974  0.00  0.00    +0.043 S 
ATOM     20  O   UNL     1      -3.370  -8.358  -1.676  0.00  0.00    -0.155 OA
ATOM     21  O   UNL     1      -3.588 -10.210  -3.295  0.00  0.00    -0.155 OA
ATOM     22  C   UNL     1      -5.371 -10.078  -1.322  0.00  0.00    +0.218 C 
ENDBRANCH   7  19
ENDBRANCH   2   5
BRANCH   1  23
ATOM     23  C   UNL     1       1.188  -8.219   2.543  0.00  0.00    +0.139 C 
BRANCH  23  27
ATOM     24  C   UNL     1       1.536  -3.970   2.271  0.00  0.00    -0.064 A 
ATOM     25  C   UNL     1       0.449  -4.535   2.911  0.00  0.00    +0.002 A 
ATOM     26  C   UNL     1       0.336  -5.910   2.999  0.00  0.00    +0.005 A 
ATOM     27  C   UNL     1       1.310  -6.720   2.446  0.00  0.00    -0.030 A 
ATOM     28  C   UNL     1       2.397  -6.155   1.805  0.00  0.00    +0.005 A 
ATOM     29  C   UNL     1       2.507  -4.780   1.713  0.00  0.00    +0.002 A 
BRANCH  24  30
ATOM     30  C   UNL     1       1.658  -2.471   2.175  0.00  0.00    -0.043 C 
BRANCH  30  36
ATOM     31  C   UNL     1       0.257   1.488  -0.341  0.00  0.00    +0.005 C 
ATOM     32  C   UNL     1       0.245  -0.042  -0.313  0.00  0.00    -0.031 C 
ATOM     33  C   UNL     1       0.926  -0.582  -1.574  0.00  0.00    -0.001 C 
ATOM     34  C   UNL     1       0.980  -2.110  -1.498  0.00  0.00    -0.018 C 
ATOM     35  C   UNL     1       1.711  -2.527  -0.221  0.00  0.00    -0.078 C 
ATOM     36  N   UNL     1       0.997  -2.003   0.950  0.00  0.00    +0.383 N 
ATOM     37  C   UNL     1       1.003  -0.535   0.922  0.00  0.00    -0.075 C 
ATOM     38  H   UNL     1       0.044  -2.334   0.937  0.00  0.00    -0.081 HD
ENDBRANCH  30  36
ENDBRANCH  24  30
ENDBRANCH  23  27
ENDBRANCH   1  23
TORSDOF 7
