REMARK  Name = ZINC34677683
REMARK  17 active torsions:
REMARK  status: ('A' for Active; 'I' for Inactive)
REMARK    1  A    between atoms: C_1  and  C_2
REMARK    2  A    between atoms: C_2  and  N_3
REMARK    3  A    between atoms: N_3  and  C_4
REMARK    4  A    between atoms: C_4  and  C_5
REMARK    5  A    between atoms: C_6  and  C_8
REMARK    6  A    between atoms: C_15  and  C_17
REMARK    7  A    between atoms: C_20  and  C_22
REMARK    8  A    between atoms: C_22  and  N_23
REMARK    9  A    between atoms: N_26  and  C_29
REMARK   10  A    between atoms: C_29  and  C_30
REMARK   11  A    between atoms: C_30  and  C_32
REMARK   12  A    between atoms: C_30  and  O_38
REMARK   13  A    between atoms: C_32  and  O_33
REMARK   14  A    between atoms: O_33  and  C_34
REMARK   15  A    between atoms: C_34  and  C_35
REMARK   16  A    between atoms: C_35  and  C_36
REMARK   17  A    between atoms: C_35  and  C_37
REMARK                            x       y       z     vdW  Elec       q    Type
REMARK                         _______ _______ _______ _____ _____    ______ ____
ROOT
ATOM      1  C   UNL     1       3.866  -2.576   7.913  0.00  0.00    +0.164 A 
ATOM      2  C   UNL     1       3.286  -3.083   9.036  0.00  0.00    +0.230 A 
ATOM      3  O   UNL     1       4.280  -3.506   9.833  0.00  0.00    -0.449 OA
ATOM      4  C   UNL     1       5.445  -3.266   9.215  0.00  0.00    +0.179 A 
ATOM      5  N   UNL     1       5.212  -2.713   8.062  0.00  0.00    -0.210 NA
ENDROOT
BRANCH   1  12
ATOM      6  C   UNL     1       3.614  -2.007   3.251  0.00  0.00    +0.092 C 
ATOM      7  C   UNL     1       5.140  -1.982   3.150  0.00  0.00    +0.016 C 
ATOM      8  C   UNL     1       5.748  -2.587   4.417  0.00  0.00    +0.020 C 
ATOM      9  C   UNL     1       5.329  -1.750   5.630  0.00  0.00    +0.108 C 
ATOM     10  N   UNL     1       3.864  -1.649   5.652  0.00  0.00    -0.295 N 
ATOM     11  C   UNL     1       3.170  -1.164   4.450  0.00  0.00    +0.121 C 
ATOM     12  C   UNL     1       3.168  -1.995   6.753  0.00  0.00    +0.268 C 
ATOM     13  O   UNL     1       1.964  -1.827   6.789  0.00  0.00    -0.268 OA
BRANCH   6  15
ATOM     14  N   UNL     1       1.707  -1.620   1.723  0.00  0.00    -0.302 N 
ATOM     15  C   UNL     1       3.016  -1.440   1.989  0.00  0.00    +0.220 C 
ATOM     16  O   UNL     1       3.713  -0.823   1.212  0.00  0.00    -0.275 OA
BRANCH  14  18
ATOM     17  C   UNL     1       0.656   0.285   0.606  0.00  0.00    +0.024 C 
ATOM     18  C   UNL     1       1.147  -1.155   0.452  0.00  0.00    +0.104 C 
ENDBRANCH  14  18
BRANCH  14  19
ATOM     19  C   UNL     1       0.844  -2.279   2.706  0.00  0.00    +0.104 C 
ATOM     20  C   UNL     1       0.717  -3.764   2.359  0.00  0.00    +0.024 C 
ENDBRANCH  14  19
ENDBRANCH   6  15
ENDBRANCH   1  12
BRANCH   4  21
ATOM     21  C   UNL     1       6.809  -3.589   9.768  0.00  0.00    +0.019 C 
BRANCH  21  22
ATOM     22  N   UNL     1       7.308  -2.444  10.540  0.00  0.00    +0.387 N 
ATOM     23  C   UNL     1       6.451  -2.235  11.715  0.00  0.00    -0.063 C 
ATOM     24  C   UNL     1       6.959  -1.030  12.510  0.00  0.00    +0.066 C 
ATOM     25  N   UNL     1       8.346  -1.275  12.932  0.00  0.00    -0.303 NA
ATOM     26  C   UNL     1       9.211  -1.511  11.768  0.00  0.00    +0.066 C 
ATOM     27  C   UNL     1       8.684  -2.711  10.978  0.00  0.00    -0.063 C 
ATOM     28  H   UNL     1       7.294  -1.617   9.963  0.00  0.00    -0.081 HD
BRANCH  25  29
ATOM     29  C   UNL     1       8.852  -0.164  13.748  0.00  0.00    +0.117 C 
BRANCH  29  30
ATOM     30  C   UNL     1       8.247  -0.244  15.151  0.00  0.00    +0.154 C 
BRANCH  30  31
ATOM     31  O   UNL     1       8.714  -1.426  15.804  0.00  0.00    -0.388 OA
ATOM     32  H   UNL     1       9.675  -1.465  15.905  0.00  0.00    +0.210 HD
ENDBRANCH  30  31
BRANCH  30  33
ATOM     33  C   UNL     1       8.667   0.985  15.959  0.00  0.00    +0.192 C 
BRANCH  33  34
ATOM     34  O   UNL     1       8.009   0.969  17.227  0.00  0.00    -0.377 OA
BRANCH  34  35
ATOM     35  C   UNL     1       8.334   2.081  18.064  0.00  0.00    +0.163 C 
BRANCH  35  36
ATOM     36  C   UNL     1       7.577   1.960  19.389  0.00  0.00    +0.009 C 
ATOM     37  C   UNL     1       8.069   0.725  20.146  0.00  0.00    +0.009 C 
ATOM     38  C   UNL     1       7.827   3.210  20.235  0.00  0.00    +0.009 C 
ENDBRANCH  35  36
ENDBRANCH  34  35
ENDBRANCH  33  34
ENDBRANCH  30  33
ENDBRANCH  29  30
ENDBRANCH  25  29
ENDBRANCH  21  22
ENDBRANCH   4  21
TORSDOF 13
