REMARK  Name = ZINC11067933
REMARK  7 active torsions:
REMARK  status: ('A' for Active; 'I' for Inactive)
REMARK    1  A    between atoms: C_1  and  C_2
REMARK    2  A    between atoms: C_15  and  C_17
REMARK    3  A    between atoms: C_17  and  N_52
REMARK    4  A    between atoms: C_18  and  N_52
REMARK    5  A    between atoms: C_19  and  C_20
REMARK    6  A    between atoms: C_19  and  N_52
REMARK    7  A    between atoms: N_22  and  C_23
REMARK                            x       y       z     vdW  Elec       q    Type
REMARK                         _______ _______ _______ _____ _____    ______ ____
ROOT
ATOM      1  C   UNL     1      -1.281  -6.252   0.165  0.00  0.00    +0.019 C 
ENDROOT
BRANCH   1  15
ATOM      2  C   UNL     1      -4.820  -9.081   1.113  0.00  0.00    +0.029 C 
ATOM      3  C   UNL     1      -4.360  -8.499  -0.225  0.00  0.00    +0.087 C 
ATOM      4  C   UNL     1      -4.444  -9.578  -1.311  0.00  0.00    +0.118 C 
ATOM      5  C   UNL     1      -3.638  -9.170  -2.515  0.00  0.00    +0.219 C 
ATOM      6  O   UNL     1      -4.203  -8.771  -3.511  0.00  0.00    -0.275 OA
ATOM      7  N   UNL     1      -2.289  -9.245  -2.493  0.00  0.00    -0.284 N 
ATOM      8  C   UNL     1      -1.618  -9.612  -1.321  0.00  0.00    +0.055 A 
ATOM      9  C   UNL     1      -0.619 -10.571  -1.346  0.00  0.00    +0.025 A 
ATOM     10  C   UNL     1       0.069 -10.877  -0.186  0.00  0.00    +0.002 A 
ATOM     11  C   UNL     1      -0.238 -10.231   0.998  0.00  0.00    +0.002 A 
ATOM     12  C   UNL     1      -1.242  -9.281   1.033  0.00  0.00    +0.025 A 
ATOM     13  C   UNL     1      -1.942  -8.975  -0.123  0.00  0.00    +0.058 A 
ATOM     14  N   UNL     1      -2.978  -8.031  -0.102  0.00  0.00    -0.268 N 
ATOM     15  C   UNL     1      -2.708  -6.718   0.034  0.00  0.00    +0.204 C 
ATOM     16  O   UNL     1      -3.613  -5.911   0.050  0.00  0.00    -0.277 OA
ATOM     17  H   UNL     1      -1.782  -9.043  -3.295  0.00  0.00    +0.155 HD
ENDBRANCH   1  15
BRANCH   1  19
ATOM     18  C   UNL     1      -1.877  -4.364   1.560  0.00  0.00    -0.095 C 
ATOM     19  N   UNL     1      -1.269  -4.778   0.278  0.00  0.00    +0.389 N 
ATOM     20  H   UNL     1      -1.816  -4.380  -0.495  0.00  0.00    -0.081 HD
BRANCH  19  21
ATOM     21  C   UNL     1       0.118  -4.276   0.192  0.00  0.00    +0.019 C 
BRANCH  21  22
ATOM     22  C   UNL     1       0.086  -2.773   0.087  0.00  0.00    +0.201 C 
ATOM     23  O   UNL     1      -0.976  -2.187   0.101  0.00  0.00    -0.278 OA
ATOM     24  N   UNL     1       1.237  -2.080  -0.021  0.00  0.00    -0.286 N 
ATOM     25  H   UNL     1       2.081  -2.551  -0.098  0.00  0.00    +0.155 HD
BRANCH  24  26
ATOM     26  C   UNL     1       1.214  -0.680  -0.024  0.00  0.00    +0.053 A 
ATOM     27  C   UNL     1       0.155  -0.003  -0.616  0.00  0.00    +0.044 A 
ATOM     28  C   UNL     1       0.135   1.379  -0.617  0.00  0.00    +0.043 A 
ATOM     29  C   UNL     1       1.169   2.088  -0.030  0.00  0.00    +0.021 A 
ATOM     30  C   UNL     1       2.224   1.417   0.560  0.00  0.00    +0.023 A 
ATOM     31  C   UNL     1       2.249   0.035   0.565  0.00  0.00    +0.062 A 
ATOM     32 CL   UNL     1       3.575  -0.807   1.305  0.00  0.00    -0.082 Cl
ATOM     33 CL   UNL     1      -1.184   2.226  -1.363  0.00  0.00    -0.083 Cl
ENDBRANCH  24  26
ENDBRANCH  21  22
ENDBRANCH  19  21
ENDBRANCH   1  19
TORSDOF 5
