REMARK  Name = ZINC62485687
REMARK  9 active torsions:
REMARK  status: ('A' for Active; 'I' for Inactive)
REMARK    1  A    between atoms: C_1  and  C_2
REMARK    2  A    between atoms: C_2  and  N_3
REMARK    3  A    between atoms: N_3  and  C_4
REMARK    4  A    between atoms: N_3  and  C_6
REMARK    5  A    between atoms: C_4  and  C_5
REMARK    6  A    between atoms: C_6  and  C_7
REMARK    7  A    between atoms: C_6  and  C_8
REMARK    8  A    between atoms: C_8  and  N_9
REMARK    9  A    between atoms: C_15  and  C_18
REMARK                            x       y       z     vdW  Elec       q    Type
REMARK                         _______ _______ _______ _____ _____    ______ ____
ROOT
ATOM      1  N   UNL     1      -3.420  -1.962  -1.126  0.00  0.00    -0.301 N 
ATOM      2  C   UNL     1      -4.714  -2.181  -1.433  0.00  0.00    +0.302 C 
ATOM      3  O   UNL     1      -5.447  -2.722  -0.628  0.00  0.00    -0.253 OA
ATOM      4  N   UNL     1      -5.195  -1.801  -2.633  0.00  0.00    -0.286 N 
ATOM      5  C   UNL     1      -4.300  -1.248  -3.658  0.00  0.00    +0.110 C 
ATOM      6  C   UNL     1      -4.855   0.102  -4.122  0.00  0.00    +0.028 C 
ATOM      7  C   UNL     1      -6.303  -0.078  -4.584  0.00  0.00    +0.039 C 
ATOM      8  C   UNL     1      -7.155  -0.575  -3.414  0.00  0.00    +0.028 C 
ATOM      9  C   UNL     1      -6.625  -1.938  -2.944  0.00  0.00    +0.110 C 
ATOM     10  H   UNL     1      -2.853  -1.469  -1.739  0.00  0.00    +0.150 HD
ENDROOT
BRANCH   7  11
ATOM     11  C   UNL     1      -6.842   1.241  -5.073  0.00  0.00    +0.020 A 
ATOM     12  C   UNL     1      -6.526   2.441  -4.560  0.00  0.00    +0.031 A 
ATOM     13  C   UNL     1      -7.268   3.444  -5.327  0.00  0.00    -0.000 A 
ATOM     14  C   UNL     1      -7.357   4.836  -5.273  0.00  0.00    +0.010 A 
ATOM     15  C   UNL     1      -8.162   5.499  -6.156  0.00  0.00    +0.001 A 
ATOM     16  C   UNL     1      -8.894   4.799  -7.106  0.00  0.00    +0.002 A 
ATOM     17  C   UNL     1      -8.821   3.425  -7.176  0.00  0.00    +0.026 A 
ATOM     18  C   UNL     1      -8.007   2.730  -6.288  0.00  0.00    +0.047 A 
ATOM     19  N   UNL     1      -7.722   1.395  -6.110  0.00  0.00    -0.358 N 
ATOM     20  H   UNL     1      -8.091   0.671  -6.639  0.00  0.00    +0.166 HD
ENDBRANCH   7  11
BRANCH   1  21
ATOM     21  C   UNL     1      -2.871  -2.468   0.134  0.00  0.00    +0.090 C 
BRANCH  21  22
ATOM     22  C   UNL     1      -1.431  -1.975   0.297  0.00  0.00    -0.054 C 
ATOM     23  C   UNL     1      -0.888  -2.428   1.654  0.00  0.00    -0.012 C 
BRANCH  22  24
ATOM     24  N   UNL     1      -1.405  -0.508   0.224  0.00  0.00    +0.382 N 
ATOM     25  H   UNL     1      -1.824  -0.208  -0.643  0.00  0.00    -0.081 HD
BRANCH  24  27
ATOM     26  C   UNL     1      -2.238   1.573   1.209  0.00  0.00    -0.017 C 
ATOM     27  C   UNL     1      -2.159   0.052   1.353  0.00  0.00    -0.082 C 
ENDBRANCH  24  27
BRANCH  24  28
ATOM     28  C   UNL     1      -0.014  -0.040   0.283  0.00  0.00    -0.082 C 
ATOM     29  C   UNL     1       0.736  -0.509  -0.966  0.00  0.00    -0.017 C 
ENDBRANCH  24  28
ENDBRANCH  22  24
ENDBRANCH  21  22
ENDBRANCH   1  21
TORSDOF 6
