REMARK  Name = ZINC36559239
REMARK  5 active torsions:
REMARK  status: ('A' for Active; 'I' for Inactive)
REMARK    1  A    between atoms: C_1  and  C_2
REMARK    2  A    between atoms: C_2  and  C_29
REMARK    3  A    between atoms: C_6  and  C_19
REMARK    4  A    between atoms: C_9  and  N_18
REMARK    5  A    between atoms: C_10  and  C_16
REMARK                            x       y       z     vdW  Elec       q    Type
REMARK                         _______ _______ _______ _____ _____    ______ ____
ROOT
ATOM      1  C   UNL     1      -0.019   1.526   0.010  0.00  0.00    +0.012 C 
ATOM      2  C   UNL     1       0.002  -0.004   0.002  0.00  0.00    -0.021 C 
ATOM      3  C   UNL     1       0.741  -0.501  -1.242  0.00  0.00    +0.081 C 
ATOM      4  C   UNL     1       2.166  -0.002  -1.220  0.00  0.00    +0.115 C 
ATOM      5  C   UNL     1       2.808   0.192  -0.053  0.00  0.00    +0.045 C 
ATOM      6  C   UNL     1       4.233   0.687  -0.029  0.00  0.00    +0.093 C 
ATOM      7  C   UNL     1       4.584   1.332  -1.340  0.00  0.00    +0.048 A 
ATOM      8  C   UNL     1       5.675   2.192  -1.420  0.00  0.00    +0.055 A 
ATOM      9  C   UNL     1       5.972   2.779  -2.667  0.00  0.00    +0.112 A 
ATOM     10  C   UNL     1       5.155   2.470  -3.768  0.00  0.00    +0.139 A 
ATOM     11  N   UNL     1       4.130   1.646  -3.633  0.00  0.00    -0.196 NA
ATOM     12  C   UNL     1       3.827   1.077  -2.471  0.00  0.00    +0.228 A 
ATOM     13  O   UNL     1       2.768   0.240  -2.399  0.00  0.00    -0.441 OA
ATOM     14  N   UNL     1       5.424   3.035  -5.002  0.00  0.00    -0.342 N 
ATOM     15  C   UNL     1       2.173  -0.054   1.180  0.00  0.00    +0.164 C 
ATOM     16  O   UNL     1       2.792   0.110   2.212  0.00  0.00    -0.292 OA
ATOM     17  C   UNL     1       0.743  -0.516   1.242  0.00  0.00    +0.086 C 
ATOM     18  C   UNL     1      -1.432  -0.538   0.002  0.00  0.00    +0.012 C 
ATOM     19  H   UNL     1       6.175   3.641  -5.105  0.00  0.00    +0.144 HD
ATOM     20  H   UNL     1       4.863   2.824  -5.764  0.00  0.00    +0.144 HD
ENDROOT
BRANCH   6  21
ATOM     21  C   UNL     1       5.161  -0.476   0.214  0.00  0.00    -0.034 A 
ATOM     22  C   UNL     1       5.192  -1.534  -0.676  0.00  0.00    +0.004 A 
ATOM     23  C   UNL     1       6.042  -2.600  -0.453  0.00  0.00    +0.002 A 
ATOM     24  C   UNL     1       6.862  -2.610   0.660  0.00  0.00    +0.020 A 
ATOM     25  C   UNL     1       6.831  -1.552   1.550  0.00  0.00    +0.041 A 
ATOM     26  C   UNL     1       5.984  -0.482   1.324  0.00  0.00    +0.024 A 
ATOM     27 CL   UNL     1       7.861  -1.564   2.948  0.00  0.00    -0.084 Cl
ENDBRANCH   6  21
BRANCH   8  28
ATOM     28  N   UNL     1       6.449   2.464  -0.303  0.00  0.00    -0.357 N 
ATOM     29  H   UNL     1       6.233   2.053   0.549  0.00  0.00    +0.142 HD
ATOM     30  H   UNL     1       7.207   3.065  -0.373  0.00  0.00    +0.142 HD
ENDBRANCH   8  28
BRANCH   9  31
ATOM     31  C   UNL     1       7.083   3.671  -2.809  0.00  0.00    +0.104 C 
ATOM     32  N   UNL     1       7.965   4.378  -2.921  0.00  0.00    -0.191 NA
ENDBRANCH   9  31
TORSDOF 3
