REMARK  Name = ZINC15468462
REMARK  8 active torsions:
REMARK  status: ('A' for Active; 'I' for Inactive)
REMARK    1  A    between atoms: C_1  and  C_2
REMARK    2  A    between atoms: C_2  and  C_3
REMARK    3  A    between atoms: C_4  and  C_30
REMARK    4  A    between atoms: C_6  and  C_8
REMARK    5  A    between atoms: N_10  and  N_11
REMARK    6  A    between atoms: C_12  and  C_14
REMARK    7  A    between atoms: C_18  and  S_20
REMARK    8  A    between atoms: S_20  and  N_23
REMARK                            x       y       z     vdW  Elec       q    Type
REMARK                         _______ _______ _______ _____ _____    ______ ____
ROOT
ATOM      1  N   UNL     1      -4.931   1.652   0.033  0.00  0.00    -0.230 N 
ATOM      2  C   UNL     1      -5.967   2.514   0.043  0.00  0.00    +0.260 C 
ATOM      3  O   UNL     1      -5.761   3.712   0.049  0.00  0.00    -0.269 OA
ATOM      4  H   UNL     1      -5.095   0.697   0.028  0.00  0.00    +0.173 HD
ENDROOT
BRANCH   2   5
ATOM      5  C   UNL     1      -7.354   2.002   0.046  0.00  0.00    +0.040 A 
ATOM      6  C   UNL     1      -7.594   0.627   0.033  0.00  0.00    +0.013 A 
ATOM      7  C   UNL     1      -8.890   0.157   0.042  0.00  0.00    +0.003 A 
ATOM      8  C   UNL     1      -9.952   1.044   0.052  0.00  0.00    +0.028 A 
ATOM      9  C   UNL     1      -9.721   2.408   0.059  0.00  0.00    +0.106 A 
ATOM     10  C   UNL     1      -8.429   2.892   0.056  0.00  0.00    +0.041 A 
BRANCH   9  11
ATOM     11  S   UNL     1     -11.080   3.529   0.070  0.00  0.00    +0.061 S 
ATOM     12  O   UNL     1     -12.184   2.825   0.622  0.00  0.00    -0.153 OA
ATOM     13  O   UNL     1     -10.598   4.745   0.626  0.00  0.00    -0.153 OA
BRANCH  11  14
ATOM     14  N   UNL     1     -11.464   3.849  -1.508  0.00  0.00    -0.177 NA
ATOM     15  C   UNL     1     -10.822   4.966  -2.165  0.00  0.00    +0.109 C 
ATOM     16  C   UNL     1     -11.649   6.250  -1.948  0.00  0.00    +0.017 C 
ATOM     17  C   UNL     1     -12.895   6.193  -2.727  0.00  0.00    +0.001 C 
ATOM     18  C   UNL     1     -13.837   5.063  -2.325  0.00  0.00    +0.001 C 
ATOM     19  C   UNL     1     -13.438   3.799  -3.045  0.00  0.00    +0.017 C 
ATOM     20  C   UNL     1     -12.453   2.987  -2.184  0.00  0.00    +0.109 C 
ENDBRANCH  11  14
ENDBRANCH   9  11
ENDBRANCH   2   5
BRANCH   1  23
ATOM     21  C   UNL     1      -2.580   1.276   0.021  0.00  0.00    +0.267 C 
ATOM     22  O   UNL     1      -2.786   0.076   0.015  0.00  0.00    -0.268 OA
ATOM     23  N   UNL     1      -3.616   2.137   0.030  0.00  0.00    -0.230 N 
ATOM     24  H   UNL     1      -3.452   3.093   0.035  0.00  0.00    +0.173 HD
BRANCH  21  28
ATOM     25  C   UNL     1       1.077   3.165   0.009  0.00  0.00    -0.007 A 
ATOM     26  C   UNL     1       1.149   1.808   0.001  0.00  0.00    -0.040 A 
ATOM     27  C   UNL     1      -0.013   1.076   0.008  0.00  0.00    +0.024 A 
ATOM     28  C   UNL     1      -1.205   1.783   0.017  0.00  0.00    +0.076 A 
ATOM     29  S   UNL     1      -0.629   3.471   0.027  0.00  0.00    -0.088 S 
ATOM     30  C   UNL     1       2.487   1.115  -0.015  0.00  0.00    +0.044 C 
BRANCH  25  32
ATOM     31  C   UNL     1       2.576   4.507  -1.441  0.00  0.00    +0.009 C 
ATOM     32  C   UNL     1       2.207   4.162   0.003  0.00  0.00    +0.039 C 
ENDBRANCH  25  32
ENDBRANCH  21  28
ENDBRANCH   1  23
TORSDOF 6
