REMARK  Name = ZINC13986323
REMARK  7 active torsions:
REMARK  status: ('A' for Active; 'I' for Inactive)
REMARK    1  A    between atoms: C_4  and  C_7
REMARK    2  A    between atoms: C_7  and  C_31
REMARK    3  A    between atoms: N_10  and  N_14
REMARK    4  A    between atoms: C_15  and  C_17
REMARK    5  A    between atoms: C_17  and  C_18
REMARK    6  A    between atoms: C_18  and  C_19
REMARK    7  A    between atoms: C_19  and  N_20
REMARK                            x       y       z     vdW  Elec       q    Type
REMARK                         _______ _______ _______ _____ _____    ______ ____
ROOT
ATOM      1  C   UNL     1       4.368   0.284   0.574  0.00  0.00    +0.165 C 
ATOM      2  C   UNL     1       3.373   0.341   1.717  0.00  0.00    +0.272 C 
ATOM      3  O   UNL     1       3.545  -0.037   2.856  0.00  0.00    -0.270 OA
ATOM      4  N   UNL     1       2.259   0.897   1.202  0.00  0.00    -0.137 N 
ATOM      5  C   UNL     1       2.412   1.203  -0.091  0.00  0.00    +0.327 C 
ATOM      6  O   UNL     1       1.546   1.719  -0.770  0.00  0.00    -0.251 OA
ATOM      7  N   UNL     1       3.632   0.877  -0.555  0.00  0.00    -0.276 N 
ATOM      8  H   UNL     1       3.962   1.008  -1.458  0.00  0.00    +0.152 HD
ENDROOT
BRANCH   1  12
ATOM      9  C   UNL     1       5.449  -3.757  -0.292  0.00  0.00    +0.000 A 
ATOM     10  C   UNL     1       5.478  -3.298   1.011  0.00  0.00    +0.000 A 
ATOM     11  C   UNL     1       5.128  -1.990   1.292  0.00  0.00    +0.006 A 
ATOM     12  C   UNL     1       4.749  -1.141   0.269  0.00  0.00    -0.011 A 
ATOM     13  C   UNL     1       4.715  -1.602  -1.035  0.00  0.00    +0.006 A 
ATOM     14  C   UNL     1       5.070  -2.908  -1.315  0.00  0.00    +0.000 A 
ENDBRANCH   1  12
BRANCH   1  15
ATOM     15  C   UNL     1       5.592   1.101   0.897  0.00  0.00    -0.011 A 
ATOM     16  C   UNL     1       6.280   0.880   2.075  0.00  0.00    +0.006 A 
ATOM     17  C   UNL     1       7.406   1.627   2.369  0.00  0.00    +0.000 A 
ATOM     18  C   UNL     1       7.838   2.601   1.489  0.00  0.00    +0.000 A 
ATOM     19  C   UNL     1       7.147   2.826   0.313  0.00  0.00    +0.000 A 
ATOM     20  C   UNL     1       6.024   2.076   0.017  0.00  0.00    +0.006 A 
ENDBRANCH   1  15
BRANCH   4  21
ATOM     21  N   UNL     1       1.087   1.132   1.933  0.00  0.00    -0.224 N 
ATOM     22  C   UNL     1       0.010   0.341   1.752  0.00  0.00    +0.230 C 
ATOM     23  O   UNL     1       0.056  -0.573   0.957  0.00  0.00    -0.274 OA
ATOM     24  H   UNL     1       1.050   1.863   2.570  0.00  0.00    +0.174 HD
BRANCH  22  25
ATOM     25  C   UNL     1      -1.252   0.597   2.534  0.00  0.00    +0.099 C 
BRANCH  25  26
ATOM     26  C   UNL     1      -2.314  -0.430   2.138  0.00  0.00    +0.029 C 
BRANCH  26  27
ATOM     27  C   UNL     1      -3.596  -0.170   2.932  0.00  0.00    +0.118 C 
BRANCH  27  28
ATOM     28  N   UNL     1      -4.614  -1.154   2.552  0.00  0.00    -0.224 N 
ATOM     29  C   UNL     1      -4.780  -2.348   3.162  0.00  0.00    +0.246 C 
ATOM     30  O   UNL     1      -4.143  -2.794   4.092  0.00  0.00    -0.273 OA
ATOM     31  C   UNL     1      -5.928  -3.006   2.440  0.00  0.00    +0.113 C 
ATOM     32  C   UNL     1      -7.089  -3.298   3.401  0.00  0.00    +0.035 C 
ATOM     33  C   UNL     1      -7.682  -4.631   2.877  0.00  0.00    +0.003 C 
ATOM     34  C   UNL     1      -6.424  -5.416   2.427  0.00  0.00    +0.003 C 
ATOM     35  C   UNL     1      -5.502  -4.337   1.816  0.00  0.00    +0.035 C 
ATOM     36  N   UNL     1      -6.321  -2.037   1.415  0.00  0.00    -0.285 N 
ATOM     37  C   UNL     1      -5.498  -0.979   1.561  0.00  0.00    +0.309 C 
ATOM     38  O   UNL     1      -5.549   0.018   0.870  0.00  0.00    -0.252 OA
ATOM     39  H   UNL     1      -7.034  -2.134   0.765  0.00  0.00    +0.151 HD
ENDBRANCH  27  28
ENDBRANCH  26  27
ENDBRANCH  25  26
ENDBRANCH  22  25
ENDBRANCH   4  21
TORSDOF 7
