REMARK  Name = ZINC09648311
REMARK  7 active torsions:
REMARK  status: ('A' for Active; 'I' for Inactive)
REMARK    1  A    between atoms: C_4  and  N_7
REMARK    2  A    between atoms: C_12  and  N_24
REMARK    3  A    between atoms: N_16  and  C_17
REMARK    4  A    between atoms: C_17  and  C_18
REMARK    5  A    between atoms: N_24  and  C_25
REMARK    6  A    between atoms: C_28  and  S_31
REMARK    7  A    between atoms: S_31  and  C_32
REMARK                            x       y       z     vdW  Elec       q    Type
REMARK                         _______ _______ _______ _____ _____    ______ ____
ROOT
ATOM      1  N   UNL     1       6.591   6.822  -1.383  0.00  0.00    -0.214 N 
ATOM      2  C   UNL     1       5.332   6.316  -1.225  0.00  0.00    +0.170 A 
ATOM      3  C   UNL     1       4.457   7.203  -1.881  0.00  0.00    +0.079 A 
ATOM      4  C   UNL     1       5.249   8.239  -2.424  0.00  0.00    +0.148 A 
ATOM      5  N   UNL     1       6.496   8.006  -2.126  0.00  0.00    -0.172 NA
ATOM      6  C   UNL     1       3.079   6.914  -1.872  0.00  0.00    +0.139 A 
ATOM      7  N   UNL     1       2.666   5.818  -1.246  0.00  0.00    -0.199 NA
ATOM      8  C   UNL     1       3.526   5.009  -0.640  0.00  0.00    +0.219 A 
ATOM      9  N   UNL     1       4.827   5.244  -0.618  0.00  0.00    -0.195 NA
ATOM     10  N   UNL     1       3.042   3.880  -0.002  0.00  0.00    -0.311 N 
ATOM     11  H   UNL     1       3.655   3.276   0.447  0.00  0.00    +0.149 HD
ENDROOT
BRANCH   1  15
ATOM     12  C   UNL     1      10.107   5.137   0.090  0.00  0.00    +0.000 A 
ATOM     13  C   UNL     1      10.113   5.794  -1.127  0.00  0.00    +0.002 A 
ATOM     14  C   UNL     1       8.950   6.354  -1.618  0.00  0.00    +0.028 A 
ATOM     15  C   UNL     1       7.773   6.256  -0.888  0.00  0.00    +0.068 A 
ATOM     16  C   UNL     1       7.770   5.601   0.337  0.00  0.00    +0.028 A 
ATOM     17  C   UNL     1       8.936   5.038   0.819  0.00  0.00    +0.002 A 
ENDBRANCH   1  15
BRANCH   6  18
ATOM     18  N   UNL     1       2.177   7.751  -2.501  0.00  0.00    -0.299 N 
ATOM     19  H   UNL     1       2.479   8.588  -2.886  0.00  0.00    +0.154 HD
BRANCH  18  20
ATOM     20  C   UNL     1       0.826   7.390  -2.583  0.00  0.00    +0.032 A 
ATOM     21  C   UNL     1       0.471   6.052  -2.701  0.00  0.00    +0.024 A 
ATOM     22  C   UNL     1      -0.861   5.696  -2.777  0.00  0.00    +0.017 A 
ATOM     23  C   UNL     1      -1.845   6.676  -2.746  0.00  0.00    +0.013 A 
ATOM     24  C   UNL     1      -1.489   8.014  -2.634  0.00  0.00    +0.017 A 
ATOM     25  C   UNL     1      -0.158   8.370  -2.553  0.00  0.00    +0.024 A 
BRANCH  23  26
ATOM     26  S   UNL     1      -3.544   6.221  -2.850  0.00  0.00    -0.056 S 
BRANCH  26  27
ATOM     27  C   UNL     1      -3.508   4.413  -2.981  0.00  0.00    +0.404 C 
ATOM     28  F   UNL     1      -2.792   4.042  -4.124  0.00  0.00    -0.197 F 
ATOM     29  F   UNL     1      -2.887   3.876  -1.847  0.00  0.00    -0.197 F 
ENDBRANCH  26  27
ENDBRANCH  23  26
ENDBRANCH  18  20
ENDBRANCH   6  18
BRANCH  10  30
ATOM     30  C   UNL     1       1.605   3.597  -0.004  0.00  0.00    +0.136 C 
BRANCH  30  31
ATOM     31  C   UNL     1       1.339   2.300   0.765  0.00  0.00    +0.135 C 
ATOM     32  C   UNL     1      -0.176   1.975   0.779  0.00  0.00    +0.035 C 
ATOM     33  C   UNL     1      -0.176   0.441   0.986  0.00  0.00    +0.031 C 
ATOM     34  C   UNL     1       1.229  -0.001   0.536  0.00  0.00    +0.160 C 
ATOM     35  O   UNL     1       1.919   1.173   0.075  0.00  0.00    -0.375 OA
ENDBRANCH  30  31
ENDBRANCH  10  30
TORSDOF 7
