REMARK  Name = ZINC39449347
REMARK  6 active torsions:
REMARK  status: ('A' for Active; 'I' for Inactive)
REMARK    1  A    between atoms: C_1  and  O_2
REMARK    2  A    between atoms: O_2  and  C_3
REMARK    3  A    between atoms: N_9  and  S_12
REMARK    4  A    between atoms: S_12  and  C_13
REMARK    5  A    between atoms: C_17  and  C_20
REMARK    6  A    between atoms: C_25  and  O_26
REMARK                            x       y       z     vdW  Elec       q    Type
REMARK                         _______ _______ _______ _____ _____    ______ ____
ROOT
ATOM      1  C   UNL     1       0.636  -0.893   0.965  0.00  0.00    +0.139 A 
ATOM      2  C   UNL     1       0.724  -2.276   1.079  0.00  0.00    +0.062 A 
ATOM      3  C   UNL     1       1.378  -2.799   2.194  0.00  0.00    +0.071 A 
ATOM      4  C   UNL     1       1.920  -1.917   3.154  0.00  0.00    +0.099 A 
ATOM      5  C   UNL     1       2.603  -2.495   4.319  0.00  0.00    +0.082 A 
ATOM      6  C   UNL     1       2.701  -3.869   4.446  0.00  0.00    +0.122 A 
ATOM      7  N   UNL     1       2.156  -4.715   3.488  0.00  0.00    -0.245 N 
ATOM      8  C   UNL     1       1.518  -4.248   2.399  0.00  0.00    +0.271 A 
ATOM      9  O   UNL     1       1.057  -5.025   1.584  0.00  0.00    -0.266 OA
ATOM     10  C   UNL     1       3.367  -4.424   5.561  0.00  0.00    +0.184 C 
ATOM     11  O   UNL     1       3.409  -5.631   5.696  0.00  0.00    -0.290 OA
ATOM     12  C   UNL     1       4.026  -3.536   6.584  0.00  0.00    +0.108 C 
ATOM     13  C   UNL     1       3.275  -2.201   6.656  0.00  0.00    +0.112 C 
ATOM     14  N   UNL     1       3.143  -1.673   5.290  0.00  0.00    -0.333 N 
ATOM     15  N   UNL     1       1.809  -0.604   2.996  0.00  0.00    -0.249 NA
ATOM     16  C   UNL     1       1.202  -0.087   1.951  0.00  0.00    +0.157 A 
ATOM     17  H   UNL     1       3.428  -0.771   5.075  0.00  0.00    +0.147 HD
ENDROOT
BRANCH  13  18
ATOM     18  C   UNL     1       1.908  -2.418   7.253  0.00  0.00    +0.014 A 
ATOM     19  C   UNL     1       0.795  -2.451   6.435  0.00  0.00    +0.009 A 
ATOM     20  C   UNL     1      -0.460  -2.650   6.982  0.00  0.00    +0.001 A 
ATOM     21  C   UNL     1      -0.603  -2.817   8.347  0.00  0.00    +0.004 A 
ATOM     22  C   UNL     1       0.507  -2.785   9.168  0.00  0.00    +0.046 A 
ATOM     23  C   UNL     1       1.768  -2.591   8.622  0.00  0.00    +0.122 A 
BRANCH  23  24
ATOM     24  O   UNL     1       2.862  -2.565   9.427  0.00  0.00    -0.506 OA
ATOM     25  H   UNL     1       3.084  -1.685   9.760  0.00  0.00    +0.292 HD
ENDBRANCH  23  24
ENDBRANCH  13  18
BRANCH   1  27
ATOM     26  C   UNL     1      -0.035   1.094  -0.151  0.00  0.00    +0.277 C 
ATOM     27  O   UNL     1       0.009  -0.333  -0.101  0.00  0.00    -0.494 OA
ENDBRANCH   1  27
BRANCH   7  28
ATOM     28  S   UNL     1       2.297  -6.352   3.692  0.00  0.00    -0.044 S 
ATOM     29  C   UNL     1       0.812  -6.807   4.630  0.00  0.00    +0.110 C 
ENDBRANCH   7  28
TORSDOF 4
