REMARK  Name = ZINC13121160
REMARK  7 active torsions:
REMARK  status: ('A' for Active; 'I' for Inactive)
REMARK    1  A    between atoms: C_4  and  C_7
REMARK    2  A    between atoms: C_7  and  S_8
REMARK    3  A    between atoms: S_8  and  N_11
REMARK    4  A    between atoms: N_14  and  C_17
REMARK    5  A    between atoms: C_17  and  C_18
REMARK    6  A    between atoms: N_20  and  C_21
REMARK    7  A    between atoms: N_20  and  C_27
REMARK                            x       y       z     vdW  Elec       q    Type
REMARK                         _______ _______ _______ _____ _____    ______ ____
ROOT
ATOM      1  N   UNL     1       5.999  -1.407  -2.011  0.00  0.00    -0.184 NA
ATOM      2  C   UNL     1       7.328  -0.786  -1.901  0.00  0.00    +0.090 C 
ATOM      3  C   UNL     1       8.012  -1.333  -0.638  0.00  0.00    -0.061 C 
ATOM      4  N   UNL     1       8.015  -2.801  -0.685  0.00  0.00    +0.387 N 
ATOM      5  C   UNL     1       6.647  -3.337  -0.671  0.00  0.00    -0.061 C 
ATOM      6  C   UNL     1       5.907  -2.873  -1.929  0.00  0.00    +0.090 C 
ATOM      7  H   UNL     1       8.483  -3.104  -1.633  0.00  0.00    -0.081 HD
ENDROOT
BRANCH   1   8
ATOM      8  S   UNL     1       4.644  -0.481  -2.229  0.00  0.00    +0.036 S 
ATOM      9  O   UNL     1       3.723  -1.336  -2.891  0.00  0.00    -0.158 OA
ATOM     10  O   UNL     1       5.112   0.705  -2.858  0.00  0.00    -0.158 OA
BRANCH   8  11
ATOM     11  C   UNL     1       4.059  -0.110  -0.553  0.00  0.00    +0.220 C 
BRANCH  11  15
ATOM     12  C   UNL     1       0.534   2.293  -0.775  0.00  0.00    +0.000 A 
ATOM     13  C   UNL     1       1.778   2.894  -0.722  0.00  0.00    +0.000 A 
ATOM     14  C   UNL     1       2.918   2.116  -0.650  0.00  0.00    +0.005 A 
ATOM     15  C   UNL     1       2.815   0.738  -0.631  0.00  0.00    -0.025 A 
ATOM     16  C   UNL     1       1.571   0.137  -0.683  0.00  0.00    +0.005 A 
ATOM     17  C   UNL     1       0.431   0.915  -0.755  0.00  0.00    +0.000 A 
ENDBRANCH  11  15
ENDBRANCH   8  11
ENDBRANCH   1   8
BRANCH   4  18
ATOM     18  C   UNL     1       8.812  -3.362   0.414  0.00  0.00    +0.019 C 
BRANCH  18  19
ATOM     19  C   UNL     1      10.259  -2.987   0.228  0.00  0.00    +0.203 C 
ATOM     20  O   UNL     1      10.611  -2.408  -0.779  0.00  0.00    -0.277 OA
ATOM     21  N   UNL     1      11.163  -3.294   1.179  0.00  0.00    -0.268 N 
BRANCH  21  22
ATOM     22  C   UNL     1      10.768  -4.113   2.328  0.00  0.00    +0.104 C 
ATOM     23  C   UNL     1      11.071  -3.349   3.627  0.00  0.00    +0.047 C 
ATOM     24  C   UNL     1      10.941  -4.343   4.816  0.00  0.00    +0.168 C 
ATOM     25  S   UNL     1      11.735  -5.840   4.091  0.00  0.00    -0.029 S 
ATOM     26  O   UNL     1      13.116  -5.839   4.427  0.00  0.00    -0.174 OA
ATOM     27  O   UNL     1      10.941  -6.978   4.396  0.00  0.00    -0.174 OA
ATOM     28  C   UNL     1      11.555  -5.445   2.305  0.00  0.00    +0.188 C 
ENDBRANCH  21  22
BRANCH  21  29
ATOM     29  C   UNL     1      12.479  -2.832   1.069  0.00  0.00    +0.037 A 
ATOM     30  C   UNL     1      13.449  -3.274   1.959  0.00  0.00    +0.023 A 
ATOM     31  C   UNL     1      14.748  -2.819   1.846  0.00  0.00    +0.002 A 
ATOM     32  C   UNL     1      15.081  -1.916   0.853  0.00  0.00    +0.000 A 
ATOM     33  C   UNL     1      14.117  -1.470  -0.032  0.00  0.00    +0.002 A 
ATOM     34  C   UNL     1      12.817  -1.925   0.073  0.00  0.00    +0.023 A 
ENDBRANCH  21  29
ENDBRANCH  18  19
ENDBRANCH   4  18
TORSDOF 7
