REMARK  Name = ZINC07180031
REMARK  9 active torsions:
REMARK  status: ('A' for Active; 'I' for Inactive)
REMARK    1  A    between atoms: C_1  and  C_2
REMARK    2  A    between atoms: C_3  and  N_15
REMARK    3  A    between atoms: N_6  and  C_9
REMARK    4  A    between atoms: N_7  and  C_8
REMARK    5  A    between atoms: C_16  and  C_18
REMARK    6  A    between atoms: C_18  and  C_20
REMARK    7  A    between atoms: C_18  and  O_21
REMARK    8  A    between atoms: O_21  and  C_22
REMARK    9  A    between atoms: C_22  and  C_24
REMARK                            x       y       z     vdW  Elec       q    Type
REMARK                         _______ _______ _______ _____ _____    ______ ____
ROOT
ATOM      1  N   UNL     1      -2.489   1.806  -0.117  0.00  0.00    -0.277 N 
ATOM      2  C   UNL     1      -2.783   0.975  -1.137  0.00  0.00    +0.258 C 
ATOM      3  O   UNL     1      -1.928   0.678  -1.944  0.00  0.00    -0.271 OA
ATOM      4  H   UNL     1      -3.189   2.099   0.487  0.00  0.00    +0.155 HD
ENDROOT
BRANCH   1   7
ATOM      5  C   UNL     1      -1.610   4.745  -0.141  0.00  0.00    +0.067 C 
ATOM      6  C   UNL     1      -0.740   3.532   0.067  0.00  0.00    +0.059 A 
ATOM      7  C   UNL     1      -1.165   2.249   0.070  0.00  0.00    +0.121 A 
ATOM      8  C   UNL     1       0.007   1.405   0.309  0.00  0.00    +0.293 A 
ATOM      9  O   UNL     1       0.023   0.190   0.384  0.00  0.00    -0.264 OA
ATOM     10  N   UNL     1       1.068   2.231   0.426  0.00  0.00    -0.216 N 
ATOM     11  N   UNL     1       0.613   3.546   0.278  0.00  0.00    -0.282 N 
ATOM     12  C   UNL     1       1.451   4.746   0.337  0.00  0.00    +0.171 C 
BRANCH  10  13
ATOM     13  C   UNL     1       2.391   1.840   0.655  0.00  0.00    +0.067 A 
ATOM     14  C   UNL     1       3.428   2.464  -0.026  0.00  0.00    +0.028 A 
ATOM     15  C   UNL     1       4.734   2.080   0.206  0.00  0.00    +0.002 A 
ATOM     16  C   UNL     1       5.009   1.067   1.107  0.00  0.00    +0.000 A 
ATOM     17  C   UNL     1       3.978   0.441   1.783  0.00  0.00    +0.002 A 
ATOM     18  C   UNL     1       2.670   0.824   1.560  0.00  0.00    +0.028 A 
ENDBRANCH  10  13
ENDBRANCH   1   7
BRANCH   2  19
ATOM     19  C   UNL     1      -4.175   0.414  -1.274  0.00  0.00    +0.259 C 
ATOM     20  C   UNL     1      -5.158   1.552  -1.557  0.00  0.00    +0.062 C 
BRANCH  19  21
ATOM     21  O   UNL     1      -4.208  -0.538  -2.370  0.00  0.00    -0.449 OA
BRANCH  21  22
ATOM     22  C   UNL     1      -5.091  -1.551  -2.275  0.00  0.00    +0.346 C 
ATOM     23  O   UNL     1      -5.814  -1.637  -1.302  0.00  0.00    -0.245 OA
BRANCH  22  24
ATOM     24  C   UNL     1      -5.180  -2.555  -3.350  0.00  0.00    +0.129 A 
ATOM     25  C   UNL     1      -4.385  -3.706  -3.307  0.00  0.00    +0.140 A 
ATOM     26  C   UNL     1      -4.479  -4.644  -4.317  0.00  0.00    +0.039 A 
ATOM     27  C   UNL     1      -5.348  -4.444  -5.374  0.00  0.00    +0.006 A 
ATOM     28  C   UNL     1      -6.134  -3.307  -5.428  0.00  0.00    +0.039 A 
ATOM     29  C   UNL     1      -6.057  -2.360  -4.424  0.00  0.00    +0.140 A 
ATOM     30  F   UNL     1      -6.825  -1.250  -4.479  0.00  0.00    -0.205 F 
ATOM     31  F   UNL     1      -3.531  -3.901  -2.278  0.00  0.00    -0.205 F 
ENDBRANCH  22  24
ENDBRANCH  21  22
ENDBRANCH  19  21
ENDBRANCH   2  19
TORSDOF 6
