REMARK  Name = ZINC08672464
REMARK  6 active torsions:
REMARK  status: ('A' for Active; 'I' for Inactive)
REMARK    1  A    between atoms: C_1  and  O_2
REMARK    2  A    between atoms: O_2  and  C_3
REMARK    3  A    between atoms: C_6  and  C_9
REMARK    4  A    between atoms: C_9  and  N_10
REMARK    5  A    between atoms: C_11  and  C_13
REMARK    6  A    between atoms: C_13  and  C_14
REMARK                            x       y       z     vdW  Elec       q    Type
REMARK                         _______ _______ _______ _____ _____    ______ ____
ROOT
ATOM      1  C   UNL     1       1.713  -4.335   8.777  0.00  0.00    +0.059 A 
ATOM      2  C   UNL     1       1.665  -3.826  10.033  0.00  0.00    +0.072 A 
ATOM      3  S   UNL     1       2.635  -5.034  10.920  0.00  0.00    -0.060 S 
ATOM      4  C   UNL     1       2.994  -6.043   9.621  0.00  0.00    +0.164 A 
ATOM      5  N   UNL     1       2.388  -5.457   8.611  0.00  0.00    -0.229 NA
ATOM      6  N   UNL     1       3.742  -7.213   9.618  0.00  0.00    -0.278 N 
ATOM      7  C   UNL     1       4.296  -7.675  10.786  0.00  0.00    +0.136 A 
ATOM      8  C   UNL     1       5.097  -8.908  10.801  0.00  0.00    +0.038 A 
ATOM      9  C   UNL     1       5.326  -9.653   9.644  0.00  0.00    +0.013 A 
ATOM     10  C   UNL     1       6.084 -10.801   9.716  0.00  0.00    +0.001 A 
ATOM     11  C   UNL     1       6.618 -11.218  10.927  0.00  0.00    +0.002 A 
ATOM     12  C   UNL     1       6.400 -10.492  12.080  0.00  0.00    +0.026 A 
ATOM     13  C   UNL     1       5.639  -9.332  12.029  0.00  0.00    +0.052 A 
ATOM     14  N   UNL     1       5.393  -8.571  13.156  0.00  0.00    -0.333 N 
ATOM     15  C   UNL     1       4.651  -7.452  13.069  0.00  0.00    +0.179 A 
ATOM     16  N   UNL     1       4.127  -7.019  11.923  0.00  0.00    -0.207 NA
ATOM     17  S   UNL     1       4.374  -6.542  14.491  0.00  0.00    -0.011 S 
ATOM     18  H   UNL     1       3.873  -7.702   8.792  0.00  0.00    +0.155 HD
ATOM     19  H   UNL     1       5.757  -8.844  14.013  0.00  0.00    +0.168 HD
ENDROOT
BRANCH   1  20
ATOM     20  C   UNL     1       1.021  -3.654   7.625  0.00  0.00    +0.151 C 
BRANCH  20  22
ATOM     21  N   UNL     1       1.620  -2.797   5.383  0.00  0.00    -0.311 N 
ATOM     22  C   UNL     1       2.016  -3.400   6.521  0.00  0.00    +0.219 C 
ATOM     23  O   UNL     1       3.172  -3.739   6.657  0.00  0.00    -0.275 OA
ATOM     24  H   UNL     1       0.695  -2.526   5.274  0.00  0.00    +0.149 HD
BRANCH  21  25
ATOM     25  C   UNL     1       2.587  -2.550   4.310  0.00  0.00    +0.139 C 
BRANCH  25  29
ATOM     26  C   UNL     1       0.626  -0.618   1.042  0.00  0.00    +0.120 A 
ATOM     27  C   UNL     1       1.202   0.138   2.051  0.00  0.00    +0.046 A 
ATOM     28  C   UNL     1       1.835  -0.488   3.107  0.00  0.00    +0.009 A 
ATOM     29  C   UNL     1       1.895  -1.869   3.158  0.00  0.00    -0.030 A 
ATOM     30  C   UNL     1       1.322  -2.625   2.152  0.00  0.00    +0.009 A 
ATOM     31  C   UNL     1       0.682  -2.003   1.098  0.00  0.00    +0.046 A 
BRANCH  26  33
ATOM     32  C   UNL     1      -0.017   1.425   0.010  0.00  0.00    +0.277 C 
ATOM     33  O   UNL     1       0.002  -0.004   0.002  0.00  0.00    -0.495 OA
ENDBRANCH  26  33
ENDBRANCH  25  29
ENDBRANCH  21  25
ENDBRANCH  20  22
ENDBRANCH   1  20
TORSDOF 5
