REMARK  Name = ZINC11535515
REMARK  7 active torsions:
REMARK  status: ('A' for Active; 'I' for Inactive)
REMARK    1  A    between atoms: C_1  and  C_2
REMARK    2  A    between atoms: C_4  and  C_22
REMARK    3  A    between atoms: C_5  and  N_9
REMARK    4  A    between atoms: C_10  and  C_12
REMARK    5  A    between atoms: C_12  and  S_13
REMARK    6  A    between atoms: S_13  and  C_14
REMARK    7  A    between atoms: C_16  and  N_21
REMARK                            x       y       z     vdW  Elec       q    Type
REMARK                         _______ _______ _______ _____ _____    ______ ____
ROOT
ATOM      1  N   UNL     1       1.237  -2.080  -0.021  0.00  0.00    -0.283 N 
ATOM      2  C   UNL     1       2.340  -2.734  -0.435  0.00  0.00    +0.228 C 
ATOM      3  O   UNL     1       3.345  -2.114  -0.713  0.00  0.00    -0.275 OA
ATOM      4  H   UNL     1       0.353  -2.646   0.309  0.00  0.00    +0.155 HD
ENDROOT
BRANCH   1   9
ATOM      5  C   UNL     1       1.145   3.593   0.014  0.00  0.00    +0.044 C 
ATOM      6  C   UNL     1       1.170   2.087   0.004  0.00  0.00    -0.049 A 
ATOM      7  C   UNL     1       1.528   1.395   1.146  0.00  0.00    +0.008 A 
ATOM      8  C   UNL     1       1.551   0.014   1.141  0.00  0.00    -0.028 A 
ATOM      9  C   UNL     1       1.214  -0.681  -0.013  0.00  0.00    +0.055 A 
ATOM     10  C   UNL     1       0.855   0.017  -1.160  0.00  0.00    +0.063 A 
ATOM     11  C   UNL     1       0.834   1.399  -1.148  0.00  0.00    +0.025 A 
ATOM     12 CL   UNL     1       0.434  -0.846  -2.606  0.00  0.00    -0.082 Cl
ATOM     13  C   UNL     1       1.941  -0.739   2.388  0.00  0.00    +0.046 C 
ENDBRANCH   1   9
BRANCH   2  14
ATOM     14  C   UNL     1       2.327  -4.237  -0.551  0.00  0.00    +0.173 C 
BRANCH  14  15
ATOM     15  S   UNL     1       3.943  -4.812  -1.126  0.00  0.00    -0.078 S 
BRANCH  15  16
ATOM     16  C   UNL     1       3.652  -6.549  -1.170  0.00  0.00    +0.171 A 
ATOM     17  N   UNL     1       4.653  -7.386  -1.564  0.00  0.00    -0.209 NA
ATOM     18  C   UNL     1       4.444  -8.740  -1.604  0.00  0.00    +0.124 A 
ATOM     19  C   UNL     1       3.223  -9.234  -1.244  0.00  0.00    +0.113 A 
ATOM     20  C   UNL     1       2.216  -8.334  -0.843  0.00  0.00    +0.254 A 
ATOM     21  O   UNL     1       1.114  -8.751  -0.516  0.00  0.00    -0.268 OA
ATOM     22  N   UNL     1       2.473  -7.016  -0.816  0.00  0.00    -0.302 N 
ATOM     23  H   UNL     1       1.682  -6.324  -0.493  0.00  0.00    +0.171 HD
BRANCH  18  24
ATOM     24  N   UNL     1       5.451  -9.589  -2.001  0.00  0.00    -0.343 N 
ATOM     25  H   UNL     1       5.275 -10.675  -2.030  0.00  0.00    +0.144 HD
ATOM     26  H   UNL     1       6.431  -9.183  -2.289  0.00  0.00    +0.144 HD
ENDBRANCH  18  24
ENDBRANCH  15  16
ENDBRANCH  14  15
ENDBRANCH   2  14
TORSDOF 5
