REMARK  Name = ZINC05197606
REMARK  7 active torsions:
REMARK  status: ('A' for Active; 'I' for Inactive)
REMARK    1  A    between atoms: C_1  and  O_2
REMARK    2  A    between atoms: O_2  and  C_3
REMARK    3  A    between atoms: C_7  and  C_9
REMARK    4  A    between atoms: C_16  and  N_30
REMARK    5  A    between atoms: C_17  and  C_28
REMARK    6  A    between atoms: C_18  and  C_20
REMARK    7  A    between atoms: C_25  and  O_26
REMARK                            x       y       z     vdW  Elec       q    Type
REMARK                         _______ _______ _______ _____ _____    ______ ____
ROOT
ATOM      1  C   UNL     1       1.331  -4.084  -2.299  0.00  0.00    +0.100 A 
ATOM      2  C   UNL     1       1.260  -4.844  -3.470  0.00  0.00    +0.054 A 
ATOM      3  C   UNL     1       1.349  -6.162  -3.125  0.00  0.00    +0.223 A 
ATOM      4  N   UNL     1       1.470  -6.227  -1.783  0.00  0.00    -0.246 N 
ATOM      5  H   UNL     1       1.551  -7.038  -1.256  0.00  0.00    +0.192 HD
ATOM      6  N   UNL     1       1.463  -4.916  -1.283  0.00  0.00    -0.171 NA
ATOM      7  O   UNL     1       1.314  -7.163  -4.040  0.00  0.00    -0.423 OA
ATOM      8  C   UNL     1       1.464  -6.828  -5.338  0.00  0.00    +0.200 C 
ATOM      9  C   UNL     1       1.385  -5.561  -5.802  0.00  0.00    +0.098 C 
ATOM     10  C   UNL     1       1.111  -4.385  -4.898  0.00  0.00    +0.105 C 
ENDROOT
BRANCH  10  11
ATOM     11  C   UNL     1      -0.291  -3.882  -5.127  0.00  0.00    +0.008 A 
ATOM     12  C   UNL     1      -1.368  -4.726  -4.933  0.00  0.00    +0.028 A 
ATOM     13  C   UNL     1      -2.655  -4.264  -5.143  0.00  0.00    +0.041 A 
ATOM     14  C   UNL     1      -2.866  -2.958  -5.548  0.00  0.00    +0.023 A 
ATOM     15  C   UNL     1      -1.792  -2.112  -5.743  0.00  0.00    +0.047 A 
ATOM     16  C   UNL     1      -0.501  -2.571  -5.527  0.00  0.00    +0.121 A 
ATOM     17 CL   UNL     1      -4.007  -5.326  -4.900  0.00  0.00    -0.084 Cl
BRANCH  16  18
ATOM     18  O   UNL     1       0.557  -1.738  -5.712  0.00  0.00    -0.506 OA
ATOM     19  H   UNL     1       0.912  -1.747  -6.612  0.00  0.00    +0.292 HD
ENDBRANCH  16  18
ENDBRANCH  10  11
BRANCH   1  24
ATOM     20  C   UNL     1       0.606  -0.607  -1.056  0.00  0.00    +0.121 A 
ATOM     21  C   UNL     1       1.173   0.162  -2.062  0.00  0.00    +0.045 A 
ATOM     22  C   UNL     1       1.788  -0.447  -3.140  0.00  0.00    +0.004 A 
ATOM     23  C   UNL     1       1.842  -1.824  -3.221  0.00  0.00    +0.010 A 
ATOM     24  C   UNL     1       1.275  -2.603  -2.215  0.00  0.00    +0.006 A 
ATOM     25  C   UNL     1       0.660  -1.989  -1.126  0.00  0.00    +0.055 A 
BRANCH  20  27
ATOM     26  C   UNL     1      -0.017   1.425   0.010  0.00  0.00    +0.277 C 
ATOM     27  O   UNL     1       0.002  -0.004   0.002  0.00  0.00    -0.495 OA
ENDBRANCH  20  27
ENDBRANCH   1  24
BRANCH   8  28
ATOM     28  N   UNL     1       1.713  -7.832  -6.240  0.00  0.00    -0.328 N 
ATOM     29  H   UNL     1       1.776  -8.752  -5.937  0.00  0.00    +0.145 HD
ATOM     30  H   UNL     1       1.826  -7.623  -7.180  0.00  0.00    +0.145 HD
ENDBRANCH   8  28
BRANCH   9  31
ATOM     31  C   UNL     1       1.567  -5.327  -7.203  0.00  0.00    +0.101 C 
ATOM     32  N   UNL     1       1.711  -5.141  -8.314  0.00  0.00    -0.191 NA
ENDBRANCH   9  31
TORSDOF 6
