REMARK  Name = ZINC14983391
REMARK  10 active torsions:
REMARK  status: ('A' for Active; 'I' for Inactive)
REMARK    1  A    between atoms: C_1  and  O_2
REMARK    2  A    between atoms: O_2  and  C_3
REMARK    3  A    between atoms: C_3  and  C_5
REMARK    4  A    between atoms: N_7  and  C_10
REMARK    5  A    between atoms: C_13  and  C_25
REMARK    6  A    between atoms: C_16  and  C_17
REMARK    7  A    between atoms: C_16  and  N_63
REMARK    8  A    between atoms: N_27  and  C_28
REMARK    9  A    between atoms: C_28  and  C_29
REMARK   10  A    between atoms: C_29  and  C_30
REMARK                            x       y       z     vdW  Elec       q    Type
REMARK                         _______ _______ _______ _____ _____    ______ ____
ROOT
ATOM      1  C   UNL     1      -6.471  -5.199   2.950  0.00  0.00    +0.091 C 
ATOM      2  C   UNL     1      -5.769  -4.123   2.096  0.00  0.00    +0.019 C 
ATOM      3  C   UNL     1      -4.319  -4.075   2.623  0.00  0.00    +0.022 C 
ATOM      4  C   UNL     1      -5.386  -5.711   3.922  0.00  0.00    -0.050 C 
ATOM      5  N   UNL     1      -4.432  -4.605   3.987  0.00  0.00    +0.391 N 
ATOM      6  H   UNL     1      -4.783  -3.876   4.619  0.00  0.00    -0.080 HD
ENDROOT
BRANCH   1   9
ATOM      7  C   UNL     1      -7.072  -8.118   0.917  0.00  0.00    +0.189 A 
ATOM      8  C   UNL     1      -6.237  -7.358   1.686  0.00  0.00    +0.145 A 
ATOM      9  N   UNL     1      -6.949  -6.291   2.100  0.00  0.00    -0.250 N 
ATOM     10  N   UNL     1      -8.238  -6.432   1.565  0.00  0.00    -0.065 NA
ATOM     11  N   UNL     1      -8.273  -7.515   0.869  0.00  0.00    -0.123 NA
BRANCH   7  12
ATOM     12  C   UNL     1      -6.718  -9.385   0.252  0.00  0.00    +0.361 C 
ATOM     13  O   UNL     1      -5.596  -9.838   0.366  0.00  0.00    -0.243 OA
BRANCH  12  15
ATOM     14  C   UNL     1      -7.218 -11.283  -1.108  0.00  0.00    +0.280 C 
ATOM     15  O   UNL     1      -7.638 -10.041  -0.482  0.00  0.00    -0.463 OA
ENDBRANCH  12  15
ENDBRANCH   7  12
ENDBRANCH   1   9
BRANCH   3  16
ATOM     16  C   UNL     1      -3.807  -2.658   2.625  0.00  0.00    +0.200 C 
ATOM     17  O   UNL     1      -3.505  -2.124   3.671  0.00  0.00    -0.278 OA
ATOM     18  N   UNL     1      -3.685  -1.984   1.465  0.00  0.00    -0.316 N 
ATOM     19  H   UNL     1      -3.926  -2.411   0.628  0.00  0.00    +0.149 HD
BRANCH  18  20
ATOM     20  C   UNL     1      -3.187  -0.606   1.467  0.00  0.00    +0.109 C 
BRANCH  20  21
ATOM     21  C   UNL     1      -3.145  -0.077   0.032  0.00  0.00    +0.056 C 
BRANCH  21  22
ATOM     22  C   UNL     1      -2.633   1.341   0.034  0.00  0.00    -0.021 A 
ATOM     23  C   UNL     1      -3.376   2.458   0.046  0.00  0.00    +0.087 A 
ATOM     24  N   UNL     1      -2.564   3.559   0.043  0.00  0.00    -0.360 N 
ATOM     25  H   UNL     1      -2.871   4.479   0.051  0.00  0.00    +0.165 HD
ATOM     26  C   UNL     1      -1.244   3.167   0.029  0.00  0.00    +0.047 A 
ATOM     27  C   UNL     1      -1.229   1.760   0.017  0.00  0.00    +0.003 A 
ATOM     28  C   UNL     1      -0.013   1.076   0.008  0.00  0.00    +0.010 A 
ATOM     29  C   UNL     1       1.160   1.778   0.001  0.00  0.00    +0.001 A 
ATOM     30  C   UNL     1       1.151   3.165   0.008  0.00  0.00    +0.002 A 
ATOM     31  C   UNL     1      -0.038   3.861   0.022  0.00  0.00    +0.026 A 
ENDBRANCH  21  22
ENDBRANCH  20  21
ENDBRANCH  18  20
ENDBRANCH   3  16
BRANCH   5  32
ATOM     32  C   UNL     1      -3.098  -5.079   4.475  0.00  0.00    -0.042 C 
BRANCH  32  33
ATOM     33  C   UNL     1      -3.164  -5.370   5.952  0.00  0.00    -0.061 A 
ATOM     34  C   UNL     1      -2.857  -4.378   6.865  0.00  0.00    +0.005 A 
ATOM     35  C   UNL     1      -2.921  -4.640   8.221  0.00  0.00    +0.041 A 
ATOM     36  C   UNL     1      -3.284  -5.900   8.665  0.00  0.00    +0.158 A 
ATOM     37  C   UNL     1      -3.587  -6.896   7.750  0.00  0.00    +0.159 A 
ATOM     38  C   UNL     1      -3.526  -6.628   6.393  0.00  0.00    +0.043 A 
ATOM     39  F   UNL     1      -3.941  -8.126   8.181  0.00  0.00    -0.202 F 
ATOM     40  F   UNL     1      -3.342  -6.159   9.990  0.00  0.00    -0.202 F 
ENDBRANCH  32  33
ENDBRANCH   5  32
TORSDOF 9
