REMARK  Name = ZINC24578988
REMARK  5 active torsions:
REMARK  status: ('A' for Active; 'I' for Inactive)
REMARK    1  A    between atoms: C_1  and  C_2
REMARK    2  A    between atoms: C_10  and  C_11
REMARK    3  A    between atoms: N_13  and  N_14
REMARK    4  A    between atoms: N_14  and  S_15
REMARK    5  A    between atoms: S_15  and  C_18
REMARK                            x       y       z     vdW  Elec       q    Type
REMARK                         _______ _______ _______ _____ _____    ______ ____
ROOT
ATOM      1  N   UNL     1       1.176   1.578   0.002  0.00  0.00    -0.108 NA
ATOM      2  H   UNL     1       1.242   2.287  -0.657  0.00  0.00    +0.172 HD
ENDROOT
BRANCH   1   5
ATOM      3  C   UNL     1      -1.140   1.041  -0.129  0.00  0.00    +0.294 C 
ATOM      4  O   UNL     1      -1.403   2.228  -0.088  0.00  0.00    -0.265 OA
ATOM      5  N   UNL     1       0.144   0.634  -0.085  0.00  0.00    -0.225 N 
ATOM      6  H   UNL     1       0.382  -0.440  -0.117  0.00  0.00    +0.171 HD
BRANCH   3  16
ATOM      7  C   UNL     1      -4.175   1.713  -0.233  0.00  0.00    +0.048 C 
ATOM      8  C   UNL     1      -3.547   0.343  -0.272  0.00  0.00    +0.008 A 
ATOM      9  C   UNL     1      -4.242  -0.940  -0.370  0.00  0.00    +0.024 A 
ATOM     10  C   UNL     1      -5.585  -1.316  -0.453  0.00  0.00    +0.012 A 
ATOM     11  C   UNL     1      -5.914  -2.640  -0.529  0.00  0.00    +0.001 A 
ATOM     12  C   UNL     1      -4.923  -3.612  -0.525  0.00  0.00    +0.004 A 
ATOM     13  C   UNL     1      -3.592  -3.262  -0.443  0.00  0.00    +0.047 A 
ATOM     14  C   UNL     1      -3.233  -1.921  -0.365  0.00  0.00    +0.136 A 
ATOM     15  O   UNL     1      -2.048  -1.286  -0.278  0.00  0.00    -0.450 OA
ATOM     16  C   UNL     1      -2.222   0.051  -0.226  0.00  0.00    +0.195 A 
ENDBRANCH   3  16
ENDBRANCH   1   5
BRANCH   1  17
ATOM     17  S   UNL     1       2.283   1.484   1.230  0.00  0.00    +0.074 S 
ATOM     18  O   UNL     1       2.796   0.159   1.214  0.00  0.00    -0.152 OA
ATOM     19  O   UNL     1       3.119   2.626   1.111  0.00  0.00    -0.152 OA
BRANCH  17  20
ATOM     20  C   UNL     1       1.398   1.663   2.744  0.00  0.00    +0.116 A 
ATOM     21  C   UNL     1       1.357   0.636   3.637  0.00  0.00    +0.032 A 
ATOM     22  C   UNL     1       0.668   0.763   4.841  0.00  0.00    +0.042 A 
ATOM     23  C   UNL     1       0.005   1.913   5.154  0.00  0.00    +0.149 A 
ATOM     24  C   UNL     1       0.021   2.994   4.252  0.00  0.00    +0.108 A 
ATOM     25  C   UNL     1       0.728   2.862   3.032  0.00  0.00    +0.030 A 
ATOM     26  C   UNL     1       0.743   3.944   2.131  0.00  0.00    +0.013 A 
ATOM     27  C   UNL     1       0.068   5.080   2.478  0.00  0.00    +0.020 A 
ATOM     28  C   UNL     1      -0.608   5.143   3.694  0.00  0.00    +0.111 A 
ATOM     29  N   UNL     1      -0.619   4.134   4.531  0.00  0.00    -0.252 NA
ATOM     30  F   UNL     1      -0.663   2.014   6.324  0.00  0.00    -0.203 F 
ENDBRANCH  17  20
ENDBRANCH   1  17
TORSDOF 4
