REMARK  Name = ZINC08873817
REMARK  6 active torsions:
REMARK  status: ('A' for Active; 'I' for Inactive)
REMARK    1  A    between atoms: C_4  and  C_7
REMARK    2  A    between atoms: C_7  and  C_9
REMARK    3  A    between atoms: C_12  and  C_15
REMARK    4  A    between atoms: C_15  and  C_17
REMARK    5  A    between atoms: C_15  and  C_24
REMARK    6  A    between atoms: N_28  and  O_29
REMARK                            x       y       z     vdW  Elec       q    Type
REMARK                         _______ _______ _______ _____ _____    ______ ____
ROOT
ATOM      1  C   UNL     1       4.034  -6.397   0.287  0.00  0.00    +0.135 C 
ENDROOT
BRANCH   1   2
ATOM      2  C   UNL     1       3.520  -6.953  -1.016  0.00  0.00    -0.031 A 
ATOM      3  C   UNL     1       2.198  -6.767  -1.374  0.00  0.00    +0.006 A 
ATOM      4  C   UNL     1       1.727  -7.277  -2.569  0.00  0.00    +0.015 A 
ATOM      5  C   UNL     1       2.579  -7.974  -3.407  0.00  0.00    +0.018 A 
ATOM      6  C   UNL     1       3.902  -8.160  -3.049  0.00  0.00    +0.015 A 
ATOM      7  C   UNL     1       4.373  -7.645  -1.855  0.00  0.00    +0.006 A 
ATOM      8 BR   UNL     1       1.935  -8.672  -5.042  0.00  0.00    -0.050 Br
ENDBRANCH   1   2
BRANCH   1  12
ATOM      9  C   UNL     1       4.100  -2.126   0.086  0.00  0.00    +0.022 A 
ATOM     10  C   UNL     1       2.882  -2.810   0.067  0.00  0.00    +0.012 A 
ATOM     11  C   UNL     1       2.869  -4.188   0.132  0.00  0.00    +0.005 A 
ATOM     12  C   UNL     1       4.057  -4.892   0.216  0.00  0.00    -0.031 A 
ATOM     13  C   UNL     1       5.267  -4.220   0.236  0.00  0.00    +0.005 A 
ATOM     14  C   UNL     1       5.296  -2.843   0.165  0.00  0.00    +0.012 A 
BRANCH   9  15
ATOM     15  C   UNL     1       4.123  -0.650   0.017  0.00  0.00    +0.193 C 
ATOM     16  O   UNL     1       5.098  -0.077  -0.430  0.00  0.00    -0.287 OA
BRANCH  15  20
ATOM     17  C   UNL     1       0.783   1.592   1.381  0.00  0.00    +0.000 A 
ATOM     18  C   UNL     1       1.703   2.176   0.527  0.00  0.00    +0.001 A 
ATOM     19  C   UNL     1       2.790   1.454   0.080  0.00  0.00    +0.012 A 
ATOM     20  C   UNL     1       2.961   0.130   0.492  0.00  0.00    +0.022 A 
ATOM     21  C   UNL     1       2.030  -0.453   1.354  0.00  0.00    +0.012 A 
ATOM     22  C   UNL     1       0.947   0.281   1.792  0.00  0.00    +0.001 A 
ENDBRANCH  15  20
ENDBRANCH   9  15
ENDBRANCH   1  12
BRANCH   1  23
ATOM     23  C   UNL     1       3.129  -6.832   1.411  0.00  0.00    +0.230 C 
ATOM     24  O   UNL     1       2.559  -6.003   2.087  0.00  0.00    -0.274 OA
ATOM     25  N   UNL     1       2.953  -8.145   1.664  0.00  0.00    -0.273 N 
ATOM     26  C   UNL     1       2.049  -8.547   2.631  0.00  0.00    +0.230 C 
ATOM     27  N   UNL     1       1.952  -9.796   2.943  0.00  0.00    -0.080 NA
ATOM     28  H   UNL     1       3.459  -8.806   1.168  0.00  0.00    +0.156 HD
BRANCH  27  29
ATOM     29  O   UNL     1       2.843 -10.739   2.376  0.00  0.00    -0.408 OA
ATOM     30  H   UNL     1       2.692 -11.648   2.669  0.00  0.00    +0.328 HD
ENDBRANCH  27  29
ENDBRANCH   1  23
TORSDOF 6
