REMARK  Name = ZINC39695619
REMARK  8 active torsions:
REMARK  status: ('A' for Active; 'I' for Inactive)
REMARK    1  A    between atoms: C_1  and  C_2
REMARK    2  A    between atoms: C_2  and  N_3
REMARK    3  A    between atoms: C_7  and  C_9
REMARK    4  A    between atoms: C_9  and  N_10
REMARK    5  A    between atoms: C_11  and  C_13
REMARK    6  A    between atoms: C_24  and  C_26
REMARK    7  A    between atoms: C_28  and  C_35
REMARK    8  A    between atoms: C_30  and  C_31
REMARK                            x       y       z     vdW  Elec       q    Type
REMARK                         _______ _______ _______ _____ _____    ______ ____
ROOT
ATOM      1  C   UNL     1      -1.413  -1.218  -4.968  0.00  0.00    +0.100 C 
ATOM      2  C   UNL     1      -1.767   0.284  -4.894  0.00  0.00    +0.121 C 
ATOM      3  N   UNL     1      -2.012   0.681  -6.301  0.00  0.00    -0.296 N 
ATOM      4  C   UNL     1      -2.737  -0.472  -6.888  0.00  0.00    +0.115 C 
ATOM      5  C   UNL     1      -2.052  -1.710  -6.278  0.00  0.00    -0.004 C 
ATOM      6  C   UNL     1      -3.085  -2.794  -5.986  0.00  0.00    -0.010 C 
ATOM      7  C   UNL     1      -3.664  -3.309  -7.307  0.00  0.00    -0.082 C 
ATOM      8  N   UNL     1      -2.583  -3.848  -8.141  0.00  0.00    +0.379 N 
ATOM      9  C   UNL     1      -1.642  -2.777  -8.494  0.00  0.00    -0.082 C 
ATOM     10  C   UNL     1      -0.978  -2.240  -7.223  0.00  0.00    -0.010 C 
ATOM     11  C   UNL     1      -1.656   1.830  -6.909  0.00  0.00    +0.250 C 
ATOM     12  O   UNL     1      -0.961   2.638  -6.324  0.00  0.00    -0.270 OA
ATOM     13  H   UNL     1      -2.094  -4.568  -7.631  0.00  0.00    -0.086 HD
ATOM     14  H   UNL     1      -2.974  -4.241  -8.984  0.00  0.00    -0.086 HD
ENDROOT
BRANCH  11  15
ATOM     15  C   UNL     1      -2.110   2.107  -8.284  0.00  0.00    +0.087 A 
ATOM     16  C   UNL     1      -3.064   1.321  -9.080  0.00  0.00    +0.058 A 
ATOM     17  C   UNL     1      -3.167   1.952 -10.260  0.00  0.00    +0.103 A 
ATOM     18  O   UNL     1      -2.372   3.034 -10.251  0.00  0.00    -0.455 OA
ATOM     19  C   UNL     1      -1.736   3.149  -9.081  0.00  0.00    +0.220 A 
ATOM     20  C   UNL     1      -4.035   1.516 -11.412  0.00  0.00    +0.086 C 
BRANCH  19  21
ATOM     21  C   UNL     1      -0.769   4.242  -8.707  0.00  0.00    +0.451 C 
ATOM     22  F   UNL     1       0.528   3.860  -9.066  0.00  0.00    -0.163 F 
ATOM     23  F   UNL     1      -1.111   5.419  -9.382  0.00  0.00    -0.163 F 
ATOM     24  F   UNL     1      -0.825   4.463  -7.327  0.00  0.00    -0.163 F 
ENDBRANCH  19  21
ENDBRANCH  11  15
BRANCH   1  26
ATOM     25  N   UNL     1      -1.490  -3.146  -3.421  0.00  0.00    -0.317 N 
ATOM     26  C   UNL     1      -1.997  -1.954  -3.790  0.00  0.00    +0.218 C 
ATOM     27  O   UNL     1      -2.924  -1.472  -3.174  0.00  0.00    -0.275 OA
ATOM     28  H   UNL     1      -0.748  -3.531  -3.914  0.00  0.00    +0.149 HD
BRANCH  25  29
ATOM     29  C   UNL     1      -2.058  -3.862  -2.276  0.00  0.00    +0.089 C 
BRANCH  29  34
ATOM     30  N   UNL     1       0.139  -4.915  -1.937  0.00  0.00    +0.382 N 
ATOM     31  C   UNL     1       0.587  -5.416  -0.620  0.00  0.00    -0.078 C 
ATOM     32  C   UNL     1      -0.689  -5.419   0.258  0.00  0.00    -0.020 C 
ATOM     33  C   UNL     1      -1.772  -5.853  -0.765  0.00  0.00    -0.016 C 
ATOM     34  C   UNL     1      -1.306  -5.178  -2.072  0.00  0.00    -0.051 C 
ATOM     35  H   UNL     1       0.310  -3.922  -1.996  0.00  0.00    -0.081 HD
BRANCH  30  37
ATOM     36  C   UNL     1       2.352  -5.233  -2.936  0.00  0.00    -0.017 C 
ATOM     37  C   UNL     1       0.870  -5.609  -3.005  0.00  0.00    -0.082 C 
ENDBRANCH  30  37
ENDBRANCH  29  34
ENDBRANCH  25  29
ENDBRANCH   1  26
TORSDOF 6
