REMARK  Name = ZINC35601300
REMARK  9 active torsions:
REMARK  status: ('A' for Active; 'I' for Inactive)
REMARK    1  A    between atoms: C_1  and  C_2
REMARK    2  A    between atoms: C_2  and  C_4
REMARK    3  A    between atoms: C_2  and  N_12
REMARK    4  A    between atoms: C_7  and  O_11
REMARK    5  A    between atoms: C_9  and  O_10
REMARK    6  A    between atoms: N_12  and  C_13
REMARK    7  A    between atoms: C_13  and  C_14
REMARK    8  A    between atoms: C_14  and  C_16
REMARK    9  A    between atoms: C_14  and  O_22
REMARK                            x       y       z     vdW  Elec       q    Type
REMARK                         _______ _______ _______ _____ _____    ______ ____
ROOT
ATOM      1  C   UNL     1      -0.019   1.526   0.010  0.00  0.00    +0.029 C 
ATOM      2  C   UNL     1       0.002  -0.004   0.002  0.00  0.00    +0.084 C 
ENDROOT
BRANCH   2   3
ATOM      3  C   UNL     1       0.707  -0.490  -1.238  0.00  0.00    +0.011 A 
ATOM      4  C   UNL     1      -0.023  -0.817  -2.365  0.00  0.00    +0.012 A 
ATOM      5  C   UNL     1       0.621  -1.263  -3.503  0.00  0.00    +0.046 A 
ATOM      6  C   UNL     1       2.003  -1.383  -3.517  0.00  0.00    +0.120 A 
ATOM      7  C   UNL     1       2.738  -1.056  -2.388  0.00  0.00    +0.091 A 
ATOM      8  C   UNL     1       2.090  -0.604  -1.249  0.00  0.00    +0.125 A 
BRANCH   8   9
ATOM      9  O   UNL     1       2.809  -0.276  -0.143  0.00  0.00    -0.506 OA
ATOM     10  H   UNL     1       2.950  -1.014   0.466  0.00  0.00    +0.292 HD
ENDBRANCH   8   9
BRANCH   6  11
ATOM     11  O   UNL     1       2.636  -1.823  -4.637  0.00  0.00    -0.507 OA
ATOM     12  H   UNL     1       2.889  -1.117  -5.248  0.00  0.00    +0.292 HD
ENDBRANCH   6  11
ENDBRANCH   2   3
BRANCH   2  13
ATOM     13  N   UNL     1      -1.376  -0.512   0.012  0.00  0.00    -0.307 NA
ATOM     14  H   UNL     1      -1.974   0.053  -0.571  0.00  0.00    +0.123 HD
BRANCH  13  15
ATOM     15  C   UNL     1      -1.898  -0.590   1.383  0.00  0.00    +0.117 C 
BRANCH  15  16
ATOM     16  C   UNL     1      -3.332  -1.123   1.353  0.00  0.00    +0.158 C 
BRANCH  16  17
ATOM     17  C   UNL     1      -3.911  -1.087   2.745  0.00  0.00    -0.018 A 
ATOM     18  C   UNL     1      -3.592  -2.080   3.652  0.00  0.00    +0.006 A 
ATOM     19  C   UNL     1      -4.122  -2.047   4.928  0.00  0.00    +0.000 A 
ATOM     20  C   UNL     1      -4.971  -1.020   5.297  0.00  0.00    +0.000 A 
ATOM     21  C   UNL     1      -5.289  -0.026   4.390  0.00  0.00    +0.000 A 
ATOM     22  C   UNL     1      -4.755  -0.057   3.115  0.00  0.00    +0.006 A 
ENDBRANCH  16  17
BRANCH  16  23
ATOM     23  O   UNL     1      -3.331  -2.468   0.873  0.00  0.00    -0.386 OA
ATOM     24  H   UNL     1      -2.811  -3.078   1.414  0.00  0.00    +0.210 HD
ENDBRANCH  16  23
ENDBRANCH  15  16
ENDBRANCH  13  15
ENDBRANCH   2  13
TORSDOF 8
