REMARK  Name = ZINC39534433
REMARK  14 active torsions:
REMARK  status: ('A' for Active; 'I' for Inactive)
REMARK    1  A    between atoms: C_1  and  C_2
REMARK    2  A    between atoms: C_2  and  C_3
REMARK    3  A    between atoms: C_2  and  S_4
REMARK    4  A    between atoms: S_4  and  C_7
REMARK    5  A    between atoms: C_10  and  C_13
REMARK    6  A    between atoms: C_13  and  C_15
REMARK    7  A    between atoms: C_13  and  N_23
REMARK    8  A    between atoms: C_15  and  N_16
REMARK    9  A    between atoms: N_16  and  S_17
REMARK   10  A    between atoms: S_17  and  C_20
REMARK   11  A    between atoms: C_20  and  C_21
REMARK   12  A    between atoms: C_20  and  C_22
REMARK   13  A    between atoms: C_27  and  C_30
REMARK   14  A    between atoms: C_30  and  C_31
REMARK                            x       y       z     vdW  Elec       q    Type
REMARK                         _______ _______ _______ _____ _____    ______ ____
ROOT
ATOM      1  C   UNL     1      -0.954  -7.034   0.006  0.00  0.00    +0.102 C 
ENDROOT
BRANCH   1   2
ATOM      2  N   UNL     1      -1.817  -7.497   1.100  0.00  0.00    -0.297 NA
ATOM      3  C   UNL     1      -1.382  -8.811   1.594  0.00  0.00    +0.066 C 
ATOM      4  C   UNL     1      -2.268  -9.230   2.769  0.00  0.00    -0.067 C 
ATOM      5  N   UNL     1      -3.668  -9.292   2.330  0.00  0.00    +0.383 N 
ATOM      6  C   UNL     1      -4.095  -7.967   1.863  0.00  0.00    -0.053 C 
ATOM      7  C   UNL     1      -3.225  -7.538   0.679  0.00  0.00    +0.069 C 
ATOM      8  H   UNL     1      -3.754  -9.958   1.577  0.00  0.00    -0.085 HD
ATOM      9  H   UNL     1      -4.250  -9.581   3.102  0.00  0.00    -0.085 HD
BRANCH   6  10
ATOM     10  C   UNL     1      -5.559  -8.030   1.422  0.00  0.00    +0.020 C 
BRANCH  10  11
ATOM     11  C   UNL     1      -6.430  -8.332   2.614  0.00  0.00    -0.049 A 
ATOM     12  C   UNL     1      -6.710  -9.643   2.951  0.00  0.00    +0.003 A 
ATOM     13  C   UNL     1      -7.509  -9.921   4.044  0.00  0.00    +0.000 A 
ATOM     14  C   UNL     1      -8.027  -8.887   4.802  0.00  0.00    +0.000 A 
ATOM     15  C   UNL     1      -7.746  -7.576   4.466  0.00  0.00    +0.000 A 
ATOM     16  C   UNL     1      -6.944  -7.299   3.375  0.00  0.00    +0.003 A 
ENDBRANCH  10  11
ENDBRANCH   6  10
ENDBRANCH   1   2
BRANCH   1  20
ATOM     17  C   UNL     1      -1.984  -3.015  -1.014  0.00  0.00    +0.088 A 
ATOM     18  C   UNL     1      -1.677  -3.924  -2.010  0.00  0.00    +0.027 A 
ATOM     19  C   UNL     1      -1.344  -5.225  -1.680  0.00  0.00    +0.007 A 
ATOM     20  C   UNL     1      -1.317  -5.616  -0.354  0.00  0.00    -0.029 A 
ATOM     21  C   UNL     1      -1.622  -4.707   0.641  0.00  0.00    +0.007 A 
ATOM     22  C   UNL     1      -1.952  -3.405   0.311  0.00  0.00    +0.027 A 
BRANCH  17  23
ATOM     23  S   UNL     1      -2.409  -1.358  -1.435  0.00  0.00    -0.001 S 
ATOM     24  O   UNL     1      -3.217  -0.906  -0.357  0.00  0.00    -0.169 OA
ATOM     25  O   UNL     1      -2.939  -1.443  -2.751  0.00  0.00    -0.169 OA
BRANCH  23  27
ATOM     26  C   UNL     1      -1.094   1.027  -1.688  0.00  0.00    +0.032 C 
ATOM     27  C   UNL     1      -0.832  -0.463  -1.453  0.00  0.00    +0.130 C 
ATOM     28  C   UNL     1      -0.123  -0.650  -0.111  0.00  0.00    +0.032 C 
ENDBRANCH  23  27
ENDBRANCH  17  23
ENDBRANCH   1  20
BRANCH   1  29
ATOM     29  C   UNL     1       0.509  -7.088   0.452  0.00  0.00    +0.129 C 
BRANCH  29  30
ATOM     30  N   UNL     1       1.374  -6.693  -0.662  0.00  0.00    -0.192 NA
ATOM     31  H   UNL     1       1.259  -7.101  -1.535  0.00  0.00    +0.148 HD
BRANCH  30  32
ATOM     32  S   UNL     1       2.549  -5.549  -0.432  0.00  0.00    +0.032 S 
ATOM     33  O   UNL     1       3.152  -5.386  -1.709  0.00  0.00    -0.158 OA
ATOM     34  O   UNL     1       1.881  -4.464   0.197  0.00  0.00    -0.158 OA
BRANCH  32  35
ATOM     35  C   UNL     1       3.724  -6.312   0.720  0.00  0.00    +0.142 C 
ATOM     36  C   UNL     1       4.881  -5.347   0.982  0.00  0.00    +0.033 C 
ATOM     37  C   UNL     1       3.013  -6.627   2.038  0.00  0.00    +0.033 C 
ENDBRANCH  32  35
ENDBRANCH  30  32
ENDBRANCH  29  30
ENDBRANCH   1  29
TORSDOF 10
