REMARK  Name = ZINC56662907
REMARK  9 active torsions:
REMARK  status: ('A' for Active; 'I' for Inactive)
REMARK    1  A    between atoms: C_1  and  C_2
REMARK    2  A    between atoms: C_2  and  C_4
REMARK    3  A    between atoms: C_2  and  N_12
REMARK    4  A    between atoms: C_4  and  C_5
REMARK    5  A    between atoms: C_8  and  O_11
REMARK    6  A    between atoms: N_15  and  C_16
REMARK    7  A    between atoms: C_19  and  N_22
REMARK    8  A    between atoms: C_23  and  O_25
REMARK    9  A    between atoms: O_25  and  C_26
REMARK                            x       y       z     vdW  Elec       q    Type
REMARK                         _______ _______ _______ _____ _____    ______ ____
ROOT
ATOM      1  N   UNL     1       0.695  -0.448  -1.171  0.00  0.00    -0.296 N 
ATOM      2  C   UNL     1       2.039  -0.556  -1.191  0.00  0.00    +0.304 C 
ATOM      3  O   UNL     1       2.687  -0.253  -0.208  0.00  0.00    -0.253 OA
ATOM      4  N   UNL     1       2.663  -1.000  -2.300  0.00  0.00    -0.269 N 
ATOM      5  H   UNL     1       0.178  -0.690  -1.955  0.00  0.00    +0.151 HD
ATOM      6  H   UNL     1       2.143  -1.306  -3.059  0.00  0.00    +0.156 HD
ENDROOT
BRANCH   4   7
ATOM      7  C   UNL     1       4.063  -1.021  -2.354  0.00  0.00    +0.035 A 
ATOM      8  C   UNL     1       4.715  -0.751  -3.550  0.00  0.00    +0.025 A 
ATOM      9  C   UNL     1       6.095  -0.771  -3.604  0.00  0.00    +0.025 A 
ATOM     10  C   UNL     1       6.830  -1.063  -2.463  0.00  0.00    +0.037 A 
ATOM     11  C   UNL     1       6.178  -1.334  -1.267  0.00  0.00    +0.025 A 
ATOM     12  C   UNL     1       4.798  -1.307  -1.212  0.00  0.00    +0.025 A 
BRANCH  10  13
ATOM     13  N   UNL     1       8.230  -1.084  -2.518  0.00  0.00    -0.251 N 
ATOM     14  C   UNL     1       8.920  -1.970  -1.773  0.00  0.00    +0.404 C 
ATOM     15  O   UNL     1       8.335  -2.693  -0.991  0.00  0.00    -0.226 OA
ATOM     16  H   UNL     1       8.702  -0.462  -3.092  0.00  0.00    +0.158 HD
BRANCH  14  17
ATOM     17  O   UNL     1      10.258  -2.054  -1.895  0.00  0.00    -0.453 OA
ATOM     18  C   UNL     1      10.925  -3.015  -1.074  0.00  0.00    +0.282 C 
ENDBRANCH  14  17
ENDBRANCH  10  13
ENDBRANCH   4   7
BRANCH   1  20
ATOM     19  C   UNL     1      -0.007   1.565   0.027  0.00  0.00    +0.028 C 
ATOM     20  C   UNL     1       0.017   0.035   0.034  0.00  0.00    +0.076 C 
BRANCH  20  21
ATOM     21  C   UNL     1      -1.417  -0.497   0.059  0.00  0.00    +0.057 C 
BRANCH  21  22
ATOM     22  C   UNL     1      -1.394  -1.998   0.190  0.00  0.00    -0.045 A 
ATOM     23  C   UNL     1      -1.361  -2.789  -0.944  0.00  0.00    +0.007 A 
ATOM     24  C   UNL     1      -1.339  -4.165  -0.828  0.00  0.00    +0.045 A 
ATOM     25  C   UNL     1      -1.351  -4.754   0.429  0.00  0.00    +0.117 A 
ATOM     26  C   UNL     1      -1.385  -3.958   1.565  0.00  0.00    +0.045 A 
ATOM     27  C   UNL     1      -1.400  -2.582   1.443  0.00  0.00    +0.007 A 
BRANCH  25  28
ATOM     28  O   UNL     1      -1.331  -6.108   0.546  0.00  0.00    -0.507 OA
ATOM     29  H   UNL     1      -0.442  -6.485   0.595  0.00  0.00    +0.292 HD
ENDBRANCH  25  28
ENDBRANCH  21  22
ENDBRANCH  20  21
ENDBRANCH   1  20
TORSDOF 7
