REMARK  Name = ZINC00831857
REMARK  10 active torsions:
REMARK  status: ('A' for Active; 'I' for Inactive)
REMARK    1  A    between atoms: C_1  and  C_2
REMARK    2  A    between atoms: C_3  and  C_21
REMARK    3  A    between atoms: C_4  and  C_11
REMARK    4  A    between atoms: N_9  and  C_10
REMARK    5  A    between atoms: C_13  and  O_19
REMARK    6  A    between atoms: C_14  and  O_18
REMARK    7  A    between atoms: O_19  and  C_20
REMARK    8  A    between atoms: C_21  and  O_23
REMARK    9  A    between atoms: O_23  and  C_24
REMARK   10  A    between atoms: C_24  and  C_25
REMARK                            x       y       z     vdW  Elec       q    Type
REMARK                         _______ _______ _______ _____ _____    ______ ____
ROOT
ATOM      1  C   UNL     1       0.047   1.467   0.454  0.00  0.00    +0.061 C 
ATOM      2  C   UNL     1       0.034  -0.022   0.218  0.00  0.00    +0.024 C 
ATOM      3  C   UNL     1      -1.127  -0.702   0.334  0.00  0.00    +0.078 C 
ATOM      4  C   UNL     1      -1.095  -2.197   0.088  0.00  0.00    +0.144 C 
ATOM      5  N   UNL     1       0.208  -2.789  -0.260  0.00  0.00    -0.288 N 
ATOM      6  C   UNL     1       1.280  -1.977  -0.339  0.00  0.00    +0.307 C 
ATOM      7  O   UNL     1       2.360  -2.455  -0.626  0.00  0.00    -0.252 OA
ATOM      8  N   UNL     1       1.194  -0.659  -0.117  0.00  0.00    -0.262 N 
ATOM      9  C   UNL     1       2.415   0.143  -0.232  0.00  0.00    +0.139 C 
ATOM     10  H   UNL     1       0.292  -3.740  -0.429  0.00  0.00    +0.151 HD
ENDROOT
BRANCH   4  11
ATOM     11  C   UNL     1      -1.598  -2.883   1.332  0.00  0.00    -0.018 A 
ATOM     12  C   UNL     1      -2.901  -3.342   1.388  0.00  0.00    +0.055 A 
ATOM     13  C   UNL     1      -3.366  -3.973   2.531  0.00  0.00    +0.163 A 
ATOM     14  C   UNL     1      -2.518  -4.144   3.621  0.00  0.00    +0.173 A 
ATOM     15  C   UNL     1      -1.212  -3.683   3.559  0.00  0.00    +0.063 A 
ATOM     16  C   UNL     1      -0.754  -3.058   2.413  0.00  0.00    +0.025 A 
ATOM     17 BR   UNL     1      -0.056  -3.914   5.037  0.00  0.00    -0.046 Br
BRANCH  14  18
ATOM     18  O   UNL     1      -2.969  -4.763   4.745  0.00  0.00    -0.503 OA
ATOM     19  H   UNL     1      -2.840  -5.721   4.745  0.00  0.00    +0.292 HD
ENDBRANCH  14  18
BRANCH  13  20
ATOM     20  O   UNL     1      -4.648  -4.423   2.587  0.00  0.00    -0.491 OA
ATOM     21  C   UNL     1      -5.461  -4.212   1.431  0.00  0.00    +0.277 C 
ENDBRANCH  13  20
ENDBRANCH   4  11
BRANCH   3  22
ATOM     22  C   UNL     1      -2.330  -0.043   0.675  0.00  0.00    +0.339 C 
ATOM     23  O   UNL     1      -2.332   1.159   0.869  0.00  0.00    -0.245 OA
BRANCH  22  24
ATOM     24  O   UNL     1      -3.477  -0.745   0.786  0.00  0.00    -0.457 OA
BRANCH  24  25
ATOM     25  C   UNL     1      -4.655  -0.015   1.133  0.00  0.00    +0.268 C 
BRANCH  25  26
ATOM     26  C   UNL     1      -5.827  -0.958   1.210  0.00  0.00    -0.010 A 
ATOM     27  C   UNL     1      -6.588  -1.209   0.083  0.00  0.00    +0.007 A 
ATOM     28  C   UNL     1      -7.663  -2.075   0.154  0.00  0.00    +0.000 A 
ATOM     29  C   UNL     1      -7.978  -2.690   1.351  0.00  0.00    +0.000 A 
ATOM     30  C   UNL     1      -7.217  -2.440   2.477  0.00  0.00    +0.000 A 
ATOM     31  C   UNL     1      -6.139  -1.578   2.406  0.00  0.00    +0.007 A 
ENDBRANCH  25  26
ENDBRANCH  24  25
ENDBRANCH  22  24
ENDBRANCH   3  22
TORSDOF 7
