REMARK  Name = ZINC09730670
REMARK  8 active torsions:
REMARK  status: ('A' for Active; 'I' for Inactive)
REMARK    1  A    between atoms: C_1  and  C_2
REMARK    2  A    between atoms: C_2  and  C_3
REMARK    3  A    between atoms: C_2  and  O_4
REMARK    4  A    between atoms: O_4  and  C_5
REMARK    5  A    between atoms: C_5  and  C_7
REMARK    6  A    between atoms: C_8  and  N_30
REMARK    7  A    between atoms: C_26  and  C_28
REMARK    8  A    between atoms: C_26  and  C_29
REMARK                            x       y       z     vdW  Elec       q    Type
REMARK                         _______ _______ _______ _____ _____    ______ ____
ROOT
ATOM      1  C   UNL     1      -3.145   4.845   1.280  0.00  0.00    +0.117 C 
ATOM      2  C   UNL     1      -4.309   4.144   1.238  0.00  0.00    +0.195 C 
ATOM      3  O   UNL     1      -4.812   3.696   0.079  0.00  0.00    -0.446 OA
ATOM      4  C   UNL     1      -4.433   4.254  -1.086  0.00  0.00    +0.116 C 
ATOM      5  C   UNL     1      -3.289   4.957  -1.188  0.00  0.00    +0.057 C 
ATOM      6  C   UNL     1      -2.398   5.142   0.013  0.00  0.00    +0.141 C 
ATOM      7  C   UNL     1      -1.170   4.294  -0.102  0.00  0.00    -0.001 A 
ATOM      8  C   UNL     1      -1.009   2.927  -0.178  0.00  0.00    +0.022 A 
ATOM      9  C   UNL     1       0.295   2.450  -0.276  0.00  0.00    +0.018 A 
ATOM     10  C   UNL     1       1.375   3.310  -0.306  0.00  0.00    +0.017 A 
ATOM     11  C   UNL     1       1.219   4.686  -0.235  0.00  0.00    +0.025 A 
ATOM     12  C   UNL     1      -0.084   5.176  -0.131  0.00  0.00    +0.038 A 
ATOM     13  N   UNL     1      -0.525   6.485  -0.045  0.00  0.00    -0.284 N 
ATOM     14  C   UNL     1      -1.869   6.561   0.042  0.00  0.00    +0.237 C 
ATOM     15  O   UNL     1      -2.530   7.575   0.128  0.00  0.00    -0.274 OA
ATOM     16 BR   UNL     1       0.593   0.586  -0.378  0.00  0.00    -0.050 Br
ATOM     17  C   UNL     1      -2.893   5.537  -2.408  0.00  0.00    +0.165 C 
ATOM     18  O   UNL     1      -1.843   6.144  -2.467  0.00  0.00    -0.292 OA
ATOM     19  C   UNL     1      -3.746   5.416  -3.642  0.00  0.00    +0.086 C 
ATOM     20  C   UNL     1      -5.212   5.273  -3.216  0.00  0.00    -0.021 C 
ATOM     21  C   UNL     1      -5.330   4.064  -2.287  0.00  0.00    +0.081 C 
ATOM     22  C   UNL     1      -5.658   6.535  -2.476  0.00  0.00    +0.012 C 
ATOM     23  C   UNL     1      -6.088   5.059  -4.452  0.00  0.00    +0.012 C 
ATOM     24  H   UNL     1       0.062   7.257  -0.048  0.00  0.00    +0.155 HD
ENDROOT
BRANCH   2  25
ATOM     25  N   UNL     1      -4.981   3.890   2.404  0.00  0.00    -0.329 N 
ATOM     26  H   UNL     1      -5.853   3.466   2.378  0.00  0.00    +0.145 HD
ATOM     27  H   UNL     1      -4.585   4.135   3.255  0.00  0.00    +0.145 HD
ENDBRANCH   2  25
BRANCH   1  28
ATOM     28  C   UNL     1      -2.641   5.292   2.511  0.00  0.00    +0.342 C 
ATOM     29  O   UNL     1      -1.733   4.688   3.054  0.00  0.00    -0.245 OA
BRANCH  28  30
ATOM     30  O   UNL     1      -3.162   6.393   3.095  0.00  0.00    -0.458 OA
BRANCH  30  32
ATOM     31  C   UNL     1      -1.439   7.756   4.102  0.00  0.00    +0.052 C 
ATOM     32  C   UNL     1      -2.601   6.791   4.347  0.00  0.00    +0.171 C 
ATOM     33  C   UNL     1      -3.673   7.487   5.188  0.00  0.00    +0.052 C 
ENDBRANCH  30  32
ENDBRANCH  28  30
ENDBRANCH   1  28
TORSDOF 4
