REMARK  Name = ZINC01249894
REMARK  11 active torsions:
REMARK  status: ('A' for Active; 'I' for Inactive)
REMARK    1  A    between atoms: C_1  and  C_2
REMARK    2  A    between atoms: C_2  and  O_3
REMARK    3  A    between atoms: O_3  and  C_4
REMARK    4  A    between atoms: C_13  and  C_15
REMARK    5  A    between atoms: C_13  and  C_16
REMARK    6  A    between atoms: C_19  and  S_22
REMARK    7  A    between atoms: S_22  and  C_23
REMARK    8  A    between atoms: C_23  and  C_24
REMARK    9  A    between atoms: N_26  and  C_27
REMARK   10  A    between atoms: C_27  and  C_28
REMARK   11  A    between atoms: C_27  and  C_34
REMARK                            x       y       z     vdW  Elec       q    Type
REMARK                         _______ _______ _______ _____ _____    ______ ____
ROOT
ATOM      1  C   UNL     1      -1.498  -1.841   0.006  0.00  0.00    +0.307 A 
ATOM      2  N   UNL     1      -0.439  -2.612  -0.002  0.00  0.00    -0.189 NA
ATOM      3  C   UNL     1      -0.528  -3.941  -0.009  0.00  0.00    +0.118 A 
ATOM      4  C   UNL     1      -1.760  -4.610  -0.005  0.00  0.00    +0.056 A 
ATOM      5  C   UNL     1      -1.695  -6.066  -0.013  0.00  0.00    -0.019 A 
ATOM      6  C   UNL     1      -0.464  -6.628  -0.021  0.00  0.00    +0.021 A 
ATOM      7  S   UNL     1       0.660  -5.261  -0.022  0.00  0.00    -0.071 S 
ATOM      8  C   UNL     1      -0.159  -8.094  -0.029  0.00  0.00    +0.203 C 
ATOM      9  O   UNL     1      -1.368  -8.798   0.293  0.00  0.00    -0.368 OA
ATOM     10  C   UNL     1      -2.501  -8.362  -0.463  0.00  0.00    +0.068 C 
ATOM     11  C   UNL     1      -2.931  -6.963  -0.012  0.00  0.00    +0.071 C 
ATOM     12  C   UNL     1      -2.135  -8.326  -1.948  0.00  0.00    +0.041 C 
ATOM     13  C   UNL     1      -3.658  -9.341  -0.253  0.00  0.00    +0.041 C 
ATOM     14  C   UNL     1      -2.950  -3.731   0.006  0.00  0.00    +0.176 A 
ATOM     15  N   UNL     1      -2.760  -2.366   0.016  0.00  0.00    -0.223 N 
ATOM     16  C   UNL     1      -4.016  -1.824   0.030  0.00  0.00    +0.200 A 
ATOM     17  N   UNL     1      -4.869  -2.822   0.034  0.00  0.00    -0.122 NA
ATOM     18  N   UNL     1      -4.242  -3.947   0.012  0.00  0.00    -0.128 NA
ENDROOT
BRANCH   1  19
ATOM     19  O   UNL     1      -1.339  -0.499   0.012  0.00  0.00    -0.464 OA
BRANCH  19  21
ATOM     20  C   UNL     1      -0.019   1.526   0.010  0.00  0.00    +0.048 C 
ATOM     21  C   UNL     1       0.002  -0.004   0.002  0.00  0.00    +0.229 C 
ENDBRANCH  19  21
ENDBRANCH   1  19
BRANCH  16  22
ATOM     22  S   UNL     1      -4.415  -0.108   0.041  0.00  0.00    -0.076 S 
BRANCH  22  23
ATOM     23  C   UNL     1      -6.228  -0.079   0.059  0.00  0.00    +0.173 C 
BRANCH  23  24
ATOM     24  C   UNL     1      -6.708   1.350   0.070  0.00  0.00    +0.224 C 
ATOM     25  O   UNL     1      -5.905   2.259   0.066  0.00  0.00    -0.275 OA
ATOM     26  N   UNL     1      -8.028   1.618   0.083  0.00  0.00    -0.304 N 
ATOM     27  H   UNL     1      -8.671   0.891   0.086  0.00  0.00    +0.150 HD
BRANCH  26  28
ATOM     28  C   UNL     1      -8.494   3.007   0.094  0.00  0.00    +0.134 C 
BRANCH  28  29
ATOM     29  C   UNL     1      -9.880   3.076  -0.493  0.00  0.00    -0.023 A 
ATOM     30  C   UNL     1     -10.809   2.097  -0.192  0.00  0.00    +0.006 A 
ATOM     31  C   UNL     1     -12.080   2.161  -0.730  0.00  0.00    +0.000 A 
ATOM     32  C   UNL     1     -12.424   3.204  -1.570  0.00  0.00    +0.000 A 
ATOM     33  C   UNL     1     -11.496   4.183  -1.871  0.00  0.00    +0.000 A 
ATOM     34  C   UNL     1     -10.226   4.122  -1.329  0.00  0.00    +0.006 A 
ENDBRANCH  28  29
BRANCH  28  35
ATOM     35  C   UNL     1      -8.523   3.516   1.512  0.00  0.00    -0.023 A 
ATOM     36  C   UNL     1      -8.954   2.691   2.534  0.00  0.00    +0.006 A 
ATOM     37  C   UNL     1      -8.981   3.159   3.834  0.00  0.00    +0.000 A 
ATOM     38  C   UNL     1      -8.576   4.450   4.113  0.00  0.00    +0.000 A 
ATOM     39  C   UNL     1      -8.144   5.275   3.091  0.00  0.00    +0.000 A 
ATOM     40  C   UNL     1      -8.113   4.806   1.791  0.00  0.00    +0.006 A 
ENDBRANCH  28  35
ENDBRANCH  26  28
ENDBRANCH  23  24
ENDBRANCH  22  23
ENDBRANCH  16  22
TORSDOF 8
