REMARK  Name = ZINC18350470
REMARK  6 active torsions:
REMARK  status: ('A' for Active; 'I' for Inactive)
REMARK    1  A    between atoms: C_1  and  C_2
REMARK    2  A    between atoms: N_11  and  C_15
REMARK    3  A    between atoms: C_15  and  C_16
REMARK    4  A    between atoms: N_18  and  C_19
REMARK    5  A    between atoms: C_19  and  C_20
REMARK    6  A    between atoms: N_22  and  C_23
REMARK                            x       y       z     vdW  Elec       q    Type
REMARK                         _______ _______ _______ _____ _____    ______ ____
ROOT
ATOM      1  C   UNL     1       0.000  -0.003  -0.031  0.00  0.00    +0.231 C 
ATOM      2  O   UNL     1       1.059  -0.595  -0.049  0.00  0.00    -0.274 OA
ATOM      3  N   UNL     1      -1.157  -0.693  -0.013  0.00  0.00    -0.305 N 
ATOM      4  H   UNL     1      -2.004  -0.220   0.002  0.00  0.00    +0.149 HD
ENDROOT
BRANCH   1   5
ATOM      5  C   UNL     1      -0.021   1.504  -0.027  0.00  0.00    +0.213 C 
BRANCH   5  15
ATOM      6  C   UNL     1       4.255   0.430  -0.685  0.00  0.00    +0.010 C 
ATOM      7  C   UNL     1       4.501   1.846  -1.210  0.00  0.00    +0.018 C 
ATOM      8  C   UNL     1       5.857   2.348  -0.708  0.00  0.00    +0.006 C 
ATOM      9  C   UNL     1       6.093   3.772  -1.217  0.00  0.00    +0.000 C 
ATOM     10  C   UNL     1       4.991   4.692  -0.689  0.00  0.00    +0.003 C 
ATOM     11  C   UNL     1       3.632   4.200  -1.191  0.00  0.00    +0.035 C 
ATOM     12  C   UNL     1       3.397   2.772  -0.712  0.00  0.00    +0.115 C 
ATOM     13  C   UNL     1       2.046   2.276  -1.176  0.00  0.00    +0.247 C 
ATOM     14  O   UNL     1       1.665   2.146  -2.320  0.00  0.00    -0.273 OA
ATOM     15  N   UNL     1       1.353   2.012  -0.049  0.00  0.00    -0.215 N 
ATOM     16  C   UNL     1       2.075   2.276   1.047  0.00  0.00    +0.310 C 
ATOM     17  O   UNL     1       1.664   2.122   2.180  0.00  0.00    -0.252 OA
ATOM     18  N   UNL     1       3.309   2.728   0.753  0.00  0.00    -0.285 N 
ATOM     19  H   UNL     1       4.002   2.978   1.384  0.00  0.00    +0.151 HD
ENDBRANCH   5  15
ENDBRANCH   1   5
BRANCH   3  20
ATOM     20  C   UNL     1      -1.137  -2.158  -0.016  0.00  0.00    +0.200 C 
BRANCH  20  21
ATOM     21  C   UNL     1      -2.550  -2.680   0.006  0.00  0.00    +0.234 C 
ATOM     22  O   UNL     1      -3.483  -1.905   0.023  0.00  0.00    -0.274 OA
ATOM     23  N   UNL     1      -2.778  -4.008   0.007  0.00  0.00    -0.283 N 
ATOM     24  H   UNL     1      -2.036  -4.628  -0.072  0.00  0.00    +0.155 HD
BRANCH  23  25
ATOM     25  C   UNL     1      -4.085  -4.494   0.123  0.00  0.00    +0.047 A 
ATOM     26  C   UNL     1      -5.140  -3.799  -0.455  0.00  0.00    +0.024 A 
ATOM     27  C   UNL     1      -6.428  -4.283  -0.343  0.00  0.00    +0.002 A 
ATOM     28  C   UNL     1      -6.671  -5.454   0.352  0.00  0.00    +0.001 A 
ATOM     29  C   UNL     1      -5.625  -6.147   0.933  0.00  0.00    +0.017 A 
ATOM     30  C   UNL     1      -4.332  -5.670   0.820  0.00  0.00    +0.039 A 
ATOM     31 BR   UNL     1      -2.902  -6.617   1.615  0.00  0.00    -0.048 Br
ENDBRANCH  23  25
ENDBRANCH  20  21
ENDBRANCH   3  20
TORSDOF 5
