REMARK  Name = ZINC01087526
REMARK  7 active torsions:
REMARK  status: ('A' for Active; 'I' for Inactive)
REMARK    1  A    between atoms: C_1  and  C_2
REMARK    2  A    between atoms: C_10  and  C_13
REMARK    3  A    between atoms: C_18  and  C_23
REMARK    4  A    between atoms: C_26  and  O_31
REMARK    5  A    between atoms: C_27  and  O_29
REMARK    6  A    between atoms: O_29  and  C_30
REMARK    7  A    between atoms: O_31  and  C_32
REMARK                            x       y       z     vdW  Elec       q    Type
REMARK                         _______ _______ _______ _____ _____    ______ ____
ROOT
ATOM      1  C   UNL     1       3.805   1.949  -0.445  0.00  0.00    +0.143 C 
ATOM      2  C   UNL     1       2.482   1.242  -0.618  0.00  0.00    +0.037 C 
ATOM      3  C   UNL     1       2.297   0.048  -1.204  0.00  0.00    +0.017 C 
ATOM      4  C   UNL     1       0.900  -0.538  -1.333  0.00  0.00    +0.059 C 
ATOM      5  C   UNL     1       0.046  -0.113  -0.140  0.00  0.00    +0.032 C 
ATOM      6  C   UNL     1      -0.019   1.419  -0.134  0.00  0.00    +0.088 C 
ATOM      7  C   UNL     1       1.379   1.956  -0.092  0.00  0.00    +0.163 C 
ATOM      8  O   UNL     1       1.573   3.045   0.412  0.00  0.00    -0.292 OA
ATOM      9  N   UNL     1       3.285  -0.725  -1.722  0.00  0.00    -0.316 N 
ATOM     10  C   UNL     1       4.298  -0.263  -2.553  0.00  0.00    +0.052 A 
ATOM     11  C   UNL     1       4.458  -0.726  -3.848  0.00  0.00    +0.025 A 
ATOM     12  C   UNL     1       5.552  -0.307  -4.587  0.00  0.00    +0.002 A 
ATOM     13  C   UNL     1       6.474   0.565  -4.037  0.00  0.00    +0.002 A 
ATOM     14  C   UNL     1       6.303   1.043  -2.749  0.00  0.00    +0.025 A 
ATOM     15  C   UNL     1       5.201   0.640  -2.013  0.00  0.00    +0.049 A 
ATOM     16  N   UNL     1       4.963   1.129  -0.730  0.00  0.00    -0.331 N 
ATOM     17  H   UNL     1       3.284  -1.668  -1.496  0.00  0.00    +0.152 HD
ATOM     18  H   UNL     1       5.585   0.917  -0.016  0.00  0.00    +0.147 HD
ENDROOT
BRANCH   1  28
ATOM     19  C   UNL     1       6.511   8.602  -2.728  0.00  0.00    +0.044 C 
ATOM     20  C   UNL     1       5.556   7.442  -2.855  0.00  0.00    -0.050 A 
ATOM     21  C   UNL     1       4.614   7.432  -3.873  0.00  0.00    +0.007 A 
ATOM     22  C   UNL     1       3.733   6.380  -4.006  0.00  0.00    +0.047 A 
ATOM     23  C   UNL     1       3.785   5.316  -3.114  0.00  0.00    +0.138 A 
ATOM     24  C   UNL     1       4.739   5.328  -2.084  0.00  0.00    +0.065 A 
ATOM     25  C   UNL     1       5.625   6.397  -1.960  0.00  0.00    +0.018 A 
ATOM     26  C   UNL     1       4.770   4.189  -1.146  0.00  0.00    +0.198 A 
ATOM     27  O   UNL     1       5.572   4.143  -0.228  0.00  0.00    -0.287 OA
ATOM     28  C   UNL     1       3.830   3.147  -1.359  0.00  0.00    +0.059 A 
ATOM     29  C   UNL     1       2.959   3.237  -2.380  0.00  0.00    +0.205 A 
ATOM     30  O   UNL     1       2.934   4.275  -3.223  0.00  0.00    -0.462 OA
ENDBRANCH   1  28
BRANCH   5  31
ATOM     31  C   UNL     1      -1.343  -0.683  -0.275  0.00  0.00    -0.040 A 
ATOM     32  C   UNL     1      -2.107  -0.382  -1.387  0.00  0.00    +0.008 A 
ATOM     33  C   UNL     1      -3.381  -0.902  -1.516  0.00  0.00    +0.049 A 
ATOM     34  C   UNL     1      -3.895  -1.728  -0.529  0.00  0.00    +0.161 A 
ATOM     35  C   UNL     1      -3.126  -2.032   0.590  0.00  0.00    +0.162 A 
ATOM     36  C   UNL     1      -1.847  -1.511   0.710  0.00  0.00    +0.053 A 
BRANCH  35  37
ATOM     37  O   UNL     1      -3.626  -2.843   1.561  0.00  0.00    -0.491 OA
ATOM     38  C   UNL     1      -2.780  -3.111   2.681  0.00  0.00    +0.277 C 
ENDBRANCH  35  37
BRANCH  34  39
ATOM     39  O   UNL     1      -5.148  -2.241  -0.655  0.00  0.00    -0.491 OA
ATOM     40  C   UNL     1      -5.880  -1.887  -1.830  0.00  0.00    +0.277 C 
ENDBRANCH  34  39
ENDBRANCH   5  31
TORSDOF 4
