REMARK  Name = ZINC13409009
REMARK  13 active torsions:
REMARK  status: ('A' for Active; 'I' for Inactive)
REMARK    1  A    between atoms: C_1  and  C_2
REMARK    2  A    between atoms: C_2  and  C_3
REMARK    3  A    between atoms: C_2  and  C_4
REMARK    4  A    between atoms: C_4  and  C_5
REMARK    5  A    between atoms: C_5  and  C_6
REMARK    6  A    between atoms: C_6  and  C_7
REMARK    7  A    between atoms: C_7  and  C_9
REMARK    8  A    between atoms: C_7  and  C_10
REMARK    9  A    between atoms: C_16  and  C_37
REMARK   10  A    between atoms: C_24  and  O_36
REMARK   11  A    between atoms: C_26  and  O_35
REMARK   12  A    between atoms: C_27  and  C_34
REMARK   13  A    between atoms: C_30  and  O_33
REMARK                            x       y       z     vdW  Elec       q    Type
REMARK                         _______ _______ _______ _____ _____    ______ ____
ROOT
ATOM      1  C   UNL     1       0.586   1.242  -2.304  0.00  0.00    -0.002 C 
ATOM      2  C   UNL     1       1.881   1.339  -1.463  0.00  0.00    +0.004 C 
ATOM      3  C   UNL     1       1.432   1.624  -0.003  0.00  0.00    +0.004 C 
ATOM      4  C   UNL     1      -0.013   1.094   0.008  0.00  0.00    -0.001 C 
ATOM      5  C   UNL     1      -0.546   1.629  -1.336  0.00  0.00    -0.026 C 
ATOM      6  C   UNL     1      -1.883   0.991  -1.653  0.00  0.00    +0.007 C 
ATOM      7  C   UNL     1      -2.514   0.476  -0.345  0.00  0.00    +0.005 C 
ATOM      8  C   UNL     1      -2.315   1.516   0.749  0.00  0.00    +0.001 C 
ATOM      9  C   UNL     1      -0.859   1.594   1.174  0.00  0.00    -0.001 C 
ATOM     10  C   UNL     1      -0.549   0.692   2.371  0.00  0.00    +0.038 C 
ATOM     11  C   UNL     1      -1.542   0.908   3.510  0.00  0.00    +0.147 C 
ATOM     12  C   UNL     1      -2.939   0.540   3.010  0.00  0.00    +0.100 C 
ATOM     13  C   UNL     1      -3.331   1.449   1.858  0.00  0.00    +0.002 C 
ATOM     14  C   UNL     1      -4.706   1.020   1.335  0.00  0.00    +0.012 C 
ATOM     15  C   UNL     1      -5.746   1.174   2.446  0.00  0.00    +0.032 C 
ATOM     16  C   UNL     1      -5.357   0.304   3.642  0.00  0.00    +0.117 C 
ATOM     17  C   UNL     1      -3.956   0.646   4.145  0.00  0.00    +0.069 C 
ATOM     18  C   UNL     1      -3.465   2.887   2.384  0.00  0.00    +0.014 C 
ATOM     19  C   UNL     1      -0.666   3.154  -1.335  0.00  0.00    +0.012 C 
ENDROOT
BRANCH   1  20
ATOM     20  C   UNL     1       0.635   2.230  -3.470  0.00  0.00    -0.010 C 
ATOM     21  C   UNL     1       1.814   1.885  -4.381  0.00  0.00    +0.008 C 
BRANCH  20  22
ATOM     22  C   UNL     1      -0.668   2.144  -4.267  0.00  0.00    +0.003 C 
BRANCH  22  23
ATOM     23  C   UNL     1      -0.671   3.217  -5.357  0.00  0.00    +0.001 C 
BRANCH  23  24
ATOM     24  C   UNL     1      -1.974   3.131  -6.154  0.00  0.00    +0.003 C 
BRANCH  24  26
ATOM     25  C   UNL     1      -0.866   3.911  -8.253  0.00  0.00    +0.007 C 
ATOM     26  C   UNL     1      -1.978   4.205  -7.244  0.00  0.00    -0.017 C 
ATOM     27  C   UNL     1      -3.330   4.201  -7.960  0.00  0.00    +0.007 C 
ENDBRANCH  24  26
ENDBRANCH  23  24
ENDBRANCH  22  23
ENDBRANCH  20  22
ENDBRANCH   1  20
BRANCH  16  28
ATOM     28  O   UNL     1      -6.301   0.512   4.699  0.00  0.00    -0.392 OA
ATOM     29  H   UNL     1      -7.211   0.288   4.463  0.00  0.00    +0.210 HD
ENDBRANCH  16  28
BRANCH  12  30
ATOM     30  O   UNL     1      -2.914  -0.818   2.546  0.00  0.00    -0.385 OA
ATOM     31  H   UNL     1      -2.671  -1.462   3.226  0.00  0.00    +0.210 HD
ENDBRANCH  12  30
BRANCH  11  32
ATOM     32  O   UNL     1      -1.193   0.053   4.606  0.00  0.00    -0.389 OA
ATOM     33  H   UNL     1      -0.317   0.227   4.978  0.00  0.00    +0.210 HD
ENDBRANCH  11  32
TORSDOF 8
