REMARK  Name = ZINC48797045
REMARK  7 active torsions:
REMARK  status: ('A' for Active; 'I' for Inactive)
REMARK    1  A    between atoms: C_3  and  C_9
REMARK    2  A    between atoms: C_4  and  O_8
REMARK    3  A    between atoms: C_9  and  N_10
REMARK    4  A    between atoms: N_10  and  C_11
REMARK    5  A    between atoms: C_14  and  C_17
REMARK    6  A    between atoms: C_17  and  S_18
REMARK    7  A    between atoms: S_18  and  N_21
REMARK                            x       y       z     vdW  Elec       q    Type
REMARK                         _______ _______ _______ _____ _____    ______ ____
ROOT
ATOM      1  C   UNL     1       5.396   2.914  -1.648  0.00  0.00    +0.027 A 
ATOM      2  C   UNL     1       6.091   3.526  -0.612  0.00  0.00    +0.023 A 
ATOM      3  C   UNL     1       7.276   4.187  -0.873  0.00  0.00    +0.007 A 
ATOM      4  C   UNL     1       7.770   4.240  -2.163  0.00  0.00    -0.025 A 
ATOM      5  C   UNL     1       7.081   3.632  -3.197  0.00  0.00    +0.007 A 
ATOM      6  C   UNL     1       5.899   2.965  -2.942  0.00  0.00    +0.023 A 
ENDROOT
BRANCH   1   7
ATOM      7  N   UNL     1       4.199   2.245  -1.388  0.00  0.00    -0.340 N 
ATOM      8  H   UNL     1       3.716   1.815  -2.111  0.00  0.00    +0.146 HD
BRANCH   7   9
ATOM      9  C   UNL     1       3.670   2.193  -0.023  0.00  0.00    +0.140 C 
BRANCH   9  12
ATOM     10  C   UNL     1      -0.017   1.378   0.010  0.00  0.00    +0.002 A 
ATOM     11  C   UNL     1       1.170   2.088   0.002  0.00  0.00    +0.009 A 
ATOM     12  C   UNL     1       2.378   1.418  -0.013  0.00  0.00    +0.012 A 
ATOM     13  C   UNL     1       2.400   0.031  -0.021  0.00  0.00    +0.135 A 
ATOM     14  C   UNL     1       1.208  -0.680  -0.013  0.00  0.00    +0.060 A 
ATOM     15  C   UNL     1       0.002  -0.004   0.002  0.00  0.00    +0.019 A 
ATOM     16 BR   UNL     1       1.233  -2.571  -0.024  0.00  0.00    -0.047 Br
BRANCH  13  17
ATOM     17  O   UNL     1       3.587  -0.631  -0.037  0.00  0.00    -0.505 OA
ATOM     18  H   UNL     1       3.940  -0.827   0.842  0.00  0.00    +0.292 HD
ENDBRANCH  13  17
ENDBRANCH   9  12
ENDBRANCH   7   9
ENDBRANCH   1   7
BRANCH   4  19
ATOM     19  C   UNL     1       9.062   4.963  -2.444  0.00  0.00    +0.219 C 
BRANCH  19  20
ATOM     20  S   UNL     1      10.450   3.805  -2.284  0.00  0.00    +0.031 S 
ATOM     21  O   UNL     1      10.601   3.408  -0.928  0.00  0.00    -0.158 OA
ATOM     22  O   UNL     1      10.401   2.836  -3.321  0.00  0.00    -0.158 OA
BRANCH  20  23
ATOM     23  N   UNL     1      11.798   4.709  -2.612  0.00  0.00    -0.208 NA
ATOM     24  H   UNL     1      11.710   5.650  -2.830  0.00  0.00    +0.144 HD
ATOM     25  H   UNL     1      12.676   4.297  -2.587  0.00  0.00    +0.144 HD
ENDBRANCH  20  23
ENDBRANCH  19  20
ENDBRANCH   4  19
TORSDOF 7
