REMARK  Name = ZINC63286562
REMARK  6 active torsions:
REMARK  status: ('A' for Active; 'I' for Inactive)
REMARK    1  A    between atoms: C_1  and  C_2
REMARK    2  A    between atoms: C_2  and  C_3
REMARK    3  A    between atoms: C_2  and  C_4
REMARK    4  A    between atoms: C_4  and  C_6
REMARK    5  A    between atoms: C_4  and  N_19
REMARK    6  A    between atoms: C_20  and  C_22
REMARK                            x       y       z     vdW  Elec       q    Type
REMARK                         _______ _______ _______ _____ _____    ______ ____
ROOT
ATOM      1  C   UNL     1      -1.515  -0.266   0.045  0.00  0.00    +0.162 C 
ENDROOT
BRANCH   1   2
ATOM      2  C   UNL     1      -2.100   0.539   1.177  0.00  0.00    +0.241 C 
ATOM      3  O   UNL     1      -2.728   1.550   0.941  0.00  0.00    -0.273 OA
ATOM      4  N   UNL     1      -1.927   0.135   2.451  0.00  0.00    -0.259 N 
ATOM      5  C   UNL     1      -1.258  -1.137   2.760  0.00  0.00    +0.209 C 
ATOM      6  C   UNL     1      -2.005  -1.828   3.871  0.00  0.00    +0.235 C 
ATOM      7  O   UNL     1      -1.992  -3.039   3.939  0.00  0.00    -0.274 OA
ATOM      8  N   UNL     1      -2.686  -1.118   4.790  0.00  0.00    -0.283 N 
ATOM      9  C   UNL     1      -2.758   0.276   4.708  0.00  0.00    +0.055 A 
ATOM     10  C   UNL     1      -2.374   0.919   3.526  0.00  0.00    +0.058 A 
ATOM     11  C   UNL     1      -2.441   2.297   3.427  0.00  0.00    +0.025 A 
ATOM     12  C   UNL     1      -2.882   3.042   4.506  0.00  0.00    +0.002 A 
ATOM     13  C   UNL     1      -3.256   2.414   5.679  0.00  0.00    +0.002 A 
ATOM     14  C   UNL     1      -3.201   1.028   5.784  0.00  0.00    +0.025 A 
ATOM     15  H   UNL     1      -3.132  -1.579   5.518  0.00  0.00    +0.155 HD
ENDBRANCH   1   2
BRANCH   1  16
ATOM     16  N   UNL     1      -2.353  -0.116  -1.146  0.00  0.00    -0.300 N 
ATOM     17  C   UNL     1      -2.357  -1.074  -2.094  0.00  0.00    +0.250 C 
ATOM     18  O   UNL     1      -1.664  -2.064  -1.959  0.00  0.00    -0.270 OA
ATOM     19  H   UNL     1      -2.906   0.674  -1.254  0.00  0.00    +0.150 HD
BRANCH  17  20
ATOM     20  C   UNL     1      -3.201  -0.922  -3.294  0.00  0.00    +0.107 A 
ATOM     21  C   UNL     1      -2.693  -0.296  -4.437  0.00  0.00    +0.138 A 
ATOM     22  C   UNL     1      -3.491  -0.159  -5.557  0.00  0.00    +0.039 A 
ATOM     23  C   UNL     1      -4.788  -0.637  -5.550  0.00  0.00    +0.006 A 
ATOM     24  C   UNL     1      -5.299  -1.257  -4.424  0.00  0.00    +0.039 A 
ATOM     25  C   UNL     1      -4.513  -1.409  -3.297  0.00  0.00    +0.138 A 
ATOM     26  F   UNL     1      -5.012  -2.019  -2.200  0.00  0.00    -0.205 F 
ATOM     27  F   UNL     1      -1.426   0.173  -4.446  0.00  0.00    -0.205 F 
ENDBRANCH  17  20
ENDBRANCH   1  16
BRANCH   1  29
ATOM     28  C   UNL     1      -0.141   1.740  -0.531  0.00  0.00    +0.009 C 
ATOM     29  C   UNL     1      -0.102   0.234  -0.259  0.00  0.00    +0.012 C 
ATOM     30  C   UNL     1       0.807  -0.043   0.941  0.00  0.00    +0.009 C 
ENDBRANCH   1  29
TORSDOF 4
