REMARK  Name = ZINC39468270
REMARK  6 active torsions:
REMARK  status: ('A' for Active; 'I' for Inactive)
REMARK    1  A    between atoms: C_1  and  S_2
REMARK    2  A    between atoms: S_2  and  P_3
REMARK    3  A    between atoms: C_11  and  C_28
REMARK    4  A    between atoms: C_12  and  C_21
REMARK    5  A    between atoms: C_26  and  O_27
REMARK    6  A    between atoms: C_33  and  O_34
REMARK                            x       y       z     vdW  Elec       q    Type
REMARK                         _______ _______ _______ _____ _____    ______ ____
ROOT
ATOM      1  P   UNL     1      -2.048  -0.545   0.019  0.00  0.00    +0.314 P 
ATOM      2  O   UNL     1      -2.721  -0.040  -1.199  0.00  0.00    -0.262 OA
ATOM      3  N   UNL     1      -2.206  -2.184   0.126  0.00  0.00    -0.283 NA
ATOM      4  N   UNL     1      -3.411  -2.686   0.572  0.00  0.00    +0.398 N 
ATOM      5  C   UNL     1      -3.232  -4.143   0.676  0.00  0.00    -0.046 C 
ATOM      6  C   UNL     1      -4.514  -4.817   1.146  0.00  0.00    +0.005 C 
ATOM      7  C   UNL     1      -5.632  -4.557   0.172  0.00  0.00    -0.016 C 
ATOM      8  C   UNL     1      -6.905  -4.659   0.585  0.00  0.00    -0.011 C 
ATOM      9  C   UNL     1      -7.181  -5.040   1.994  0.00  0.00    -0.011 C 
ATOM     10  C   UNL     1      -6.234  -4.855   2.925  0.00  0.00    -0.014 C 
ATOM     11  C   UNL     1      -4.907  -4.262   2.518  0.00  0.00    +0.016 C 
ATOM     12  C   UNL     1      -5.048  -2.743   2.406  0.00  0.00    -0.003 C 
ATOM     13  C   UNL     1      -3.751  -2.119   1.879  0.00  0.00    -0.020 C 
ATOM     14  C   UNL     1      -3.983  -0.605   1.792  0.00  0.00    +0.157 C 
ATOM     15  O   UNL     1      -2.775   0.042   1.351  0.00  0.00    -0.312 OA
ATOM     16  H   UNL     1      -1.476  -2.775  -0.117  0.00  0.00    +0.112 HD
ATOM     17  H   UNL     1      -4.138  -2.467  -0.093  0.00  0.00    -0.055 HD
ENDROOT
BRANCH   9  18
ATOM     18  C   UNL     1      -8.493  -5.619   2.368  0.00  0.00    +0.024 A 
ATOM     19  C   UNL     1      -9.620  -4.803   2.450  0.00  0.00    +0.012 A 
ATOM     20  C   UNL     1     -10.839  -5.348   2.798  0.00  0.00    +0.001 A 
ATOM     21  C   UNL     1     -10.948  -6.701   3.067  0.00  0.00    +0.004 A 
ATOM     22  C   UNL     1      -9.837  -7.519   2.988  0.00  0.00    +0.046 A 
ATOM     23  C   UNL     1      -8.607  -6.987   2.634  0.00  0.00    +0.125 A 
BRANCH  23  24
ATOM     24  O   UNL     1      -7.515  -7.791   2.551  0.00  0.00    -0.506 OA
ATOM     25  H   UNL     1      -7.023  -7.872   3.380  0.00  0.00    +0.292 HD
ENDBRANCH  23  24
ENDBRANCH   9  18
BRANCH   8  26
ATOM     26  C   UNL     1      -8.022  -4.395  -0.353  0.00  0.00    +0.024 A 
ATOM     27  C   UNL     1      -8.767  -5.453  -0.870  0.00  0.00    +0.012 A 
ATOM     28  C   UNL     1      -9.806  -5.202  -1.742  0.00  0.00    +0.001 A 
ATOM     29  C   UNL     1     -10.112  -3.902  -2.107  0.00  0.00    +0.004 A 
ATOM     30  C   UNL     1      -9.380  -2.846  -1.600  0.00  0.00    +0.046 A 
ATOM     31  C   UNL     1      -8.337  -3.083  -0.719  0.00  0.00    +0.125 A 
BRANCH  31  32
ATOM     32  O   UNL     1      -7.620  -2.044  -0.216  0.00  0.00    -0.506 OA
ATOM     33  H   UNL     1      -6.853  -1.800  -0.752  0.00  0.00    +0.292 HD
ENDBRANCH  31  32
ENDBRANCH   8  26
BRANCH   1  35
ATOM     34  C   UNL     1      -0.022   1.810   0.012  0.00  0.00    +0.096 C 
ATOM     35  S   UNL     1       0.002  -0.004   0.002  0.00  0.00    -0.059 S 
ENDBRANCH   1  35
TORSDOF 5
