REMARK  Name = ZINC04452435
REMARK  6 active torsions:
REMARK  status: ('A' for Active; 'I' for Inactive)
REMARK    1  A    between atoms: C_4  and  C_7
REMARK    2  A    between atoms: C_9  and  C_25
REMARK    3  A    between atoms: N_13  and  N_14
REMARK    4  A    between atoms: C_15  and  C_16
REMARK    5  A    between atoms: C_21  and  N_22
REMARK    6  A    between atoms: C_30  and  O_31
REMARK                            x       y       z     vdW  Elec       q    Type
REMARK                         _______ _______ _______ _____ _____    ______ ____
ROOT
ATOM      1  C   UNL     1      -1.202   3.573   0.262  0.00  0.00    +0.077 A 
ATOM      2  C   UNL     1      -1.238   2.179   0.279  0.00  0.00    +0.057 A 
ATOM      3  C   UNL     1      -0.026   1.485   0.252  0.00  0.00    +0.080 A 
ATOM      4  N   UNL     1       1.113   2.174   0.202  0.00  0.00    -0.213 NA
ATOM      5  C   UNL     1       1.105   3.498   0.182  0.00  0.00    +0.236 A 
ATOM      6  N   UNL     1      -0.023   4.190   0.212  0.00  0.00    -0.213 NA
ATOM      7  N   UNL     1       2.311   4.177   0.130  0.00  0.00    -0.205 N 
ATOM      8  H   UNL     1       3.145   3.683   0.108  0.00  0.00    +0.177 HD
ENDROOT
BRANCH   1  12
ATOM      9  C   UNL     1      -4.810   5.821   0.354  0.00  0.00    +0.000 A 
ATOM     10  C   UNL     1      -3.592   6.475   0.302  0.00  0.00    +0.001 A 
ATOM     11  C   UNL     1      -2.418   5.750   0.272  0.00  0.00    +0.010 A 
ATOM     12  C   UNL     1      -2.461   4.357   0.295  0.00  0.00    +0.001 A 
ATOM     13  C   UNL     1      -3.691   3.704   0.342  0.00  0.00    +0.010 A 
ATOM     14  C   UNL     1      -4.859   4.439   0.376  0.00  0.00    +0.001 A 
ENDBRANCH   1  12
BRANCH   3  15
ATOM     15  C   UNL     1      -0.008   0.004   0.273  0.00  0.00    +0.042 A 
ATOM     16  C   UNL     1      -1.204  -0.711   0.325  0.00  0.00    +0.013 A 
ATOM     17  C   UNL     1      -1.182  -2.090   0.344  0.00  0.00    +0.001 A 
ATOM     18  C   UNL     1       0.024  -2.768   0.311  0.00  0.00    +0.004 A 
ATOM     19  C   UNL     1       1.216  -2.071   0.259  0.00  0.00    +0.046 A 
ATOM     20  C   UNL     1       1.208  -0.685   0.234  0.00  0.00    +0.126 A 
BRANCH  20  21
ATOM     21  O   UNL     1       2.379   0.002   0.178  0.00  0.00    -0.506 OA
ATOM     22  H   UNL     1       2.753   0.213   1.044  0.00  0.00    +0.292 HD
ENDBRANCH  20  21
ENDBRANCH   3  15
BRANCH   7  23
ATOM     23  N   UNL     1       2.325   5.578   0.108  0.00  0.00    -0.187 NA
ATOM     24  C   UNL     1       3.455   6.215   0.059  0.00  0.00    +0.140 C 
BRANCH  24  25
ATOM     25  C   UNL     1       3.470   7.689   0.037  0.00  0.00    +0.025 A 
ATOM     26  C   UNL     1       2.272   8.402  -0.054  0.00  0.00    +0.012 A 
ATOM     27  C   UNL     1       2.293   9.781  -0.068  0.00  0.00    +0.001 A 
ATOM     28  C   UNL     1       3.498  10.459  -0.005  0.00  0.00    +0.002 A 
ATOM     29  C   UNL     1       4.689   9.759   0.079  0.00  0.00    +0.033 A 
ATOM     30  C   UNL     1       4.682   8.380   0.101  0.00  0.00    +0.135 A 
BRANCH  30  31
ATOM     31  N   UNL     1       5.957   7.633   0.191  0.00  0.00    +0.057 N 
ATOM     32  O   UNL     1       7.003   8.233   0.362  0.00  0.00    -0.126 OA
ATOM     33  O   UNL     1       5.960   6.419   0.094  0.00  0.00    -0.126 OA
ENDBRANCH  30  31
ENDBRANCH  24  25
ENDBRANCH   7  23
TORSDOF 6
