REMARK  Name = ZINC32828765
REMARK  11 active torsions:
REMARK  status: ('A' for Active; 'I' for Inactive)
REMARK    1  A    between atoms: C_1  and  C_2
REMARK    2  A    between atoms: C_2  and  C_3
REMARK    3  A    between atoms: C_2  and  C_4
REMARK    4  A    between atoms: C_2  and  C_5
REMARK    5  A    between atoms: N_13  and  C_17
REMARK    6  A    between atoms: C_17  and  C_18
REMARK    7  A    between atoms: C_18  and  O_20
REMARK    8  A    between atoms: O_20  and  C_21
REMARK    9  A    between atoms: C_21  and  C_23
REMARK   10  A    between atoms: C_21  and  C_29
REMARK   11  A    between atoms: N_34  and  C_35
REMARK                            x       y       z     vdW  Elec       q    Type
REMARK                         _______ _______ _______ _____ _____    ______ ____
ROOT
ATOM      1  C   UNL     1       0.022  -0.514   1.420  0.00  0.00    +0.326 C 
ATOM      2  O   UNL     1       0.021   0.266   2.343  0.00  0.00    -0.249 OA
ENDROOT
BRANCH   1   3
ATOM      3  C   UNL     1       0.002  -0.004   0.002  0.00  0.00    +0.238 C 
BRANCH   3  12
ATOM      4  C   UNL     1       3.038   5.238   0.002  0.00  0.00    -0.005 C 
ATOM      5  C   UNL     1       2.591   4.477   1.252  0.00  0.00    +0.006 C 
ATOM      6  C   UNL     1       1.064   4.381   1.270  0.00  0.00    +0.035 C 
ATOM      7  C   UNL     1       0.583   3.659   0.016  0.00  0.00    +0.113 C 
ATOM      8  C   UNL     1       1.040   4.395  -1.239  0.00  0.00    +0.035 C 
ATOM      9  C   UNL     1       2.568   4.491  -1.248  0.00  0.00    +0.006 C 
ATOM     10  C   UNL     1       1.088   2.234   0.004  0.00  0.00    +0.247 C 
ATOM     11  O   UNL     1       2.242   1.864  -0.009  0.00  0.00    -0.273 OA
ATOM     12  N   UNL     1      -0.018   1.461   0.010  0.00  0.00    -0.213 N 
ATOM     13  C   UNL     1      -1.135   2.198   0.019  0.00  0.00    +0.310 C 
ATOM     14  O   UNL     1      -2.256   1.727   0.021  0.00  0.00    -0.252 OA
ATOM     15  N   UNL     1      -0.878   3.520   0.029  0.00  0.00    -0.285 N 
ATOM     16  H   UNL     1      -1.516   4.416   0.045  0.00  0.00    +0.151 HD
BRANCH   4  18
ATOM     17  C   UNL     1       5.173   3.940  -0.025  0.00  0.00    +0.011 C 
ATOM     18  C   UNL     1       4.564   5.344  -0.012  0.00  0.00    -0.035 C 
ATOM     19  C   UNL     1       5.011   6.104  -1.262  0.00  0.00    +0.011 C 
ATOM     20  C   UNL     1       5.035   6.093   1.236  0.00  0.00    +0.011 C 
ENDBRANCH   4  18
ENDBRANCH   3  12
ENDBRANCH   1   3
BRANCH   1  21
ATOM     21  O   UNL     1       0.043  -1.835   1.658  0.00  0.00    -0.446 OA
BRANCH  21  22
ATOM     22  C   UNL     1       0.062  -2.254   3.048  0.00  0.00    +0.292 C 
BRANCH  22  23
ATOM     23  C   UNL     1       0.791  -3.567   3.167  0.00  0.00    +0.266 C 
ATOM     24  O   UNL     1       1.250  -4.098   2.178  0.00  0.00    -0.271 OA
ATOM     25  N   UNL     1       0.934  -4.152   4.373  0.00  0.00    -0.237 N 
ATOM     26  C   UNL     1       1.586  -5.327   4.479  0.00  0.00    +0.306 C 
ATOM     27  O   UNL     1       2.046  -5.858   3.487  0.00  0.00    -0.252 OA
ATOM     28  N   UNL     1       1.729  -5.912   5.685  0.00  0.00    -0.302 N 
ATOM     29  C   UNL     1       2.438  -7.189   5.800  0.00  0.00    +0.129 C 
ATOM     30  H   UNL     1       0.517  -3.671   5.270  0.00  0.00    +0.159 HD
ATOM     31  H   UNL     1       1.312  -5.431   6.582  0.00  0.00    +0.150 HD
ENDBRANCH  22  23
BRANCH  22  32
ATOM     32  C   UNL     1      -1.353  -2.418   3.542  0.00  0.00    +0.002 A 
ATOM     33  C   UNL     1      -2.311  -2.980   2.720  0.00  0.00    +0.008 A 
ATOM     34  C   UNL     1      -3.607  -3.135   3.175  0.00  0.00    +0.000 A 
ATOM     35  C   UNL     1      -3.947  -2.719   4.449  0.00  0.00    +0.000 A 
ATOM     36  C   UNL     1      -2.989  -2.153   5.270  0.00  0.00    +0.000 A 
ATOM     37  C   UNL     1      -1.692  -2.002   4.816  0.00  0.00    +0.008 A 
ENDBRANCH  22  32
ENDBRANCH  21  22
ENDBRANCH   1  21
TORSDOF 7
