REMARK  Name = ZINC28914885
REMARK  11 active torsions:
REMARK  status: ('A' for Active; 'I' for Inactive)
REMARK    1  A    between atoms: C_1  and  C_2
REMARK    2  A    between atoms: C_2  and  C_4
REMARK    3  A    between atoms: C_2  and  O_34
REMARK    4  A    between atoms: C_4  and  N_5
REMARK    5  A    between atoms: N_14  and  C_15
REMARK    6  A    between atoms: C_15  and  C_16
REMARK    7  A    between atoms: N_18  and  C_19
REMARK    8  A    between atoms: N_18  and  C_27
REMARK    9  A    between atoms: C_19  and  C_20
REMARK   10  A    between atoms: C_20  and  C_21
REMARK   11  A    between atoms: C_27  and  C_28
REMARK                            x       y       z     vdW  Elec       q    Type
REMARK                         _______ _______ _______ _____ _____    ______ ____
ROOT
ATOM      1  C   UNL     1       2.580  -0.129   1.178  0.00  0.00    +0.220 C 
ENDROOT
BRANCH   1  11
ATOM      2  N   UNL     1       3.701   1.944   3.077  0.00  0.00    -0.314 N 
ATOM      3  C   UNL     1       4.252   0.695   2.883  0.00  0.00    +0.175 A 
ATOM      4  N   UNL     1       5.321   0.241   3.490  0.00  0.00    -0.327 N 
ATOM      5  C   UNL     1       5.589  -1.020   3.060  0.00  0.00    +0.065 A 
ATOM      6  C   UNL     1       6.588  -1.946   3.367  0.00  0.00    +0.028 A 
ATOM      7  C   UNL     1       6.593  -3.176   2.749  0.00  0.00    +0.002 A 
ATOM      8  C   UNL     1       5.614  -3.503   1.823  0.00  0.00    +0.002 A 
ATOM      9  C   UNL     1       4.619  -2.600   1.510  0.00  0.00    +0.028 A 
ATOM     10  C   UNL     1       4.599  -1.356   2.122  0.00  0.00    +0.068 A 
ATOM     11  N   UNL     1       3.764  -0.254   2.032  0.00  0.00    -0.305 N 
ATOM     12  H   UNL     1       2.797   2.239   2.524  0.00  0.00    +0.149 HD
ATOM     13  H   UNL     1       5.846   0.872   4.222  0.00  0.00    +0.169 HD
BRANCH   2  14
ATOM     14  C   UNL     1       4.319   2.879   4.021  0.00  0.00    +0.135 C 
BRANCH  14  16
ATOM     15  C   UNL     1       4.230   5.201   4.937  0.00  0.00    +0.039 C 
ATOM     16  C   UNL     1       3.517   4.181   4.048  0.00  0.00    +0.128 C 
BRANCH  16  17
ATOM     17  O   UNL     1       2.211   3.926   4.569  0.00  0.00    -0.391 OA
ATOM     18  H   UNL     1       1.545   3.214   4.059  0.00  0.00    +0.210 HD
ENDBRANCH  16  17
ENDBRANCH  14  16
ENDBRANCH   2  14
ENDBRANCH   1  11
BRANCH   1  19
ATOM     19  C   UNL     1       1.366  -0.613   1.927  0.00  0.00    +0.236 C 
ATOM     20  O   UNL     1       1.478  -1.023   3.063  0.00  0.00    -0.274 OA
ATOM     21  N   UNL     1       0.155  -0.591   1.335  0.00  0.00    -0.295 N 
BRANCH  21  22
ATOM     22  C   UNL     1      -1.040  -0.957   2.099  0.00  0.00    +0.113 C 
BRANCH  22  23
ATOM     23  C   UNL     1      -1.288  -2.461   1.969  0.00  0.00    +0.054 C 
BRANCH  23  24
ATOM     24  C   UNL     1      -2.518  -2.837   2.754  0.00  0.00    -0.046 A 
ATOM     25  C   UNL     1      -2.404  -3.211   4.080  0.00  0.00    +0.004 A 
ATOM     26  C   UNL     1      -3.533  -3.551   4.802  0.00  0.00    +0.000 A 
ATOM     27  C   UNL     1      -4.774  -3.528   4.195  0.00  0.00    +0.000 A 
ATOM     28  C   UNL     1      -4.888  -3.160   2.867  0.00  0.00    +0.000 A 
ATOM     29  C   UNL     1      -3.760  -2.815   2.147  0.00  0.00    +0.004 A 
ENDBRANCH  23  24
ENDBRANCH  22  23
ENDBRANCH  21  22
BRANCH  21  30
ATOM     30  C   UNL     1       0.035  -0.202  -0.072  0.00  0.00    +0.143 C 
BRANCH  30  31
ATOM     31  C   UNL     1      -0.308   1.263  -0.160  0.00  0.00    -0.030 A 
ATOM     32  C   UNL     1      -1.626   1.671  -0.078  0.00  0.00    +0.005 A 
ATOM     33  C   UNL     1      -1.940   3.015  -0.154  0.00  0.00    +0.000 A 
ATOM     34  C   UNL     1      -0.937   3.951  -0.322  0.00  0.00    +0.000 A 
ATOM     35  C   UNL     1       0.381   3.543  -0.410  0.00  0.00    +0.000 A 
ATOM     36  C   UNL     1       0.696   2.199  -0.329  0.00  0.00    +0.005 A 
ENDBRANCH  30  31
ENDBRANCH  21  30
ENDBRANCH   1  19
TORSDOF 10
