REMARK  Name = ZINC16098448
REMARK  5 active torsions:
REMARK  status: ('A' for Active; 'I' for Inactive)
REMARK    1  A    between atoms: C_3  and  S_9
REMARK    2  A    between atoms: S_9  and  N_12
REMARK    3  A    between atoms: N_12  and  C_13
REMARK    4  A    between atoms: C_16  and  S_19
REMARK    5  A    between atoms: S_19  and  N_22
REMARK                            x       y       z     vdW  Elec       q    Type
REMARK                         _______ _______ _______ _____ _____    ______ ____
ROOT
ATOM      1  C   UNL     1      -7.049   4.225   3.786  0.00  0.00    +0.048 A 
ATOM      2  C   UNL     1      -5.821   4.408   4.409  0.00  0.00    +0.026 A 
ATOM      3  C   UNL     1      -4.670   4.498   3.651  0.00  0.00    +0.031 A 
ATOM      4  C   UNL     1      -4.739   4.406   2.273  0.00  0.00    +0.113 A 
ATOM      5  C   UNL     1      -5.960   4.229   1.649  0.00  0.00    +0.031 A 
ATOM      6  C   UNL     1      -7.115   4.133   2.401  0.00  0.00    +0.026 A 
ENDROOT
BRANCH   4   7
ATOM      7  S   UNL     1      -3.268   4.522   1.310  0.00  0.00    +0.100 S 
ATOM      8  O   UNL     1      -2.324   5.237   2.095  0.00  0.00    -0.146 OA
ATOM      9  O   UNL     1      -3.664   4.952   0.015  0.00  0.00    -0.146 OA
BRANCH   7  10
ATOM     10  N   UNL     1      -2.674   2.986   1.138  0.00  0.00    -0.118 NA
ATOM     11  C   UNL     1      -1.587   2.785   0.466  0.00  0.00    +0.117 C 
ATOM     12  C   UNL     1      -0.888   3.949  -0.144  0.00  0.00    +0.073 C 
ATOM     13  C   UNL     1      -1.339   4.131  -1.609  0.00  0.00    +0.008 C 
ATOM     14  C   UNL     1      -0.820   3.031  -2.452  0.00  0.00    +0.002 C 
ATOM     15  C   UNL     1      -1.349   1.653  -2.086  0.00  0.00    +0.019 C 
ATOM     16  C   UNL     1      -0.535   1.057  -0.963  0.00  0.00    +0.102 C 
ATOM     17  N   UNL     1      -1.105   1.491   0.335  0.00  0.00    -0.331 N 
ATOM     18  H   UNL     1      -1.142   0.876   1.084  0.00  0.00    +0.147 HD
ENDBRANCH   7  10
ENDBRANCH   4   7
BRANCH   1  19
ATOM     19  N   UNL     1      -8.215   4.133   4.550  0.00  0.00    -0.216 N 
ATOM     20  H   UNL     1      -8.236   3.567   5.337  0.00  0.00    +0.174 HD
BRANCH  19  21
ATOM     21  S   UNL     1      -9.561   4.992   4.111  0.00  0.00    +0.074 S 
ATOM     22  O   UNL     1      -9.814   4.682   2.747  0.00  0.00    -0.150 OA
ATOM     23  O   UNL     1     -10.528   4.782   5.131  0.00  0.00    -0.150 OA
BRANCH  21  26
ATOM     24  C   UNL     1      -8.802   8.794   3.054  0.00  0.00    +0.003 A 
ATOM     25  C   UNL     1      -9.138   7.453   3.010  0.00  0.00    +0.030 A 
ATOM     26  C   UNL     1      -9.132   6.700   4.168  0.00  0.00    +0.128 A 
ATOM     27  C   UNL     1      -8.794   7.288   5.374  0.00  0.00    +0.086 A 
ATOM     28  C   UNL     1      -8.452   8.629   5.417  0.00  0.00    +0.061 A 
ATOM     29  C   UNL     1      -8.459   9.382   4.257  0.00  0.00    +0.021 A 
ATOM     30 CL   UNL     1      -8.021   9.367   6.929  0.00  0.00    -0.082 Cl
ATOM     31 CL   UNL     1      -8.793   6.344   6.831  0.00  0.00    -0.080 Cl
ENDBRANCH  21  26
ENDBRANCH  19  21
ENDBRANCH   1  19
TORSDOF 5
