REMARK  Name = ZINC34954303
REMARK  3 active torsions:
REMARK  status: ('A' for Active; 'I' for Inactive)
REMARK    1  A    between atoms: C_9  and  C_12
REMARK    2  A    between atoms: C_20  and  C_21
REMARK    3  A    between atoms: C_24  and  C_26
REMARK                            x       y       z     vdW  Elec       q    Type
REMARK                         _______ _______ _______ _____ _____    ______ ____
ROOT
ATOM      1  C   UNL     1       4.898  -2.639  -0.071  0.00  0.00    +0.196 A 
ATOM      2  N   UNL     1       5.523  -2.455  -1.235  0.00  0.00    -0.201 NA
ATOM      3  C   UNL     1       6.621  -3.157  -1.250  0.00  0.00    +0.200 A 
ATOM      4  N   UNL     1       6.746  -3.835  -0.069  0.00  0.00    -0.169 N 
ATOM      5  N   UNL     1       5.593  -3.456   0.669  0.00  0.00    -0.142 NA
ATOM      6  C   UNL     1       7.819  -4.616   0.107  0.00  0.00    +0.288 A 
ATOM      7  O   UNL     1       7.967  -5.236   1.145  0.00  0.00    -0.265 OA
ATOM      8  C   UNL     1       8.782  -4.712  -0.933  0.00  0.00    +0.085 A 
ATOM      9  C   UNL     1       9.949  -5.441  -0.979  0.00  0.00    +0.067 C 
ATOM     10  S   UNL     1       8.069  -3.631  -2.165  0.00  0.00    -0.044 S 
ENDROOT
BRANCH   1  19
ATOM     11  C   UNL     1      -0.017   1.378   0.010  0.00  0.00    +0.004 A 
ATOM     12  C   UNL     1       1.170   2.088   0.002  0.00  0.00    +0.004 A 
ATOM     13  C   UNL     1       2.378   1.418  -0.014  0.00  0.00    +0.049 A 
ATOM     14  C   UNL     1       2.404   0.031  -0.023  0.00  0.00    +0.163 A 
ATOM     15  C   UNL     1       1.212  -0.683  -0.013  0.00  0.00    +0.162 A 
ATOM     16  C   UNL     1       0.002  -0.004   0.002  0.00  0.00    +0.049 A 
ATOM     17  O   UNL     1       1.214  -2.044  -0.013  0.00  0.00    -0.484 OA
ATOM     18  C   UNL     1       2.434  -2.685  -0.404  0.00  0.00    +0.281 C 
ATOM     19  C   UNL     1       3.594  -1.997   0.328  0.00  0.00    +0.280 C 
ATOM     20  O   UNL     1       3.602  -0.615  -0.043  0.00  0.00    -0.474 OA
ENDBRANCH   1  19
BRANCH   9  21
ATOM     21  C   UNL     1      10.767  -5.389  -2.127  0.00  0.00    +0.130 A 
ATOM     22  C   UNL     1      11.957  -6.074  -2.306  0.00  0.00    +0.050 A 
ATOM     23  C   UNL     1      12.429  -5.735  -3.576  0.00  0.00    +0.050 A 
ATOM     24  C   UNL     1      11.518  -4.861  -4.125  0.00  0.00    +0.137 A 
ATOM     25  O   UNL     1      10.522  -4.669  -3.241  0.00  0.00    -0.455 OA
BRANCH  24  26
ATOM     26  C   UNL     1      11.614  -4.243  -5.461  0.00  0.00    +0.037 A 
ATOM     27  C   UNL     1      12.797  -3.614  -5.860  0.00  0.00    +0.033 A 
ATOM     28  C   UNL     1      12.880  -3.038  -7.111  0.00  0.00    +0.042 A 
ATOM     29  C   UNL     1      11.795  -3.083  -7.972  0.00  0.00    +0.021 A 
ATOM     30  C   UNL     1      10.621  -3.703  -7.584  0.00  0.00    +0.022 A 
ATOM     31  C   UNL     1      10.525  -4.289  -6.337  0.00  0.00    +0.052 A 
ATOM     32 CL   UNL     1       9.054  -5.074  -5.855  0.00  0.00    -0.083 Cl
ATOM     33 CL   UNL     1      14.348  -2.256  -7.609  0.00  0.00    -0.084 Cl
ENDBRANCH  24  26
ENDBRANCH   9  21
TORSDOF 3
