REMARK  Name = ZINC39727291
REMARK  7 active torsions:
REMARK  status: ('A' for Active; 'I' for Inactive)
REMARK    1  A    between atoms: C_1  and  C_2
REMARK    2  A    between atoms: C_2  and  C_4
REMARK    3  A    between atoms: C_2  and  N_17
REMARK    4  A    between atoms: N_17  and  C_18
REMARK    5  A    between atoms: C_18  and  C_19
REMARK    6  A    between atoms: C_19  and  C_21
REMARK    7  A    between atoms: C_19  and  C_27
REMARK                            x       y       z     vdW  Elec       q    Type
REMARK                         _______ _______ _______ _____ _____    ______ ____
ROOT
ATOM      1  N   UNL     1      -1.349  -0.711  -0.008  0.00  0.00    +0.387 N 
ATOM      2  H   UNL     1      -1.550  -1.662   0.260  0.00  0.00    -0.085 HD
ATOM      3  H   UNL     1      -1.736  -0.079   0.677  0.00  0.00    -0.085 HD
ENDROOT
BRANCH   1   5
ATOM      4  C   UNL     1       0.413   0.951  -0.367  0.00  0.00    -0.004 C 
ATOM      5  C   UNL     1       0.105  -0.520  -0.083  0.00  0.00    +0.013 C 
BRANCH   5   6
ATOM      6  C   UNL     1       0.732  -0.920   1.228  0.00  0.00    +0.206 C 
ATOM      7  O   UNL     1       0.036  -1.325   2.135  0.00  0.00    -0.277 OA
ATOM      8  N   UNL     1       2.067  -0.829   1.392  0.00  0.00    -0.262 N 
ATOM      9  C   UNL     1       2.933  -0.337   0.310  0.00  0.00    +0.209 C 
ATOM     10  C   UNL     1       4.172  -1.192   0.245  0.00  0.00    +0.235 C 
ATOM     11  O   UNL     1       4.744  -1.337  -0.815  0.00  0.00    -0.274 OA
ATOM     12  N   UNL     1       4.652  -1.796   1.348  0.00  0.00    -0.283 N 
ATOM     13  C   UNL     1       3.985  -1.685   2.572  0.00  0.00    +0.055 A 
ATOM     14  C   UNL     1       2.675  -1.196   2.603  0.00  0.00    +0.058 A 
ATOM     15  C   UNL     1       1.999  -1.081   3.804  0.00  0.00    +0.025 A 
ATOM     16  C   UNL     1       2.627  -1.447   4.982  0.00  0.00    +0.002 A 
ATOM     17  C   UNL     1       3.924  -1.925   4.959  0.00  0.00    +0.002 A 
ATOM     18  C   UNL     1       4.606  -2.052   3.755  0.00  0.00    +0.025 A 
ATOM     19  H   UNL     1       5.471  -2.314   1.293  0.00  0.00    +0.155 HD
ENDBRANCH   5   6
ENDBRANCH   1   5
BRANCH   1  20
ATOM     20  C   UNL     1      -1.947  -0.435  -1.321  0.00  0.00    -0.072 C 
BRANCH  20  21
ATOM     21  C   UNL     1      -3.442  -0.760  -1.279  0.00  0.00    +0.018 C 
BRANCH  21  22
ATOM     22  C   UNL     1      -4.129   0.161  -0.304  0.00  0.00    -0.020 A 
ATOM     23  C   UNL     1      -4.874  -0.237   0.893  0.00  0.00    +0.003 A 
ATOM     24  C   UNL     1      -5.177  -1.464   1.484  0.00  0.00    +0.010 A 
ATOM     25  C   UNL     1      -5.915  -1.500   2.634  0.00  0.00    +0.001 A 
ATOM     26  C   UNL     1      -6.366  -0.325   3.219  0.00  0.00    +0.002 A 
ATOM     27  C   UNL     1      -6.079   0.897   2.652  0.00  0.00    +0.026 A 
ATOM     28  C   UNL     1      -5.329   0.957   1.482  0.00  0.00    +0.047 A 
ATOM     29  N   UNL     1      -4.886   1.994   0.692  0.00  0.00    -0.360 N 
ATOM     30  C   UNL     1      -4.168   1.502  -0.363  0.00  0.00    +0.087 A 
ATOM     31  H   UNL     1      -5.054   2.935   0.861  0.00  0.00    +0.165 HD
ENDBRANCH  21  22
BRANCH  21  32
ATOM     32  C   UNL     1      -4.045  -0.568  -2.672  0.00  0.00    +0.060 C 
ATOM     33  C   UNL     1      -5.511  -1.073  -2.732  0.00  0.00    +0.042 C 
ATOM     34  C   UNL     1      -5.784  -1.752  -4.035  0.00  0.00    -0.019 C 
ATOM     35  C   UNL     1      -4.780  -2.171  -4.780  0.00  0.00    +0.036 C 
ATOM     36  S   UNL     1      -3.295  -1.723  -3.897  0.00  0.00    -0.129 S 
ENDBRANCH  21  32
ENDBRANCH  20  21
ENDBRANCH   1  20
TORSDOF 6
