REMARK  Name = ZINC67127578
REMARK  11 active torsions:
REMARK  status: ('A' for Active; 'I' for Inactive)
REMARK    1  A    between atoms: C_1  and  N_2
REMARK    2  A    between atoms: N_2  and  C_3
REMARK    3  A    between atoms: N_2  and  C_4
REMARK    4  A    between atoms: C_4  and  C_6
REMARK    5  A    between atoms: C_4  and  C_26
REMARK    6  A    between atoms: C_6  and  N_7
REMARK    7  A    between atoms: C_8  and  C_10
REMARK    8  A    between atoms: C_10  and  C_11
REMARK    9  A    between atoms: C_11  and  C_12
REMARK   10  A    between atoms: C_12  and  C_13
REMARK   11  A    between atoms: C_13  and  C_14
REMARK                            x       y       z     vdW  Elec       q    Type
REMARK                         _______ _______ _______ _____ _____    ______ ____
ROOT
ATOM      1  N   UNL     1       0.204  -2.151   0.754  0.00  0.00    -0.317 N 
ATOM      2  C   UNL     1       0.640  -3.421   0.866  0.00  0.00    +0.213 C 
ATOM      3  O   UNL     1       0.253  -4.266   0.086  0.00  0.00    -0.276 OA
ATOM      4  H   UNL     1       0.514  -1.475   1.378  0.00  0.00    +0.149 HD
ENDROOT
BRANCH   1   5
ATOM      5  C   UNL     1      -0.738  -1.790  -0.308  0.00  0.00    +0.093 C 
BRANCH   5   6
ATOM      6  C   UNL     1      -1.168  -0.333  -0.135  0.00  0.00    -0.021 C 
BRANCH   6   7
ATOM      7  C   UNL     1      -1.946  -0.188   1.148  0.00  0.00    -0.059 A 
ATOM      8  C   UNL     1      -3.277  -0.556   1.195  0.00  0.00    +0.002 A 
ATOM      9  C   UNL     1      -3.990  -0.423   2.371  0.00  0.00    +0.000 A 
ATOM     10  C   UNL     1      -3.372   0.078   3.502  0.00  0.00    +0.000 A 
ATOM     11  C   UNL     1      -2.040   0.446   3.455  0.00  0.00    +0.000 A 
ATOM     12  C   UNL     1      -1.326   0.309   2.279  0.00  0.00    +0.002 A 
ENDBRANCH   6   7
BRANCH   6  14
ATOM     13  C   UNL     1      -2.469   1.450  -1.076  0.00  0.00    -0.096 C 
ATOM     14  N   UNL     1      -2.014   0.066  -1.268  0.00  0.00    +0.382 N 
ATOM     15  C   UNL     1      -1.241  -0.027  -2.513  0.00  0.00    -0.096 C 
ATOM     16  H   UNL     1      -2.814  -0.546  -1.322  0.00  0.00    -0.082 HD
ENDBRANCH   6  14
ENDBRANCH   5   6
ENDBRANCH   1   5
BRANCH   2  17
ATOM     17  C   UNL     1       1.609  -3.792   1.959  0.00  0.00    +0.096 C 
BRANCH  17  18
ATOM     18  C   UNL     1       1.941  -5.283   1.863  0.00  0.00    +0.009 C 
BRANCH  18  19
ATOM     19  C   UNL     1       2.924  -5.659   2.973  0.00  0.00    +0.002 C 
BRANCH  19  20
ATOM     20  C   UNL     1       3.256  -7.150   2.876  0.00  0.00    +0.016 C 
BRANCH  20  21
ATOM     21  C   UNL     1       4.239  -7.526   3.986  0.00  0.00    +0.069 C 
ATOM     22  C   UNL     1       4.568  -8.997   3.947  0.00  0.00    +0.108 C 
ATOM     23  C   UNL     1       5.675  -9.230   2.873  0.00  0.00    +0.105 C 
ATOM     24  C   UNL     1       6.856  -8.370   3.315  0.00  0.00    +0.093 C 
ATOM     25  S   UNL     1       5.913  -6.793   3.675  0.00  0.00    -0.154 S 
ATOM     26  N   UNL     1       5.736 -10.674   2.911  0.00  0.00    -0.294 N 
ATOM     27  C   UNL     1       4.463 -11.085   3.192  0.00  0.00    +0.300 C 
ATOM     28  O   UNL     1       4.081 -12.232   3.059  0.00  0.00    -0.253 OA
ATOM     29  N   UNL     1       3.671 -10.066   3.621  0.00  0.00    -0.294 N 
ATOM     30  H   UNL     1       6.516 -11.233   2.767  0.00  0.00    +0.151 HD
ATOM     31  H   UNL     1       2.704 -10.068   3.695  0.00  0.00    +0.151 HD
ENDBRANCH  20  21
ENDBRANCH  19  20
ENDBRANCH  18  19
ENDBRANCH  17  18
ENDBRANCH   2  17
TORSDOF 9
