REMARK  Name = ZINC22635987
REMARK  8 active torsions:
REMARK  status: ('A' for Active; 'I' for Inactive)
REMARK    1  A    between atoms: C_1  and  C_2
REMARK    2  A    between atoms: C_2  and  N_3
REMARK    3  A    between atoms: C_11  and  O_26
REMARK    4  A    between atoms: C_13  and  C_16
REMARK    5  A    between atoms: C_20  and  O_24
REMARK    6  A    between atoms: C_21  and  O_22
REMARK    7  A    between atoms: O_22  and  C_23
REMARK    8  A    between atoms: O_24  and  C_25
REMARK                            x       y       z     vdW  Elec       q    Type
REMARK                         _______ _______ _______ _____ _____    ______ ____
ROOT
ATOM      1  N   UNL     1       4.414   0.263  -7.398  0.00  0.00    +0.383 N 
ATOM      2  C   UNL     1       3.222  -0.519  -7.042  0.00  0.00    -0.074 C 
ATOM      3  C   UNL     1       3.477  -1.313  -5.758  0.00  0.00    +0.018 C 
ATOM      4  C   UNL     1       4.000  -0.350  -4.698  0.00  0.00    -0.027 A 
ATOM      5  C   UNL     1       4.495   0.856  -5.066  0.00  0.00    -0.021 A 
ATOM      6  S   UNL     1       4.978   1.632  -3.548  0.00  0.00    -0.080 S 
ATOM      7  C   UNL     1       4.535   0.387  -2.461  0.00  0.00    +0.080 A 
ATOM      8  C   UNL     1       4.009  -0.625  -3.274  0.00  0.00    +0.067 A 
ATOM      9  C   UNL     1       3.518  -1.854  -2.599  0.00  0.00    +0.220 C 
ATOM     10  N   UNL     1       3.422  -1.835  -1.300  0.00  0.00    -0.223 NA
ATOM     11  C   UNL     1       3.666  -0.668  -0.463  0.00  0.00    +0.227 C 
ATOM     12  N   UNL     1       4.617   0.266  -1.095  0.00  0.00    -0.313 N 
ATOM     13  C   UNL     1       4.600   1.387  -6.461  0.00  0.00    -0.035 C 
ATOM     14  H   UNL     1       5.338   0.819  -0.475  0.00  0.00    +0.149 HD
ATOM     15  H   UNL     1       5.290  -0.399  -7.322  0.00  0.00    -0.081 HD
ENDROOT
BRANCH  11  16
ATOM     16  C   UNL     1       2.361   0.047  -0.224  0.00  0.00    +0.040 A 
ATOM     17  C   UNL     1       2.335   1.426  -0.128  0.00  0.00    +0.011 A 
ATOM     18  C   UNL     1       1.140   2.085   0.092  0.00  0.00    +0.004 A 
ATOM     19  C   UNL     1      -0.035   1.367   0.217  0.00  0.00    +0.049 A 
ATOM     20  C   UNL     1      -0.017  -0.015   0.122  0.00  0.00    +0.162 A 
ATOM     21  C   UNL     1       1.187  -0.678  -0.100  0.00  0.00    +0.168 A 
BRANCH  21  22
ATOM     22  O   UNL     1       1.210  -2.034  -0.194  0.00  0.00    -0.491 OA
ATOM     23  C   UNL     1       1.290  -2.768   1.029  0.00  0.00    +0.277 C 
ENDBRANCH  21  22
BRANCH  20  24
ATOM     24  O   UNL     1      -1.172  -0.722   0.244  0.00  0.00    -0.491 OA
ATOM     25  C   UNL     1      -2.369   0.025   0.469  0.00  0.00    +0.277 C 
ENDBRANCH  20  24
ENDBRANCH  11  16
BRANCH   1  27
ATOM     26  C   UNL     1       3.068   1.578  -8.965  0.00  0.00    -0.017 C 
ATOM     27  C   UNL     1       4.336   0.741  -8.785  0.00  0.00    -0.082 C 
ENDBRANCH   1  27
BRANCH   9  28
ATOM     28  O   UNL     1       3.181  -2.955  -3.310  0.00  0.00    -0.492 OA
ATOM     29  H   UNL     1       2.820  -3.855  -2.792  0.00  0.00    +0.294 HD
ENDBRANCH   9  28
TORSDOF 5
