REMARK  Name = ZINC02383877
REMARK  7 active torsions:
REMARK  status: ('A' for Active; 'I' for Inactive)
REMARK    1  A    between atoms: C_1  and  C_2
REMARK    2  A    between atoms: C_2  and  C_3
REMARK    3  A    between atoms: C_3  and  C_27
REMARK    4  A    between atoms: N_15  and  C_24
REMARK    5  A    between atoms: C_16  and  C_18
REMARK    6  A    between atoms: C_24  and  C_25
REMARK    7  A    between atoms: C_25  and  O_26
REMARK                            x       y       z     vdW  Elec       q    Type
REMARK                         _______ _______ _______ _____ _____    ______ ____
ROOT
ATOM      1  C   UNL     1       3.689   2.216  -0.069  0.00  0.00    +0.004 C 
ATOM      2  C   UNL     1       4.835   1.332  -0.553  0.00  0.00    +0.047 C 
ATOM      3  C   UNL     1       4.756  -0.031   0.082  0.00  0.00    -0.037 A 
ATOM      4  C   UNL     1       5.907  -0.715   0.413  0.00  0.00    +0.004 A 
ATOM      5  C   UNL     1       5.826  -1.968   0.992  0.00  0.00    +0.000 A 
ATOM      6  C   UNL     1       4.594  -2.546   1.242  0.00  0.00    +0.001 A 
ATOM      7  C   UNL     1       3.434  -1.872   0.917  0.00  0.00    +0.010 A 
ATOM      8  C   UNL     1       3.512  -0.609   0.337  0.00  0.00    +0.004 A 
ATOM      9  C   UNL     1       2.285   0.141  -0.019  0.00  0.00    +0.082 A 
ATOM     10  C   UNL     1       2.373   1.509  -0.223  0.00  0.00    +0.049 A 
ATOM     11  C   UNL     1       1.212   2.216  -0.573  0.00  0.00    +0.259 A 
ATOM     12  O   UNL     1       1.249   3.421  -0.763  0.00  0.00    -0.267 OA
ATOM     13  N   UNL     1       0.052   1.533  -0.694  0.00  0.00    -0.290 N 
ATOM     14  C   UNL     1       0.022   0.188  -0.477  0.00  0.00    +0.144 A 
ATOM     15  N   UNL     1       1.108  -0.480  -0.150  0.00  0.00    -0.228 NA
ATOM     16  C   UNL     1       3.667   3.507  -0.889  0.00  0.00    +0.016 C 
ENDROOT
BRANCH  14  17
ATOM     17  C   UNL     1      -1.258  -0.537  -0.611  0.00  0.00    +0.018 A 
ATOM     18  C   UNL     1      -1.723  -1.339   0.433  0.00  0.00    +0.011 A 
ATOM     19  C   UNL     1      -2.922  -2.009   0.303  0.00  0.00    +0.001 A 
ATOM     20  C   UNL     1      -3.659  -1.895  -0.863  0.00  0.00    +0.000 A 
ATOM     21  C   UNL     1      -3.202  -1.105  -1.903  0.00  0.00    +0.001 A 
ATOM     22  C   UNL     1      -2.007  -0.426  -1.784  0.00  0.00    +0.011 A 
ENDBRANCH  14  17
BRANCH   1  24
ATOM     23  C   UNL     1       2.776   3.471   1.889  0.00  0.00    +0.005 C 
ATOM     24  C   UNL     1       3.907   2.561   1.406  0.00  0.00    +0.008 C 
ENDBRANCH   1  24
BRANCH  13  25
ATOM     25  C   UNL     1      -1.176   2.240  -1.065  0.00  0.00    +0.154 C 
BRANCH  25  26
ATOM     26  C   UNL     1      -1.967   2.587   0.197  0.00  0.00    +0.177 C 
BRANCH  26  27
ATOM     27  O   UNL     1      -1.221   3.515   0.988  0.00  0.00    -0.393 OA
ATOM     28  H   UNL     1      -1.663   3.779   1.806  0.00  0.00    +0.209 HD
ENDBRANCH  26  27
ENDBRANCH  25  26
ENDBRANCH  13  25
TORSDOF 5
