REMARK  Name = ZINC39658064
REMARK  7 active torsions:
REMARK  status: ('A' for Active; 'I' for Inactive)
REMARK    1  A    between atoms: C_1  and  S_2
REMARK    2  A    between atoms: S_2  and  C_3
REMARK    3  A    between atoms: C_3  and  C_4
REMARK    4  A    between atoms: C_4  and  C_5
REMARK    5  A    between atoms: C_9  and  C_18
REMARK    6  A    between atoms: N_20  and  C_21
REMARK    7  A    between atoms: C_24  and  C_27
REMARK                            x       y       z     vdW  Elec       q    Type
REMARK                         _______ _______ _______ _____ _____    ______ ____
ROOT
ATOM      1  C   UNL     1       1.791  -2.293  -3.057  0.00  0.00    +0.216 C 
ATOM      2  O   UNL     1       2.159  -1.432  -3.828  0.00  0.00    -0.276 OA
ATOM      3  N   UNL     1       1.947  -3.594  -3.375  0.00  0.00    -0.300 N 
ATOM      4  C   UNL     1       1.558  -4.778  -2.574  0.00  0.00    +0.121 C 
ATOM      5  C   UNL     1       1.009  -5.786  -3.608  0.00  0.00    +0.100 C 
ATOM      6  C   UNL     1       1.663  -5.378  -4.939  0.00  0.00    -0.004 C 
ATOM      7  C   UNL     1       2.541  -4.162  -4.609  0.00  0.00    +0.115 C 
ATOM      8  C   UNL     1       2.519  -6.519  -5.479  0.00  0.00    -0.010 C 
ATOM      9  C   UNL     1       3.112  -6.112  -6.830  0.00  0.00    -0.082 C 
ATOM     10  N   UNL     1       2.028  -5.801  -7.769  0.00  0.00    +0.379 N 
ATOM     11  C   UNL     1       1.265  -4.643  -7.288  0.00  0.00    -0.082 C 
ATOM     12  C   UNL     1       0.594  -4.989  -5.956  0.00  0.00    -0.010 C 
ATOM     13  H   UNL     1       2.418  -5.592  -8.676  0.00  0.00    -0.086 HD
ATOM     14  H   UNL     1       1.413  -6.598  -7.846  0.00  0.00    -0.086 HD
ENDROOT
BRANCH   5  15
ATOM     15  C   UNL     1       1.406  -7.190  -3.234  0.00  0.00    +0.218 C 
ATOM     16  O   UNL     1       2.448  -7.390  -2.647  0.00  0.00    -0.275 OA
ATOM     17  N   UNL     1       0.603  -8.225  -3.552  0.00  0.00    -0.312 N 
ATOM     18  H   UNL     1      -0.231  -8.066  -4.022  0.00  0.00    +0.149 HD
BRANCH  17  19
ATOM     19  C   UNL     1       0.989  -9.591  -3.188  0.00  0.00    +0.073 C 
ATOM     20  C   UNL     1       1.910 -10.164  -4.267  0.00  0.00    +0.023 C 
ATOM     21  C   UNL     1       2.314 -11.591  -3.887  0.00  0.00    +0.016 C 
ATOM     22  C   UNL     1       1.061 -12.461  -3.771  0.00  0.00    +0.102 C 
ATOM     23  C   UNL     1       0.140 -11.887  -2.692  0.00  0.00    +0.016 C 
ATOM     24  C   UNL     1      -0.264 -10.461  -3.072  0.00  0.00    +0.023 C 
BRANCH  22  25
ATOM     25  C   UNL     1       1.458 -13.866  -3.397  0.00  0.00    +0.359 C 
ATOM     26  O   UNL     1       0.700 -14.559  -2.740  0.00  0.00    -0.246 OA
ATOM     27  O   UNL     1       2.538 -14.309  -3.751  0.00  0.00    -0.246 OA
ENDBRANCH  22  25
ENDBRANCH  17  19
ENDBRANCH   5  15
BRANCH   1  28
ATOM     28  C   UNL     1       1.159  -1.909  -1.744  0.00  0.00    +0.106 C 
BRANCH  28  29
ATOM     29  C   UNL     1       1.102  -0.384  -1.632  0.00  0.00    +0.078 C 
BRANCH  29  31
ATOM     30  C   UNL     1       0.348   1.891  -0.075  0.00  0.00    +0.084 C 
ATOM     31  S   UNL     1       0.342   0.078  -0.052  0.00  0.00    -0.164 S 
ENDBRANCH  29  31
ENDBRANCH  28  29
ENDBRANCH   1  28
TORSDOF 6
