REMARK  Name = ZINC08657511
REMARK  8 active torsions:
REMARK  status: ('A' for Active; 'I' for Inactive)
REMARK    1  A    between atoms: C_1  and  N_55
REMARK    2  A    between atoms: C_2  and  N_55
REMARK    3  A    between atoms: C_3  and  C_4
REMARK    4  A    between atoms: C_3  and  N_55
REMARK    5  A    between atoms: C_4  and  N_5
REMARK    6  A    between atoms: C_12  and  C_16
REMARK    7  A    between atoms: C_26  and  S_28
REMARK    8  A    between atoms: S_28  and  C_29
REMARK                            x       y       z     vdW  Elec       q    Type
REMARK                         _______ _______ _______ _____ _____    ______ ____
ROOT
ATOM      1  N   UNL     1       2.307   1.501  -6.551  0.00  0.00    -0.330 N 
ATOM      2  C   UNL     1       2.193   1.278  -5.188  0.00  0.00    +0.138 A 
ATOM      3  C   UNL     1       1.018   1.585  -4.514  0.00  0.00    +0.080 A 
ATOM      4  C   UNL     1       0.896   1.361  -3.138  0.00  0.00    +0.094 A 
ATOM      5  C   UNL     1      -0.399   1.728  -2.537  0.00  0.00    +0.037 A 
ATOM      6  C   UNL     1      -0.786   1.607  -1.181  0.00  0.00    -0.030 A 
ATOM      7  C   UNL     1      -2.034   2.001  -0.800  0.00  0.00    -0.018 A 
ATOM      8  C   UNL     1      -2.922   2.519  -1.750  0.00  0.00    +0.076 A 
ATOM      9  N   UNL     1      -2.555   2.629  -3.020  0.00  0.00    -0.239 NA
ATOM     10  C   UNL     1      -1.358   2.259  -3.419  0.00  0.00    +0.112 A 
ATOM     11  S   UNL     1      -0.545   2.264  -4.998  0.00  0.00    -0.064 S 
ATOM     12  C   UNL     1      -2.212   1.777   0.687  0.00  0.00    +0.038 C 
ATOM     13  C   UNL     1      -0.779   1.605   1.244  0.00  0.00    +0.009 C 
ATOM     14  C   UNL     1      -0.013   1.086   0.008  0.00  0.00    +0.036 C 
ATOM     15  N   UNL     1       1.980   0.835  -2.521  0.00  0.00    -0.221 NA
ATOM     16  C   UNL     1       3.079   0.555  -3.189  0.00  0.00    +0.190 A 
ATOM     17  N   UNL     1       3.206   0.763  -4.494  0.00  0.00    -0.206 NA
ATOM     18  H   UNL     1       1.562   1.876  -7.046  0.00  0.00    +0.147 HD
ENDROOT
BRANCH   8  19
ATOM     19  C   UNL     1      -4.280   2.946  -1.335  0.00  0.00    +0.001 A 
ATOM     20  C   UNL     1      -4.958   2.249  -0.336  0.00  0.00    +0.010 A 
ATOM     21  C   UNL     1      -6.219   2.655   0.051  0.00  0.00    +0.001 A 
ATOM     22  C   UNL     1      -6.815   3.743  -0.559  0.00  0.00    +0.000 A 
ATOM     23  C   UNL     1      -6.150   4.435  -1.555  0.00  0.00    +0.001 A 
ATOM     24  C   UNL     1      -4.886   4.042  -1.946  0.00  0.00    +0.010 A 
ENDBRANCH   8  19
BRANCH  16  25
ATOM     25  S   UNL     1       4.445  -0.127  -2.311  0.00  0.00    -0.089 S 
ATOM     26  C   UNL     1       5.633  -0.305  -3.665  0.00  0.00    +0.093 C 
ENDBRANCH  16  25
BRANCH   1  27
ATOM     27  C   UNL     1       3.555   1.171  -7.245  0.00  0.00    +0.084 C 
BRANCH  27  28
ATOM     28  C   UNL     1       3.417   1.513  -8.730  0.00  0.00    -0.061 C 
BRANCH  28  31
ATOM     29  C   UNL     1       4.906  -0.268  -9.421  0.00  0.00    -0.097 C 
ATOM     30  C   UNL     1       4.663   1.710 -10.797  0.00  0.00    -0.097 C 
ATOM     31  N   UNL     1       4.690   1.194  -9.412  0.00  0.00    +0.377 N 
ATOM     32  H   UNL     1       5.461   1.642  -8.904  0.00  0.00    -0.083 HD
ENDBRANCH  28  31
ENDBRANCH  27  28
ENDBRANCH   1  27
TORSDOF 5
