REMARK  Name = ZINC04515705
REMARK  6 active torsions:
REMARK  status: ('A' for Active; 'I' for Inactive)
REMARK    1  A    between atoms: C_1  and  C_2
REMARK    2  A    between atoms: N_11  and  C_15
REMARK    3  A    between atoms: C_15  and  C_16
REMARK    4  A    between atoms: N_18  and  C_19
REMARK    5  A    between atoms: C_19  and  C_21
REMARK    6  A    between atoms: C_19  and  C_22
REMARK                            x       y       z     vdW  Elec       q    Type
REMARK                         _______ _______ _______ _____ _____    ______ ____
ROOT
ATOM      1  C   UNL     1      -0.019   1.526   0.010  0.00  0.00    +0.010 C 
ATOM      2  C   UNL     1       0.002  -0.004   0.002  0.00  0.00    +0.018 C 
ATOM      3  C   UNL     1      -1.434  -0.533   0.012  0.00  0.00    +0.006 C 
ATOM      4  C   UNL     1      -1.413  -2.063   0.024  0.00  0.00    +0.000 C 
ATOM      5  C   UNL     1      -0.690  -2.554   1.280  0.00  0.00    +0.003 C 
ATOM      6  C   UNL     1       0.749  -2.033   1.276  0.00  0.00    +0.035 C 
ATOM      7  C   UNL     1       0.741  -0.509   1.237  0.00  0.00    +0.115 C 
ATOM      8  C   UNL     1       0.111   0.049   2.493  0.00  0.00    +0.247 C 
ATOM      9  O   UNL     1      -1.023  -0.123   2.884  0.00  0.00    -0.273 OA
ATOM     10  N   UNL     1       1.078   0.778   3.087  0.00  0.00    -0.215 N 
ATOM     11  C   UNL     1       2.217   0.755   2.383  0.00  0.00    +0.310 C 
ATOM     12  O   UNL     1       3.230   1.337   2.717  0.00  0.00    -0.252 OA
ATOM     13  N   UNL     1       2.113   0.013   1.264  0.00  0.00    -0.285 N 
ATOM     14  H   UNL     1       2.808  -0.145   0.606  0.00  0.00    +0.151 HD
ENDROOT
BRANCH  10  15
ATOM     15  C   UNL     1       0.904   1.505   4.347  0.00  0.00    +0.213 C 
BRANCH  15  16
ATOM     16  C   UNL     1       1.267   0.606   5.501  0.00  0.00    +0.231 C 
ATOM     17  O   UNL     1       1.635  -0.530   5.291  0.00  0.00    -0.274 OA
ATOM     18  N   UNL     1       1.182   1.065   6.765  0.00  0.00    -0.307 N 
ATOM     19  H   UNL     1       0.888   1.974   6.933  0.00  0.00    +0.149 HD
BRANCH  18  20
ATOM     20  C   UNL     1       1.535   0.191   7.887  0.00  0.00    +0.100 C 
ATOM     21  C   UNL     1       3.045   0.248   8.123  0.00  0.00    +0.033 C 
BRANCH  20  22
ATOM     22  C   UNL     1       0.815   0.651   9.128  0.00  0.00    -0.027 A 
ATOM     23  C   UNL     1       0.682   2.002   9.389  0.00  0.00    +0.005 A 
ATOM     24  C   UNL     1       0.022   2.425  10.528  0.00  0.00    +0.000 A 
ATOM     25  C   UNL     1      -0.507   1.496  11.405  0.00  0.00    +0.000 A 
ATOM     26  C   UNL     1      -0.375   0.145  11.143  0.00  0.00    +0.000 A 
ATOM     27  C   UNL     1       0.281  -0.277  10.002  0.00  0.00    +0.005 A 
ENDBRANCH  20  22
ENDBRANCH  18  20
ENDBRANCH  15  16
ENDBRANCH  10  15
TORSDOF 4
