REMARK  Name = ZINC04530747
REMARK  6 active torsions:
REMARK  status: ('A' for Active; 'I' for Inactive)
REMARK    1  A    between atoms: C_4  and  C_7
REMARK    2  A    between atoms: C_7  and  O_8
REMARK    3  A    between atoms: O_8  and  C_9
REMARK    4  A    between atoms: C_11  and  N_49
REMARK    5  A    between atoms: C_13  and  O_31
REMARK    6  A    between atoms: C_22  and  C_25
REMARK                            x       y       z     vdW  Elec       q    Type
REMARK                         _______ _______ _______ _____ _____    ______ ____
ROOT
ATOM      1  C   UNL     1       2.145   1.188   1.275  0.00  0.00    +0.239 C 
ATOM      2  C   UNL     1       1.425   1.621  -0.003  0.00  0.00    +0.014 C 
ATOM      3  C   UNL     1      -0.013   1.086   0.008  0.00  0.00    +0.136 C 
ATOM      4  C   UNL     1      -0.705   1.583   1.277  0.00  0.00    +0.180 C 
ATOM      5  C   UNL     1       0.094   1.097   2.493  0.00  0.00    +0.178 C 
ATOM      6  O   UNL     1       1.414   1.632   2.423  0.00  0.00    -0.345 OA
ATOM      7  C   UNL     1      -0.625   1.560   3.761  0.00  0.00    +0.197 C 
ATOM      8  O   UNL     1      -1.973   1.076   3.717  0.00  0.00    -0.345 OA
ATOM      9  C   UNL     1      -2.710   1.488   2.565  0.00  0.00    +0.282 C 
ATOM     10  O   UNL     1      -2.034   1.073   1.373  0.00  0.00    -0.339 OA
ENDROOT
BRANCH   9  11
ATOM     11  C   UNL     1      -4.082   0.867   2.601  0.00  0.00    +0.008 A 
ATOM     12  C   UNL     1      -4.492   0.035   1.575  0.00  0.00    +0.008 A 
ATOM     13  C   UNL     1      -5.749  -0.538   1.610  0.00  0.00    +0.000 A 
ATOM     14  C   UNL     1      -6.600  -0.274   2.667  0.00  0.00    +0.000 A 
ATOM     15  C   UNL     1      -6.193   0.561   3.690  0.00  0.00    +0.000 A 
ATOM     16  C   UNL     1      -4.934   1.132   3.657  0.00  0.00    +0.008 A 
ENDBRANCH   9  11
BRANCH   2  19
ATOM     17  H   UNL     1       2.335   3.466  -0.086  0.00  0.00    -0.089 HD
ATOM     18  H   UNL     1       0.876   3.400  -0.881  0.00  0.00    -0.089 HD
ATOM     19  N   UNL     1       1.387   3.093  -0.056  0.00  0.00    +0.385 N 
ATOM     20  H   UNL     1       0.914   3.449   0.783  0.00  0.00    -0.089 HD
ENDBRANCH   2  19
BRANCH   3  21
ATOM     21  O   UNL     1      -0.712   1.563  -1.143  0.00  0.00    -0.391 OA
ATOM     22  H   UNL     1      -0.319   1.289  -1.984  0.00  0.00    +0.210 HD
ENDBRANCH   3  21
BRANCH   1  23
ATOM     23  O   UNL     1       2.251  -0.236   1.301  0.00  0.00    -0.348 OA
BRANCH  23  24
ATOM     24  C   UNL     1       3.009  -0.743   2.401  0.00  0.00    +0.198 C 
BRANCH  24  28
ATOM     25  C   UNL     1       3.139  -5.008   2.197  0.00  0.00    +0.000 A 
ATOM     26  C   UNL     1       4.116  -4.256   1.571  0.00  0.00    +0.000 A 
ATOM     27  C   UNL     1       4.073  -2.876   1.637  0.00  0.00    +0.006 A 
ATOM     28  C   UNL     1       3.055  -2.248   2.329  0.00  0.00    -0.022 A 
ATOM     29  C   UNL     1       2.082  -3.000   2.960  0.00  0.00    +0.006 A 
ATOM     30  C   UNL     1       2.121  -4.380   2.890  0.00  0.00    +0.000 A 
ENDBRANCH  24  28
ENDBRANCH  23  24
ENDBRANCH   1  23
TORSDOF 6
