REMARK  Name = ZINC00868284
REMARK  5 active torsions:
REMARK  status: ('A' for Active; 'I' for Inactive)
REMARK    1  A    between atoms: C_4  and  C_7
REMARK    2  A    between atoms: N_9  and  C_10
REMARK    3  A    between atoms: C_10  and  C_17
REMARK    4  A    between atoms: C_11  and  C_12
REMARK    5  A    between atoms: C_22  and  N_59
REMARK                            x       y       z     vdW  Elec       q    Type
REMARK                         _______ _______ _______ _____ _____    ______ ____
ROOT
ATOM      1  C   UNL     1      -1.278  -0.768   0.105  0.00  0.00    +0.100 C 
ATOM      2  C   UNL     1      -1.811  -1.030   1.328  0.00  0.00    +0.074 C 
ENDROOT
BRANCH   1   3
ATOM      3  C   UNL     1      -0.026  -0.014  -0.002  0.00  0.00    +0.261 C 
ATOM      4  O   UNL     1       1.035  -0.604  -0.080  0.00  0.00    -0.269 OA
ATOM      5  N   UNL     1      -0.051   1.334  -0.014  0.00  0.00    -0.297 N 
ATOM      6  C   UNL     1      -1.328   2.059  -0.043  0.00  0.00    +0.106 C 
ATOM      7  C   UNL     1      -1.316   3.041  -1.213  0.00  0.00    +0.004 C 
ATOM      8  C   UNL     1      -0.084   3.941  -1.109  0.00  0.00    -0.066 C 
ATOM      9  C   UNL     1       1.183   3.086  -1.182  0.00  0.00    +0.004 C 
ATOM     10  C   UNL     1       1.200   2.105  -0.005  0.00  0.00    +0.106 C 
BRANCH   8  16
ATOM     11  C   UNL     1       1.133   5.723  -2.207  0.00  0.00    -0.078 C 
ATOM     12  C   UNL     1       1.163   6.612  -3.453  0.00  0.00    -0.019 C 
ATOM     13  C   UNL     1      -0.076   7.511  -3.464  0.00  0.00    -0.004 C 
ATOM     14  C   UNL     1      -1.332   6.635  -3.425  0.00  0.00    -0.019 C 
ATOM     15  C   UNL     1      -1.290   5.746  -2.180  0.00  0.00    -0.078 C 
ATOM     16  N   UNL     1      -0.087   4.889  -2.243  0.00  0.00    +0.382 N 
ATOM     17  H   UNL     1      -0.102   4.358  -3.121  0.00  0.00    -0.081 HD
ENDBRANCH   8  16
ENDBRANCH   1   3
BRANCH   2  18
ATOM     18  C   UNL     1      -1.213  -0.489   2.493  0.00  0.00    +0.130 A 
ATOM     19  C   UNL     1      -1.585  -0.751   3.794  0.00  0.00    +0.049 A 
ATOM     20  C   UNL     1      -0.724  -0.004   4.614  0.00  0.00    +0.042 A 
ATOM     21  C   UNL     1       0.119   0.668   3.801  0.00  0.00    +0.195 A 
ATOM     22  O   UNL     1      -0.173   0.371   2.526  0.00  0.00    -0.463 OA
ENDBRANCH   2  18
BRANCH   1  25
ATOM     23  C   UNL     1      -1.456  -0.868  -2.265  0.00  0.00    +0.248 C 
ATOM     24  O   UNL     1      -0.418  -0.243  -2.359  0.00  0.00    -0.270 OA
ATOM     25  N   UNL     1      -1.925  -1.218  -1.051  0.00  0.00    -0.277 N 
ATOM     26  H   UNL     1      -2.711  -1.782  -0.979  0.00  0.00    +0.155 HD
BRANCH  23  30
ATOM     27  C   UNL     1      -3.607  -1.949  -5.765  0.00  0.00    +0.000 A 
ATOM     28  C   UNL     1      -2.425  -1.238  -5.875  0.00  0.00    +0.001 A 
ATOM     29  C   UNL     1      -1.722  -0.883  -4.742  0.00  0.00    +0.013 A 
ATOM     30  C   UNL     1      -2.205  -1.244  -3.483  0.00  0.00    +0.037 A 
ATOM     31  C   UNL     1      -3.394  -1.967  -3.380  0.00  0.00    +0.013 A 
ATOM     32  C   UNL     1      -4.091  -2.311  -4.520  0.00  0.00    +0.001 A 
ENDBRANCH  23  30
ENDBRANCH   1  25
TORSDOF 5
