REMARK  Name = ZINC63427032
REMARK  11 active torsions:
REMARK  status: ('A' for Active; 'I' for Inactive)
REMARK    1  A    between atoms: C_1  and  C_2
REMARK    2  A    between atoms: C_2  and  O_3
REMARK    3  A    between atoms: O_3  and  C_4
REMARK    4  A    between atoms: C_4  and  C_6
REMARK    5  A    between atoms: C_10  and  O_34
REMARK    6  A    between atoms: N_14  and  C_28
REMARK    7  A    between atoms: C_15  and  C_17
REMARK    8  A    between atoms: C_17  and  S_18
REMARK    9  A    between atoms: S_18  and  C_19
REMARK   10  A    between atoms: O_34  and  C_35
REMARK   11  A    between atoms: C_35  and  C_37
REMARK                            x       y       z     vdW  Elec       q    Type
REMARK                         _______ _______ _______ _____ _____    ______ ____
ROOT
ATOM      1  C   UNL     1       1.484  -2.882  -2.369  0.00  0.00    +0.151 C 
ATOM      2  C   UNL     1       0.958  -2.207  -3.615  0.00  0.00    -0.007 A 
ATOM      3  C   UNL     1       0.769  -0.870  -3.909  0.00  0.00    +0.052 A 
ATOM      4  C   UNL     1       0.263  -0.494  -5.144  0.00  0.00    +0.132 A 
ATOM      5  C   UNL     1      -0.053  -1.466  -6.083  0.00  0.00    +0.048 A 
ATOM      6  C   UNL     1       0.135  -2.799  -5.790  0.00  0.00    +0.027 A 
ATOM      7  C   UNL     1       0.645  -3.183  -4.547  0.00  0.00    +0.039 A 
ATOM      8  N   UNL     1       0.907  -4.466  -4.057  0.00  0.00    -0.295 N 
ATOM      9  C   UNL     1       1.441  -4.384  -2.691  0.00  0.00    +0.107 C 
ENDROOT
BRANCH   8  10
ATOM     10  C   UNL     1       0.694  -5.652  -4.763  0.00  0.00    +0.034 A 
ATOM     11  C   UNL     1       1.774  -6.439  -5.146  0.00  0.00    +0.023 A 
ATOM     12  C   UNL     1       1.560  -7.611  -5.843  0.00  0.00    +0.002 A 
ATOM     13  C   UNL     1       0.272  -8.003  -6.161  0.00  0.00    +0.000 A 
ATOM     14  C   UNL     1      -0.805  -7.223  -5.782  0.00  0.00    +0.002 A 
ATOM     15  C   UNL     1      -0.598  -6.052  -5.078  0.00  0.00    +0.023 A 
ENDBRANCH   8  10
BRANCH   1  16
ATOM     16  C   UNL     1       0.599  -2.572  -1.189  0.00  0.00    +0.316 C 
ATOM     17  O   UNL     1      -0.566  -2.299  -1.363  0.00  0.00    -0.250 OA
BRANCH  16  18
ATOM     18  O   UNL     1       1.104  -2.598   0.054  0.00  0.00    -0.464 OA
BRANCH  18  20
ATOM     19  C   UNL     1       0.957  -2.373   2.456  0.00  0.00    +0.048 C 
ATOM     20  C   UNL     1       0.207  -2.294   1.125  0.00  0.00    +0.229 C 
ENDBRANCH  18  20
ENDBRANCH  16  18
ENDBRANCH   1  16
BRANCH   9  21
ATOM     21  C   UNL     1       0.514  -5.110  -1.714  0.00  0.00    +0.097 C 
BRANCH  21  22
ATOM     22  S   UNL     1       0.607  -6.898  -2.008  0.00  0.00    -0.113 S 
BRANCH  22  23
ATOM     23  C   UNL     1      -0.533  -7.603  -0.786  0.00  0.00    +0.235 C 
ATOM     24  N   UNL     1      -1.873  -7.028  -0.956  0.00  0.00    -0.355 N 
ATOM     25  C   UNL     1      -2.181  -6.419   0.153  0.00  0.00    +0.061 A 
ATOM     26  C   UNL     1      -3.368  -5.668   0.585  0.00  0.00    +0.027 A 
ATOM     27  C   UNL     1      -3.404  -5.136   1.823  0.00  0.00    +0.002 A 
ATOM     28  C   UNL     1      -2.343  -5.269   2.736  0.00  0.00    +0.002 A 
ATOM     29  C   UNL     1      -1.210  -5.938   2.442  0.00  0.00    +0.027 A 
ATOM     30  C   UNL     1      -1.058  -6.559   1.120  0.00  0.00    +0.061 A 
ATOM     31  N   UNL     1      -0.100  -7.249   0.571  0.00  0.00    -0.355 N 
ATOM     32  H   UNL     1      -2.428  -7.090  -1.749  0.00  0.00    +0.162 HD
ATOM     33  H   UNL     1       0.746  -7.485   0.984  0.00  0.00    +0.162 HD
ENDBRANCH  22  23
ENDBRANCH  21  22
ENDBRANCH   9  21
BRANCH   4  34
ATOM     34  O   UNL     1       0.076   0.821  -5.434  0.00  0.00    -0.426 OA
BRANCH  34  35
ATOM     35  C   UNL     1       1.153   1.554  -5.756  0.00  0.00    +0.309 C 
ATOM     36  O   UNL     1       2.246   1.040  -5.792  0.00  0.00    -0.251 OA
ATOM     37  C   UNL     1       1.000   3.020  -6.074  0.00  0.00    +0.136 C 
ENDBRANCH  34  35
ENDBRANCH   4  34
TORSDOF 9
