REMARK  Name = ZINC12607739
REMARK  9 active torsions:
REMARK  status: ('A' for Active; 'I' for Inactive)
REMARK    1  A    between atoms: C_1  and  C_2
REMARK    2  A    between atoms: C_5  and  C_35
REMARK    3  A    between atoms: C_6  and  N_8
REMARK    4  A    between atoms: C_12  and  N_16
REMARK    5  A    between atoms: N_16  and  C_17
REMARK    6  A    between atoms: C_20  and  C_34
REMARK    7  A    between atoms: C_21  and  S_23
REMARK    8  A    between atoms: S_23  and  N_26
REMARK    9  A    between atoms: N_26  and  C_27
REMARK                            x       y       z     vdW  Elec       q    Type
REMARK                         _______ _______ _______ _____ _____    ______ ____
ROOT
ATOM      1  C   UNL     1      -2.180  -5.933   5.072  0.00  0.00    +0.030 A 
ATOM      2  C   UNL     1      -2.934  -4.802   5.362  0.00  0.00    +0.023 A 
ATOM      3  C   UNL     1      -4.282  -4.924   5.633  0.00  0.00    +0.007 A 
ATOM      4  C   UNL     1      -4.882  -6.170   5.619  0.00  0.00    -0.024 A 
ATOM      5  C   UNL     1      -4.135  -7.298   5.332  0.00  0.00    +0.113 A 
ATOM      6  C   UNL     1      -2.787  -7.182   5.053  0.00  0.00    +0.052 A 
ATOM      7  C   UNL     1      -6.354  -6.299   5.916  0.00  0.00    +0.046 C 
ENDROOT
BRANCH   5   8
ATOM      8  S   UNL     1      -4.904  -8.883   5.315  0.00  0.00    +0.073 S 
ATOM      9  O   UNL     1      -6.074  -8.758   4.518  0.00  0.00    -0.150 OA
ATOM     10  O   UNL     1      -3.882  -9.827   5.026  0.00  0.00    -0.150 OA
BRANCH   8  11
ATOM     11  N   UNL     1      -5.414  -9.195   6.859  0.00  0.00    -0.216 N 
ATOM     12  H   UNL     1      -6.358  -9.326   7.041  0.00  0.00    +0.174 HD
BRANCH  11  13
ATOM     13  C   UNL     1      -4.484  -9.271   7.901  0.00  0.00    +0.048 A 
ATOM     14  C   UNL     1      -3.314 -10.000   7.737  0.00  0.00    +0.027 A 
ATOM     15  C   UNL     1      -2.397 -10.073   8.767  0.00  0.00    +0.040 A 
ATOM     16  C   UNL     1      -2.643  -9.419   9.963  0.00  0.00    +0.124 A 
ATOM     17  C   UNL     1      -3.810  -8.691  10.128  0.00  0.00    +0.040 A 
ATOM     18  C   UNL     1      -4.727  -8.611   9.099  0.00  0.00    +0.027 A 
ATOM     19  F   UNL     1      -1.745  -9.492  10.969  0.00  0.00    -0.205 F 
ENDBRANCH  11  13
ENDBRANCH   8  11
ENDBRANCH   5   8
BRANCH   1  20
ATOM     20  N   UNL     1      -0.816  -5.813   4.797  0.00  0.00    -0.332 N 
ATOM     21  H   UNL     1      -0.291  -6.603   4.591  0.00  0.00    +0.147 HD
BRANCH  20  26
ATOM     22  N   UNL     1       1.032  -3.654   3.016  0.00  0.00    -0.209 N 
ATOM     23  C   UNL     1       1.984  -4.050   3.872  0.00  0.00    +0.228 C 
ATOM     24  O   UNL     1       3.178  -3.960   3.684  0.00  0.00    -0.275 OA
ATOM     25  C   UNL     1       1.331  -4.627   5.109  0.00  0.00    +0.128 C 
ATOM     26  C   UNL     1      -0.177  -4.495   4.818  0.00  0.00    +0.166 C 
ATOM     27  C   UNL     1      -0.219  -3.852   3.449  0.00  0.00    +0.247 C 
ATOM     28  O   UNL     1      -1.226  -3.563   2.839  0.00  0.00    -0.273 OA
BRANCH  22  34
ATOM     29  C   UNL     1       1.917   0.362   0.318  0.00  0.00    +0.044 C 
ATOM     30  C   UNL     1       1.757  -1.132   0.438  0.00  0.00    -0.049 A 
ATOM     31  C   UNL     1       1.897  -1.933  -0.681  0.00  0.00    +0.004 A 
ATOM     32  C   UNL     1       1.750  -3.304  -0.575  0.00  0.00    +0.005 A 
ATOM     33  C   UNL     1       1.464  -3.877   0.649  0.00  0.00    -0.029 A 
ATOM     34  C   UNL     1       1.323  -3.075   1.773  0.00  0.00    +0.047 A 
ATOM     35  C   UNL     1       1.476  -1.700   1.665  0.00  0.00    +0.027 A 
ATOM     36  C   UNL     1       1.304  -5.371   0.763  0.00  0.00    +0.045 C 
ENDBRANCH  22  34
ENDBRANCH  20  26
ENDBRANCH   1  20
TORSDOF 6
