REMARK  Name = ZINC03265504
REMARK  12 active torsions:
REMARK  status: ('A' for Active; 'I' for Inactive)
REMARK    1  A    between atoms: C_1  and  C_2
REMARK    2  A    between atoms: C_7  and  O_8
REMARK    3  A    between atoms: O_8  and  C_9
REMARK    4  A    between atoms: C_9  and  C_10
REMARK    5  A    between atoms: C_10  and  C_12
REMARK    6  A    between atoms: C_10  and  O_26
REMARK    7  A    between atoms: C_12  and  N_13
REMARK    8  A    between atoms: N_13  and  C_14
REMARK    9  A    between atoms: C_14  and  C_15
REMARK   10  A    between atoms: C_15  and  C_16
REMARK   11  A    between atoms: C_19  and  S_22
REMARK   12  A    between atoms: S_22  and  N_25
REMARK                            x       y       z     vdW  Elec       q    Type
REMARK                         _______ _______ _______ _____ _____    ______ ____
ROOT
ATOM      1  N   UNL     1      -0.176   0.156   7.231  0.00  0.00    +0.381 N 
ATOM      2  H   UNL     1       0.636   0.752   7.285  0.00  0.00    -0.086 HD
ATOM      3  H   UNL     1      -1.004   0.725   7.135  0.00  0.00    -0.086 HD
ENDROOT
BRANCH   1   4
ATOM      4  C   UNL     1      -0.055  -0.733   6.069  0.00  0.00    -0.048 C 
BRANCH   4   5
ATOM      5  C   UNL     1       0.047   0.106   4.793  0.00  0.00    +0.135 C 
BRANCH   5   6
ATOM      6  O   UNL     1       1.258   0.863   4.817  0.00  0.00    -0.390 OA
ATOM      7  H   UNL     1       2.059   0.323   4.869  0.00  0.00    +0.210 HD
ENDBRANCH   5   6
BRANCH   5   8
ATOM      8  C   UNL     1       0.048  -0.819   3.574  0.00  0.00    +0.258 C 
BRANCH   8   9
ATOM      9  O   UNL     1       0.025  -0.033   2.381  0.00  0.00    -0.489 OA
BRANCH   9  16
ATOM     10  C   UNL     1      -0.018   1.503   0.010  0.00  0.00    +0.047 C 
ATOM     11  C   UNL     1       0.002  -0.004   0.002  0.00  0.00    -0.007 A 
ATOM     12  C   UNL     1       0.006  -0.689  -1.198  0.00  0.00    +0.027 A 
ATOM     13  C   UNL     1       0.024  -2.072  -1.206  0.00  0.00    +0.041 A 
ATOM     14  C   UNL     1       0.040  -2.773  -0.013  0.00  0.00    +0.023 A 
ATOM     15  C   UNL     1       0.036  -2.092   1.189  0.00  0.00    +0.047 A 
ATOM     16  C   UNL     1       0.023  -0.704   1.199  0.00  0.00    +0.124 A 
ATOM     17 CL   UNL     1       0.028  -2.930  -2.715  0.00  0.00    -0.084 Cl
ENDBRANCH   9  16
ENDBRANCH   8   9
ENDBRANCH   5   8
ENDBRANCH   4   5
ENDBRANCH   1   4
BRANCH   1  18
ATOM     18  C   UNL     1      -0.274  -0.649   8.456  0.00  0.00    -0.078 C 
BRANCH  18  19
ATOM     19  C   UNL     1      -0.400   0.278   9.667  0.00  0.00    +0.016 C 
BRANCH  19  20
ATOM     20  C   UNL     1      -0.501  -0.549  10.923  0.00  0.00    -0.049 A 
ATOM     21  C   UNL     1      -1.739  -0.952  11.388  0.00  0.00    +0.005 A 
ATOM     22  C   UNL     1      -1.831  -1.710  12.540  0.00  0.00    +0.029 A 
ATOM     23  C   UNL     1      -0.686  -2.065  13.228  0.00  0.00    +0.105 A 
ATOM     24  C   UNL     1       0.552  -1.662  12.763  0.00  0.00    +0.029 A 
ATOM     25  C   UNL     1       0.645  -0.908  11.608  0.00  0.00    +0.005 A 
BRANCH  23  26
ATOM     26  S   UNL     1      -0.804  -3.030  14.697  0.00  0.00    +0.056 S 
ATOM     27  O   UNL     1       0.372  -2.767  15.451  0.00  0.00    -0.153 OA
ATOM     28  O   UNL     1      -2.108  -2.816  15.220  0.00  0.00    -0.153 OA
BRANCH  26  29
ATOM     29  N   UNL     1      -0.729  -4.621  14.245  0.00  0.00    -0.204 NA
ATOM     30  H   UNL     1      -0.351  -5.280  14.849  0.00  0.00    +0.144 HD
ATOM     31  H   UNL     1      -1.065  -4.895  13.377  0.00  0.00    +0.144 HD
ENDBRANCH  26  29
ENDBRANCH  23  26
ENDBRANCH  19  20
ENDBRANCH  18  19
ENDBRANCH   1  18
TORSDOF 11
