REMARK  Name = ZINC12974455
REMARK  9 active torsions:
REMARK  status: ('A' for Active; 'I' for Inactive)
REMARK    1  A    between atoms: C_1  and  C_2
REMARK    2  A    between atoms: C_3  and  C_30
REMARK    3  A    between atoms: C_11  and  C_13
REMARK    4  A    between atoms: C_13  and  S_14
REMARK    5  A    between atoms: S_14  and  C_15
REMARK    6  A    between atoms: C_18  and  C_21
REMARK    7  A    between atoms: N_19  and  N_20
REMARK    8  A    between atoms: C_21  and  O_22
REMARK    9  A    between atoms: O_22  and  C_23
REMARK                            x       y       z     vdW  Elec       q    Type
REMARK                         _______ _______ _______ _____ _____    ______ ____
ROOT
ATOM      1  C   UNL     1      -0.747   3.828   1.257  0.00  0.00    +0.209 A 
ATOM      2  N   UNL     1      -0.180   4.437   0.241  0.00  0.00    -0.121 NA
ATOM      3  N   UNL     1      -0.276   5.710   0.388  0.00  0.00    -0.128 NA
ATOM      4  C   UNL     1      -0.904   5.987   1.495  0.00  0.00    +0.189 A 
ATOM      5  N   UNL     1      -1.231   4.798   2.086  0.00  0.00    -0.225 N 
ENDROOT
BRANCH   5   6
ATOM      6  N   UNL     1      -1.901   4.618   3.262  0.00  0.00    -0.295 N 
ATOM      7  H   UNL     1      -1.261   4.580   4.041  0.00  0.00    +0.163 HD
ATOM      8  H   UNL     1      -2.594   5.340   3.398  0.00  0.00    +0.163 HD
ENDBRANCH   5   6
BRANCH   1   9
ATOM      9  S   UNL     1      -0.866   2.087   1.500  0.00  0.00    -0.077 S 
BRANCH   9  10
ATOM     10  C   UNL     1      -0.018   1.503   0.010  0.00  0.00    +0.151 C 
BRANCH  10  21
ATOM     11  C   UNL     1       0.541  -5.121  -0.859  0.00  0.00    +0.045 C 
ATOM     12  C   UNL     1      -0.048  -4.189   0.168  0.00  0.00    -0.026 A 
ATOM     13  C   UNL     1      -0.659  -4.678   1.258  0.00  0.00    -0.008 A 
ATOM     14  S   UNL     1      -1.170  -3.213   2.137  0.00  0.00    -0.073 S 
ATOM     15  C   UNL     1      -0.549  -1.988   1.014  0.00  0.00    +0.116 A 
ATOM     16  C   UNL     1       0.038  -2.751  -0.011  0.00  0.00    +0.075 A 
ATOM     17  C   UNL     1       0.633  -2.002  -1.078  0.00  0.00    +0.260 A 
ATOM     18  O   UNL     1       1.168  -2.573  -2.013  0.00  0.00    -0.267 OA
ATOM     19  N   UNL     1       0.588  -0.657  -1.034  0.00  0.00    -0.310 N 
ATOM     20  H   UNL     1       0.985  -0.145  -1.755  0.00  0.00    +0.170 HD
ATOM     21  C   UNL     1       0.002  -0.004   0.002  0.00  0.00    +0.121 A 
ATOM     22  N   UNL     1      -0.549  -0.658   0.989  0.00  0.00    -0.226 NA
ATOM     23  C   UNL     1      -0.864  -6.119   1.647  0.00  0.00    +0.052 C 
ENDBRANCH  10  21
ENDBRANCH   9  10
ENDBRANCH   1   9
BRANCH   4  24
ATOM     24  C   UNL     1      -1.217   7.363   2.025  0.00  0.00    +0.306 C 
BRANCH  24  25
ATOM     25  O   UNL     1      -2.489   7.786   1.530  0.00  0.00    -0.481 OA
BRANCH  25  26
ATOM     26  C   UNL     1      -2.924   9.015   1.916  0.00  0.00    +0.156 A 
ATOM     27  C   UNL     1      -2.145   9.795   2.758  0.00  0.00    +0.048 A 
ATOM     28  C   UNL     1      -2.587  11.045   3.145  0.00  0.00    +0.004 A 
ATOM     29  C   UNL     1      -3.810  11.516   2.703  0.00  0.00    +0.003 A 
ATOM     30  C   UNL     1      -4.592  10.739   1.868  0.00  0.00    +0.042 A 
ATOM     31  C   UNL     1      -4.152   9.489   1.473  0.00  0.00    +0.165 A 
ATOM     32  F   UNL     1      -4.917   8.729   0.658  0.00  0.00    -0.202 F 
ENDBRANCH  25  26
ENDBRANCH  24  25
ENDBRANCH   4  24
TORSDOF 7
