REMARK  Name = ZINC09304280
REMARK  10 active torsions:
REMARK  status: ('A' for Active; 'I' for Inactive)
REMARK    1  A    between atoms: C_1  and  C_2
REMARK    2  A    between atoms: C_2  and  N_3
REMARK    3  A    between atoms: C_5  and  C_17
REMARK    4  A    between atoms: N_19  and  C_20
REMARK    5  A    between atoms: C_20  and  C_21
REMARK    6  A    between atoms: C_21  and  C_22
REMARK    7  A    between atoms: N_24  and  C_25
REMARK    8  A    between atoms: C_25  and  C_27
REMARK    9  A    between atoms: C_25  and  C_28
REMARK   10  A    between atoms: C_28  and  C_29
REMARK                            x       y       z     vdW  Elec       q    Type
REMARK                         _______ _______ _______ _____ _____    ______ ____
ROOT
ATOM      1  C   UNL     1       4.847  -2.970  -0.058  0.00  0.00    +0.249 C 
ATOM      2  O   UNL     1       5.934  -2.425  -0.066  0.00  0.00    -0.270 OA
ATOM      3  N   UNL     1       4.768  -4.316  -0.063  0.00  0.00    -0.311 N 
ATOM      4  H   UNL     1       3.901  -4.751  -0.056  0.00  0.00    +0.149 HD
ENDROOT
BRANCH   1   7
ATOM      5  N   UNL     1       1.240  -2.065  -0.019  0.00  0.00    -0.346 N 
ATOM      6  C   UNL     1       2.380  -2.768  -0.033  0.00  0.00    +0.103 A 
ATOM      7  C   UNL     1       3.618  -2.162  -0.042  0.00  0.00    +0.100 A 
ATOM      8  C   UNL     1       3.690  -0.692  -0.037  0.00  0.00    +0.202 A 
ATOM      9  O   UNL     1       4.761  -0.109  -0.046  0.00  0.00    -0.286 OA
ATOM     10  C   UNL     1       2.415   0.046  -0.021  0.00  0.00    +0.050 A 
ATOM     11  C   UNL     1       1.214  -0.685  -0.013  0.00  0.00    +0.056 A 
ATOM     12  C   UNL     1       0.002  -0.004   0.002  0.00  0.00    +0.076 A 
ATOM     13  C   UNL     1      -0.017   1.379   0.010  0.00  0.00    +0.168 A 
ATOM     14  C   UNL     1       1.181   2.103   0.002  0.00  0.00    +0.167 A 
ATOM     15  C   UNL     1       2.390   1.442  -0.014  0.00  0.00    +0.063 A 
ATOM     16  O   UNL     1       0.882   3.436   0.014  0.00  0.00    -0.453 OA
ATOM     17  C   UNL     1      -0.490   3.518   0.442  0.00  0.00    +0.466 C 
ATOM     18  O   UNL     1      -1.056   2.262   0.030  0.00  0.00    -0.453 OA
BRANCH   5  20
ATOM     19  C   UNL     1      -0.552  -2.928  -1.442  0.00  0.00    +0.027 C 
ATOM     20  C   UNL     1      -0.033  -2.791  -0.010  0.00  0.00    +0.118 C 
ENDBRANCH   5  20
ENDBRANCH   1   7
BRANCH   3  21
ATOM     21  C   UNL     1       5.992  -5.121  -0.078  0.00  0.00    +0.113 C 
BRANCH  21  22
ATOM     22  C   UNL     1       5.625  -6.606  -0.081  0.00  0.00    +0.114 C 
BRANCH  22  23
ATOM     23  C   UNL     1       6.883  -7.435  -0.097  0.00  0.00    +0.215 C 
ATOM     24  O   UNL     1       7.967  -6.891  -0.105  0.00  0.00    -0.276 OA
ATOM     25  N   UNL     1       6.805  -8.780  -0.101  0.00  0.00    -0.312 N 
ATOM     26  H   UNL     1       5.938  -9.215  -0.095  0.00  0.00    +0.149 HD
BRANCH  25  27
ATOM     27  C   UNL     1       8.028  -9.586  -0.117  0.00  0.00    +0.074 C 
ATOM     28  C   UNL     1       8.509  -9.755  -1.559  0.00  0.00    +0.028 C 
BRANCH  27  29
ATOM     29  C   UNL     1       7.742 -10.961   0.490  0.00  0.00    +0.059 C 
BRANCH  29  30
ATOM     30  C   UNL     1       7.386 -10.803   1.946  0.00  0.00    -0.021 A 
ATOM     31  C   UNL     1       8.224 -10.912   2.989  0.00  0.00    +0.087 A 
ATOM     32  N   UNL     1       7.544 -10.705   4.158  0.00  0.00    -0.360 N 
ATOM     33  H   UNL     1       7.938 -10.733   5.044  0.00  0.00    +0.165 HD
ATOM     34  C   UNL     1       6.218 -10.451   3.889  0.00  0.00    +0.047 A 
ATOM     35  C   UNL     1       6.062 -10.496   2.491  0.00  0.00    +0.003 A 
ATOM     36  C   UNL     1       4.807 -10.267   1.923  0.00  0.00    +0.010 A 
ATOM     37  C   UNL     1       3.737  -9.997   2.728  0.00  0.00    +0.001 A 
ATOM     38  C   UNL     1       3.886  -9.949   4.107  0.00  0.00    +0.002 A 
ATOM     39  C   UNL     1       5.113 -10.179   4.689  0.00  0.00    +0.026 A 
ENDBRANCH  29  30
ENDBRANCH  27  29
ENDBRANCH  25  27
ENDBRANCH  22  23
ENDBRANCH  21  22
ENDBRANCH   3  21
TORSDOF 8
