REMARK  Name = ZINC12495866
REMARK  10 active torsions:
REMARK  status: ('A' for Active; 'I' for Inactive)
REMARK    1  A    between atoms: C_1  and  C_2
REMARK    2  A    between atoms: C_2  and  O_3
REMARK    3  A    between atoms: O_3  and  C_4
REMARK    4  A    between atoms: C_4  and  C_6
REMARK    5  A    between atoms: C_6  and  C_26
REMARK    6  A    between atoms: C_11  and  C_13
REMARK    7  A    between atoms: C_18  and  C_19
REMARK    8  A    between atoms: N_22  and  C_25
REMARK    9  A    between atoms: C_26  and  C_27
REMARK   10  A    between atoms: C_30  and  O_33
REMARK                            x       y       z     vdW  Elec       q    Type
REMARK                         _______ _______ _______ _____ _____    ______ ____
ROOT
ATOM      1  C   UNL     1      -0.747   1.648   3.832  0.00  0.00    +0.048 C 
ATOM      2  C   UNL     1      -0.518   0.562   4.869  0.00  0.00    +0.086 C 
ATOM      3  C   UNL     1      -1.831   0.772   5.718  0.00  0.00    +0.077 C 
ATOM      4  C   UNL     1      -2.862   0.814   4.665  0.00  0.00    -0.026 C 
ATOM      5  C   UNL     1      -1.514   0.034   6.918  0.00  0.00    +0.224 C 
ATOM      6  O   UNL     1      -2.274  -0.603   7.615  0.00  0.00    -0.275 OA
ATOM      7  N   UNL     1      -0.164   0.211   7.098  0.00  0.00    -0.245 N 
ATOM      8  C   UNL     1       0.451   0.736   5.995  0.00  0.00    +0.225 C 
ATOM      9  O   UNL     1       1.553   1.237   5.941  0.00  0.00    -0.275 OA
ATOM     10  C   UNL     1       0.541  -0.126   8.337  0.00  0.00    +0.141 C 
ATOM     11  N   UNL     1      -2.220   1.695   3.638  0.00  0.00    +0.396 N 
ATOM     12  H   UNL     1      -2.456   1.359   2.696  0.00  0.00    -0.083 HD
ATOM     13  H   UNL     1      -2.554   2.659   3.751  0.00  0.00    -0.083 HD
ENDROOT
BRANCH   4  14
ATOM     14  C   UNL     1      -4.138   1.423   5.187  0.00  0.00    -0.058 A 
ATOM     15  C   UNL     1      -4.127   2.146   6.365  0.00  0.00    +0.002 A 
ATOM     16  C   UNL     1      -5.297   2.704   6.844  0.00  0.00    +0.000 A 
ATOM     17  C   UNL     1      -6.478   2.541   6.144  0.00  0.00    +0.000 A 
ATOM     18  C   UNL     1      -6.489   1.818   4.966  0.00  0.00    +0.003 A 
ATOM     19  C   UNL     1      -5.318   1.263   4.485  0.00  0.00    -0.049 A 
ATOM     20  C   UNL     1      -5.328   0.480   3.197  0.00  0.00    +0.044 C 
ENDBRANCH   4  14
BRANCH   1  21
ATOM     21  C   UNL     1      -0.055   1.292   2.542  0.00  0.00    +0.297 C 
ATOM     22  O   UNL     1       0.913   0.569   2.555  0.00  0.00    -0.252 OA
BRANCH  21  23
ATOM     23  O   UNL     1      -0.515   1.776   1.377  0.00  0.00    -0.466 OA
BRANCH  23  25
ATOM     24  C   UNL     1      -0.465   2.035  -1.043  0.00  0.00    +0.048 C 
ATOM     25  C   UNL     1       0.201   1.391   0.174  0.00  0.00    +0.228 C 
ENDBRANCH  23  25
ENDBRANCH  21  23
ENDBRANCH   1  21
BRANCH   1  26
ATOM     26  C   UNL     1      -0.235   2.993   4.352  0.00  0.00    +0.034 C 
BRANCH  26  27
ATOM     27  C   UNL     1      -0.606   4.082   3.380  0.00  0.00    -0.048 A 
ATOM     28  C   UNL     1       0.259   4.417   2.355  0.00  0.00    +0.007 A 
ATOM     29  C   UNL     1      -0.082   5.412   1.458  0.00  0.00    +0.045 A 
ATOM     30  C   UNL     1      -1.288   6.082   1.594  0.00  0.00    +0.117 A 
ATOM     31  C   UNL     1      -2.153   5.748   2.626  0.00  0.00    +0.045 A 
ATOM     32  C   UNL     1      -1.810   4.749   3.517  0.00  0.00    +0.007 A 
BRANCH  30  33
ATOM     33  O   UNL     1      -1.624   7.064   0.716  0.00  0.00    -0.507 OA
ATOM     34  H   UNL     1      -1.331   7.946   0.982  0.00  0.00    +0.292 HD
ENDBRANCH  30  33
ENDBRANCH  26  27
ENDBRANCH   1  26
TORSDOF 7
