REMARK  Name = ZINC42869770
REMARK  7 active torsions:
REMARK  status: ('A' for Active; 'I' for Inactive)
REMARK    1  A    between atoms: C_1  and  C_2
REMARK    2  A    between atoms: C_8  and  C_10
REMARK    3  A    between atoms: C_10  and  N_11
REMARK    4  A    between atoms: N_11  and  S_12
REMARK    5  A    between atoms: S_12  and  C_15
REMARK    6  A    between atoms: C_20  and  N_21
REMARK    7  A    between atoms: N_21  and  N_22
REMARK                            x       y       z     vdW  Elec       q    Type
REMARK                         _______ _______ _______ _____ _____    ______ ____
ROOT
ATOM      1  S   UNL     1       4.534  -0.566   2.312  0.00  0.00    +0.060 S 
ATOM      2  O   UNL     1       5.067  -1.310   3.399  0.00  0.00    -0.153 OA
ATOM      3  O   UNL     1       4.774  -0.918   0.957  0.00  0.00    -0.153 OA
ENDROOT
BRANCH   1   4
ATOM      4  C   UNL     1       5.102   1.090   2.510  0.00  0.00    +0.127 A 
ATOM      5  C   UNL     1       5.689   1.752   1.449  0.00  0.00    +0.030 A 
ATOM      6  C   UNL     1       6.135   3.051   1.603  0.00  0.00    +0.002 A 
ATOM      7  C   UNL     1       5.995   3.694   2.820  0.00  0.00    +0.002 A 
ATOM      8  C   UNL     1       5.409   3.039   3.885  0.00  0.00    +0.026 A 
ATOM      9  C   UNL     1       4.955   1.735   3.732  0.00  0.00    +0.067 A 
BRANCH   9  10
ATOM     10  N   UNL     1       4.357   1.071   4.806  0.00  0.00    -0.281 N 
ATOM     11  H   UNL     1       3.991   0.181   4.683  0.00  0.00    +0.166 HD
BRANCH  10  12
ATOM     12  N   UNL     1       4.286   1.675   6.029  0.00  0.00    -0.256 NA
ATOM     13  H   UNL     1       3.821   2.569   5.964  0.00  0.00    +0.140 HD
ATOM     14  H   UNL     1       3.830   1.078   6.702  0.00  0.00    +0.140 HD
ENDBRANCH  10  12
ENDBRANCH   9  10
ENDBRANCH   1   4
BRANCH   1  15
ATOM     15  N   UNL     1       2.890  -0.547   2.513  0.00  0.00    -0.190 NA
ATOM     16  H   UNL     1       2.488  -1.014   3.262  0.00  0.00    +0.148 HD
BRANCH  15  17
ATOM     17  C   UNL     1       2.044   0.174   1.559  0.00  0.00    +0.109 C 
BRANCH  17  24
ATOM     18  C   UNL     1      -0.174   1.927   0.790  0.00  0.00    +0.008 C 
ATOM     19  C   UNL     1      -0.279   0.405   0.670  0.00  0.00    -0.010 C 
ATOM     20  C   UNL     1      -1.737  -0.021   0.857  0.00  0.00    +0.003 C 
ATOM     21  C   UNL     1      -2.223   0.416   2.241  0.00  0.00    +0.000 C 
ATOM     22  C   UNL     1      -1.356  -0.242   3.317  0.00  0.00    +0.000 C 
ATOM     23  C   UNL     1       0.101   0.184   3.130  0.00  0.00    +0.005 C 
ATOM     24  C   UNL     1       0.587  -0.253   1.746  0.00  0.00    +0.007 C 
ENDBRANCH  17  24
ENDBRANCH  15  17
ENDBRANCH   1  15
TORSDOF 6
