REMARK  Name = ZINC41334112
REMARK  8 active torsions:
REMARK  status: ('A' for Active; 'I' for Inactive)
REMARK    1  A    between atoms: C_1  and  C_2
REMARK    2  A    between atoms: C_2  and  C_3
REMARK    3  A    between atoms: C_2  and  C_4
REMARK    4  A    between atoms: C_4  and  C_5
REMARK    5  A    between atoms: C_5  and  N_6
REMARK    6  A    between atoms: C_10  and  N_24
REMARK    7  A    between atoms: C_11  and  N_13
REMARK    8  A    between atoms: N_13  and  C_14
REMARK                            x       y       z     vdW  Elec       q    Type
REMARK                         _______ _______ _______ _____ _____    ______ ____
ROOT
ATOM      1  N   UNL     1      -2.812  -2.541  -0.345  0.00  0.00    -0.313 N 
ATOM      2  C   UNL     1      -3.058  -3.892  -0.516  0.00  0.00    +0.219 A 
ATOM      3  N   UNL     1      -2.058  -4.692  -0.852  0.00  0.00    -0.197 NA
ATOM      4  C   UNL     1      -2.258  -5.997  -1.026  0.00  0.00    +0.154 A 
ATOM      5  C   UNL     1      -3.538  -6.515  -0.850  0.00  0.00    +0.205 A 
ATOM      6  C   UNL     1      -4.563  -5.643  -0.497  0.00  0.00    +0.160 A 
ATOM      7  N   UNL     1      -4.287  -4.351  -0.335  0.00  0.00    -0.197 NA
ATOM      8  N   UNL     1      -1.205  -6.827  -1.378  0.00  0.00    -0.341 N 
ATOM      9  H   UNL     1      -3.534  -1.944  -0.095  0.00  0.00    +0.149 HD
ATOM     10  H   UNL     1      -0.316  -6.459  -1.499  0.00  0.00    +0.144 HD
ATOM     11  H   UNL     1      -1.358  -7.777  -1.502  0.00  0.00    +0.144 HD
ENDROOT
BRANCH   5  12
ATOM     12  N   UNL     1      -3.801  -7.960  -1.034  0.00  0.00    +0.063 N 
ATOM     13  O   UNL     1      -3.702  -8.717  -0.096  0.00  0.00    -0.126 OA
ATOM     14  O   UNL     1      -4.116  -8.384  -2.121  0.00  0.00    -0.126 OA
ENDBRANCH   5  12
BRANCH   6  15
ATOM     15  N   UNL     1      -5.854  -6.115  -0.311  0.00  0.00    -0.296 N 
ATOM     16  H   UNL     1      -6.030  -7.069  -0.334  0.00  0.00    +0.154 HD
BRANCH  15  17
ATOM     17  C   UNL     1      -6.900  -5.218  -0.090  0.00  0.00    +0.059 A 
ATOM     18  C   UNL     1      -6.820  -3.928  -0.569  0.00  0.00    +0.025 A 
ATOM     19  C   UNL     1      -7.856  -3.023  -0.356  0.00  0.00    +0.003 A 
ATOM     20  C   UNL     1      -8.975  -3.388   0.331  0.00  0.00    +0.010 A 
ATOM     21  C   UNL     1      -9.093  -4.693   0.834  0.00  0.00    +0.002 A 
ATOM     22  C   UNL     1      -8.050  -5.626   0.620  0.00  0.00    +0.092 A 
ATOM     23  N   UNL     1      -8.162  -6.870   1.093  0.00  0.00    -0.253 NA
ATOM     24  C   UNL     1      -9.227  -7.256   1.753  0.00  0.00    +0.111 A 
ATOM     25  C   UNL     1     -10.292  -6.391   1.994  0.00  0.00    +0.020 A 
ATOM     26  C   UNL     1     -10.236  -5.100   1.549  0.00  0.00    +0.011 A 
ENDBRANCH  15  17
ENDBRANCH   6  15
BRANCH   1  27
ATOM     27  C   UNL     1      -1.460  -2.012  -0.540  0.00  0.00    +0.104 C 
BRANCH  27  28
ATOM     28  C   UNL     1      -1.461  -0.503  -0.291  0.00  0.00    +0.022 C 
BRANCH  28  30
ATOM     29  C   UNL     1      -0.073   1.573  -0.368  0.00  0.00    +0.007 C 
ATOM     30  C   UNL     1      -0.048   0.049  -0.495  0.00  0.00    -0.016 C 
ATOM     31  C   UNL     1       0.886  -0.536   0.566  0.00  0.00    +0.007 C 
ENDBRANCH  28  30
ENDBRANCH  27  28
ENDBRANCH   1  27
TORSDOF 6
