REMARK  Name = ZINC21504572
REMARK  6 active torsions:
REMARK  status: ('A' for Active; 'I' for Inactive)
REMARK    1  A    between atoms: C_1  and  S_2
REMARK    2  A    between atoms: S_2  and  N_5
REMARK    3  A    between atoms: N_5  and  C_6
REMARK    4  A    between atoms: C_10  and  N_12
REMARK    5  A    between atoms: N_12  and  C_13
REMARK    6  A    between atoms: C_13  and  C_14
REMARK                            x       y       z     vdW  Elec       q    Type
REMARK                         _______ _______ _______ _____ _____    ______ ____
ROOT
ATOM      1  C   UNL     1      -0.049   3.847   0.022  0.00  0.00    +0.049 A 
ATOM      2  C   UNL     1       1.161   3.163   0.007  0.00  0.00    +0.024 A 
ATOM      3  C   UNL     1       1.175   1.782   0.000  0.00  0.00    +0.004 A 
ATOM      4  C   UNL     1      -0.013   1.076   0.008  0.00  0.00    +0.023 A 
ATOM      5  C   UNL     1      -1.226   1.753   0.017  0.00  0.00    +0.029 A 
ATOM      6  C   UNL     1      -1.244   3.141   0.030  0.00  0.00    +0.047 A 
ENDROOT
BRANCH   1   7
ATOM      7  N   UNL     1      -0.063   5.244   0.029  0.00  0.00    -0.221 N 
ATOM      8  H   UNL     1      -0.735   5.784   0.712  0.00  0.00    +0.173 HD
BRANCH   7  10
ATOM      9  C   UNL     1       0.346   5.681  -2.658  0.00  0.00    +0.218 C 
ATOM     10  S   UNL     1       0.934   6.087  -0.990  0.00  0.00    +0.040 S 
ATOM     11  O   UNL     1       0.677   7.454  -0.700  0.00  0.00    -0.155 OA
ATOM     12  O   UNL     1       2.224   5.531  -0.777  0.00  0.00    -0.155 OA
ENDBRANCH   7  10
ENDBRANCH   1   7
BRANCH   5  13
ATOM     13  N   UNL     1      -2.426   1.039   0.019  0.00  0.00    -0.340 N 
ATOM     14  H   UNL     1      -3.386   1.576   0.027  0.00  0.00    +0.146 HD
BRANCH  13  15
ATOM     15  C   UNL     1      -2.406  -0.426   0.011  0.00  0.00    +0.139 C 
BRANCH  15  16
ATOM     16  C   UNL     1      -3.820  -0.948   0.015  0.00  0.00    +0.006 A 
ATOM     17  C   UNL     1      -4.366  -1.471  -1.141  0.00  0.00    +0.023 A 
ATOM     18  C   UNL     1      -5.664  -1.950  -1.138  0.00  0.00    +0.018 A 
ATOM     19  C   UNL     1      -6.415  -1.906   0.023  0.00  0.00    +0.018 A 
ATOM     20  C   UNL     1      -5.870  -1.383   1.180  0.00  0.00    +0.040 A 
ATOM     21  C   UNL     1      -4.569  -0.908   1.178  0.00  0.00    +0.128 A 
ATOM     22  F   UNL     1      -4.034  -0.401   2.310  0.00  0.00    -0.205 F 
ATOM     23 BR   UNL     1      -6.411  -2.667  -2.720  0.00  0.00    -0.050 Br
ENDBRANCH  15  16
ENDBRANCH  13  15
ENDBRANCH   5  13
TORSDOF 5
