REMARK  Name = ZINC49765451
REMARK  11 active torsions:
REMARK  status: ('A' for Active; 'I' for Inactive)
REMARK    1  A    between atoms: C_1  and  C_2
REMARK    2  A    between atoms: C_2  and  C_3
REMARK    3  A    between atoms: C_2  and  C_4
REMARK    4  A    between atoms: C_4  and  C_6
REMARK    5  A    between atoms: C_4  and  N_25
REMARK    6  A    between atoms: C_6  and  N_8
REMARK    7  A    between atoms: N_15  and  C_18
REMARK    8  A    between atoms: C_18  and  C_19
REMARK    9  A    between atoms: C_26  and  C_28
REMARK   10  A    between atoms: C_31  and  O_34
REMARK   11  A    between atoms: O_34  and  C_35
REMARK                            x       y       z     vdW  Elec       q    Type
REMARK                         _______ _______ _______ _____ _____    ______ ____
ROOT
ATOM      1  N   UNL     1      -2.303   1.269  -1.410  0.00  0.00    -0.155 NA
ATOM      2  C   UNL     1      -2.949   1.712  -2.491  0.00  0.00    +0.163 A 
ATOM      3  N   UNL     1      -3.529   0.986  -3.484  0.00  0.00    -0.339 N 
ATOM      4  C   UNL     1      -4.149   1.631  -4.517  0.00  0.00    +0.024 A 
ATOM      5  C   UNL     1      -4.124   2.973  -4.454  0.00  0.00    -0.004 A 
ATOM      6  S   UNL     1      -3.248   3.303  -2.952  0.00  0.00    -0.059 S 
ATOM      7  C   UNL     1      -4.714   3.926  -5.440  0.00  0.00    -0.033 C 
ATOM      8  N   UNL     1      -5.003   3.188  -6.684  0.00  0.00    +0.386 N 
ATOM      9  C   UNL     1      -5.755   1.968  -6.365  0.00  0.00    -0.072 C 
ATOM     10  C   UNL     1      -4.840   0.943  -5.688  0.00  0.00    +0.035 C 
ATOM     11  H   UNL     1      -3.503   0.017  -3.459  0.00  0.00    +0.167 HD
ATOM     12  H   UNL     1      -4.136   2.940  -7.137  0.00  0.00    -0.081 HD
ENDROOT
BRANCH   1  13
ATOM     13  C   UNL     1      -2.162  -0.034  -1.208  0.00  0.00    +0.259 C 
ATOM     14  O   UNL     1      -2.621  -0.827  -2.009  0.00  0.00    -0.272 OA
BRANCH  13  15
ATOM     15  C   UNL     1      -1.433  -0.534   0.013  0.00  0.00    +0.164 C 
BRANCH  15  16
ATOM     16  N   UNL     1      -1.413  -1.998   0.005  0.00  0.00    -0.300 N 
ATOM     17  C   UNL     1      -1.292  -2.677   1.163  0.00  0.00    +0.245 C 
ATOM     18  O   UNL     1      -1.198  -2.074   2.214  0.00  0.00    -0.270 OA
ATOM     19  H   UNL     1      -1.488  -2.480  -0.834  0.00  0.00    +0.150 HD
BRANCH  17  20
ATOM     20  C   UNL     1      -1.272  -4.153   1.155  0.00  0.00    +0.037 A 
ATOM     21  C   UNL     1      -1.373  -4.848  -0.053  0.00  0.00    +0.016 A 
ATOM     22  C   UNL     1      -1.353  -6.225  -0.057  0.00  0.00    +0.046 A 
ATOM     23  C   UNL     1      -1.233  -6.923   1.139  0.00  0.00    +0.120 A 
ATOM     24  C   UNL     1      -1.132  -6.236   2.343  0.00  0.00    +0.046 A 
ATOM     25  C   UNL     1      -1.145  -4.859   2.354  0.00  0.00    +0.016 A 
BRANCH  23  26
ATOM     26  O   UNL     1      -1.215  -8.280   1.132  0.00  0.00    -0.495 OA
ATOM     27  C   UNL     1      -1.090  -8.934   2.396  0.00  0.00    +0.277 C 
ENDBRANCH  23  26
ENDBRANCH  17  20
ENDBRANCH  15  16
BRANCH  15  29
ATOM     28  C   UNL     1      -0.019   1.526   0.010  0.00  0.00    +0.009 C 
ATOM     29  C   UNL     1       0.002  -0.004   0.002  0.00  0.00    +0.012 C 
ATOM     30  C   UNL     1       0.742  -0.511   1.242  0.00  0.00    +0.009 C 
ENDBRANCH  15  29
ENDBRANCH  13  15
ENDBRANCH   1  13
BRANCH   8  31
ATOM     31  C   UNL     1      -5.800   4.035  -7.582  0.00  0.00    -0.043 C 
BRANCH  31  32
ATOM     32  C   UNL     1      -4.981   5.227  -8.006  0.00  0.00    -0.064 A 
ATOM     33  C   UNL     1      -5.009   6.387  -7.256  0.00  0.00    +0.002 A 
ATOM     34  C   UNL     1      -4.258   7.481  -7.645  0.00  0.00    +0.000 A 
ATOM     35  C   UNL     1      -3.479   7.413  -8.785  0.00  0.00    +0.000 A 
ATOM     36  C   UNL     1      -3.450   6.253  -9.535  0.00  0.00    +0.000 A 
ATOM     37  C   UNL     1      -4.198   5.158  -9.143  0.00  0.00    +0.002 A 
ENDBRANCH  31  32
ENDBRANCH   8  31
TORSDOF 8
