REMARK  Name = ZINC39843507
REMARK  6 active torsions:
REMARK  status: ('A' for Active; 'I' for Inactive)
REMARK    1  A    between atoms: C_7  and  C_10
REMARK    2  A    between atoms: N_11  and  N_12
REMARK    3  A    between atoms: C_17  and  C_20
REMARK    4  A    between atoms: C_20  and  C_21
REMARK    5  A    between atoms: N_23  and  C_24
REMARK    6  A    between atoms: C_27  and  N_30
REMARK                            x       y       z     vdW  Elec       q    Type
REMARK                         _______ _______ _______ _____ _____    ______ ____
ROOT
ATOM      1  N   UNL     1       0.317  -5.371  -0.045  0.00  0.00    -0.127 NA
ATOM      2  C   UNL     1       0.794  -6.614  -0.052  0.00  0.00    +0.183 C 
ATOM      3  N   UNL     1       0.073  -7.772  -0.050  0.00  0.00    -0.263 N 
ATOM      4  C   UNL     1       0.648  -8.967  -0.058  0.00  0.00    +0.233 C 
ATOM      5  O   UNL     1       0.025 -10.008  -0.057  0.00  0.00    -0.274 OA
ATOM      6  C   UNL     1       2.168  -8.901  -0.069  0.00  0.00    +0.149 C 
ATOM      7  S   UNL     1       2.410  -7.079  -0.072  0.00  0.00    -0.075 S 
ATOM      8  H   UNL     1      -0.895  -7.720  -0.042  0.00  0.00    +0.157 HD
ENDROOT
BRANCH   1  10
ATOM      9  C   UNL     1       0.654  -3.134  -0.047  0.00  0.00    +0.141 C 
ATOM     10  N   UNL     1       1.129  -4.369  -0.054  0.00  0.00    -0.155 NA
BRANCH   9  17
ATOM     11  C   UNL     1      -0.067   1.342  -0.036  0.00  0.00    +0.001 A 
ATOM     12  C   UNL     1       1.109   2.094  -0.050  0.00  0.00    +0.002 A 
ATOM     13  C   UNL     1       2.332   1.507  -0.065  0.00  0.00    +0.026 A 
ATOM     14  C   UNL     1       2.436   0.093  -0.067  0.00  0.00    +0.043 A 
ATOM     15  N   UNL     1       3.488  -0.705  -0.080  0.00  0.00    -0.380 N 
ATOM     16  C   UNL     1       3.040  -2.101  -0.076  0.00  0.00    +0.150 C 
ATOM     17  C   UNL     1       1.528  -2.055  -0.057  0.00  0.00    +0.000 C 
ATOM     18  C   UNL     1       1.194  -0.694  -0.052  0.00  0.00    +0.004 A 
ATOM     19  C   UNL     1      -0.042  -0.017  -0.036  0.00  0.00    +0.010 A 
ATOM     20  H   UNL     1       4.413  -0.413  -0.092  0.00  0.00    +0.160 HD
ENDBRANCH   9  17
ENDBRANCH   1  10
BRANCH   6  21
ATOM     21  C   UNL     1       2.742  -9.537  -1.337  0.00  0.00    +0.120 C 
BRANCH  21  22
ATOM     22  C   UNL     1       4.247  -9.560  -1.250  0.00  0.00    +0.219 C 
ATOM     23  O   UNL     1       4.804  -9.112  -0.270  0.00  0.00    -0.275 OA
ATOM     24  N   UNL     1       4.972 -10.078  -2.261  0.00  0.00    -0.285 N 
ATOM     25  H   UNL     1       4.526 -10.496  -3.013  0.00  0.00    +0.155 HD
BRANCH  24  26
ATOM     26  C   UNL     1       6.370 -10.012  -2.224  0.00  0.00    +0.034 A 
ATOM     27  C   UNL     1       7.088  -9.829  -3.398  0.00  0.00    +0.025 A 
ATOM     28  C   UNL     1       8.467  -9.764  -3.358  0.00  0.00    +0.034 A 
ATOM     29  C   UNL     1       9.132  -9.883  -2.152  0.00  0.00    +0.126 A 
ATOM     30  C   UNL     1       8.419 -10.066  -0.981  0.00  0.00    +0.034 A 
ATOM     31  C   UNL     1       7.040 -10.125  -1.013  0.00  0.00    +0.025 A 
BRANCH  29  32
ATOM     32  N   UNL     1      10.611  -9.813  -2.113  0.00  0.00    +0.056 N 
ATOM     33  O   UNL     1      11.235  -9.653  -3.136  0.00  0.00    -0.126 OA
ATOM     34  O   UNL     1      11.193  -9.917  -1.059  0.00  0.00    -0.126 OA
ENDBRANCH  29  32
ENDBRANCH  24  26
ENDBRANCH  21  22
ENDBRANCH   6  21
TORSDOF 6
