REMARK  Name = ZINC08635769
REMARK  9 active torsions:
REMARK  status: ('A' for Active; 'I' for Inactive)
REMARK    1  A    between atoms: C_1  and  N_71
REMARK    2  A    between atoms: C_2  and  C_3
REMARK    3  A    between atoms: C_2  and  N_71
REMARK    4  A    between atoms: C_9  and  C_10
REMARK    5  A    between atoms: C_9  and  N_71
REMARK    6  A    between atoms: N_12  and  C_15
REMARK    7  A    between atoms: C_15  and  C_16
REMARK    8  A    between atoms: C_24  and  C_26
REMARK    9  A    between atoms: C_31  and  C_34
REMARK                            x       y       z     vdW  Elec       q    Type
REMARK                         _______ _______ _______ _____ _____    ______ ____
ROOT
ATOM      1  C   UNL     1      -0.807  -0.532   1.189  0.00  0.00    -0.046 C 
ATOM      2  C   UNL     1      -0.891  -2.059   1.111  0.00  0.00    -0.010 C 
ATOM      3  C   UNL     1      -0.256  -2.654   2.374  0.00  0.00    -0.004 C 
ATOM      4  C   UNL     1       1.202  -2.186   2.455  0.00  0.00    -0.015 C 
ATOM      5  C   UNL     1       1.228  -0.655   2.496  0.00  0.00    -0.078 C 
ATOM      6  C   UNL     1      -0.922  -0.593   3.608  0.00  0.00    -0.065 C 
ATOM      7  C   UNL     1      -1.023  -2.138   3.597  0.00  0.00    +0.062 C 
ATOM      8  N   UNL     1      -0.146  -0.114   2.444  0.00  0.00    +0.383 N 
ATOM      9  H   UNL     1      -0.102   0.911   2.472  0.00  0.00    -0.081 HD
ENDROOT
BRANCH   7  10
ATOM     10  C   UNL     1      -0.398  -2.687   4.854  0.00  0.00    +0.217 C 
ATOM     11  O   UNL     1       0.565  -3.420   4.782  0.00  0.00    -0.275 OA
ATOM     12  N   UNL     1      -0.910  -2.364   6.058  0.00  0.00    -0.301 N 
ATOM     13  C   UNL     1      -2.074  -1.473   6.162  0.00  0.00    +0.108 C 
ATOM     14  C   UNL     1      -1.735  -0.321   7.107  0.00  0.00    +0.032 C 
ATOM     15  C   UNL     1      -1.254  -0.886   8.445  0.00  0.00    +0.078 C 
ATOM     16  C   UNL     1       0.010  -1.720   8.224  0.00  0.00    +0.032 C 
ATOM     17  C   UNL     1      -0.312  -2.892   7.292  0.00  0.00    +0.108 C 
BRANCH  15  18
ATOM     18  C   UNL     1      -0.949   0.248   9.389  0.00  0.00    +0.214 C 
ATOM     19  O   UNL     1       0.169   0.378   9.840  0.00  0.00    -0.276 OA
ATOM     20  N   UNL     1      -1.919   1.119   9.731  0.00  0.00    -0.329 N 
ATOM     21  H   UNL     1      -2.813   1.016   9.370  0.00  0.00    +0.145 HD
ATOM     22  H   UNL     1      -1.722   1.850  10.339  0.00  0.00    +0.145 HD
ENDBRANCH  15  18
ENDBRANCH   7  10
BRANCH   1  23
ATOM     23  C   UNL     1       0.002  -0.004   0.002  0.00  0.00    +0.130 C 
BRANCH  23  26
ATOM     24  C   UNL     1       0.595   3.536   0.015  0.00  0.00    +0.066 A 
ATOM     25  C   UNL     1       1.068   2.268   0.004  0.00  0.00    +0.131 A 
ATOM     26  N   UNL     1      -0.018   1.461   0.010  0.00  0.00    -0.253 N 
ATOM     27  N   UNL     1      -1.071   2.201   0.018  0.00  0.00    -0.066 NA
ATOM     28  N   UNL     1      -0.740   3.444   0.028  0.00  0.00    -0.136 NA
BRANCH  24  29
ATOM     29  C   UNL     1       1.410   4.803   0.015  0.00  0.00    -0.019 C 
BRANCH  29  31
ATOM     30  C   UNL     1       0.267   5.705  -1.920  0.00  0.00    -0.095 C 
ATOM     31  N   UNL     1       1.571   5.266  -1.380  0.00  0.00    +0.384 N 
ATOM     32  H   UNL     1       1.924   4.489  -1.950  0.00  0.00    -0.081 HD
BRANCH  31  33
ATOM     33  C   UNL     1       2.541   6.380  -1.433  0.00  0.00    -0.043 C 
BRANCH  33  34
ATOM     34  C   UNL     1       2.852   6.685  -2.876  0.00  0.00    -0.064 A 
ATOM     35  C   UNL     1       3.890   6.030  -3.513  0.00  0.00    +0.002 A 
ATOM     36  C   UNL     1       4.173   6.306  -4.837  0.00  0.00    +0.000 A 
ATOM     37  C   UNL     1       3.423   7.244  -5.523  0.00  0.00    +0.000 A 
ATOM     38  C   UNL     1       2.388   7.902  -4.885  0.00  0.00    +0.000 A 
ATOM     39  C   UNL     1       2.103   7.623  -3.562  0.00  0.00    +0.002 A 
ENDBRANCH  33  34
ENDBRANCH  31  33
ENDBRANCH  29  31
ENDBRANCH  24  29
ENDBRANCH  23  26
ENDBRANCH   1  23
TORSDOF 8
