REMARK  Name = ZINC19899243
REMARK  5 active torsions:
REMARK  status: ('A' for Active; 'I' for Inactive)
REMARK    1  A    between atoms: C_1  and  O_2
REMARK    2  A    between atoms: O_2  and  C_3
REMARK    3  A    between atoms: C_8  and  N_9
REMARK    4  A    between atoms: N_12  and  C_15
REMARK    5  A    between atoms: C_15  and  C_16
REMARK                            x       y       z     vdW  Elec       q    Type
REMARK                         _______ _______ _______ _____ _____    ______ ____
ROOT
ATOM      1  C   UNL     1      -1.252  -4.016   4.587  0.00  0.00    +0.127 A 
ATOM      2  N   UNL     1      -0.392  -3.417   5.392  0.00  0.00    -0.315 N 
ATOM      3  C   UNL     1       0.194  -4.104   6.371  0.00  0.00    +0.195 A 
ATOM      4  N   UNL     1      -0.086  -5.391   6.537  0.00  0.00    -0.183 NA
ATOM      5  C   UNL     1      -0.951  -5.989   5.726  0.00  0.00    +0.227 A 
ATOM      6  N   UNL     1      -1.538  -5.295   4.753  0.00  0.00    -0.200 NA
ATOM      7  N   UNL     1      -1.246  -7.328   5.894  0.00  0.00    -0.269 N 
ATOM      8  C   UNL     1      -2.298  -7.968   5.092  0.00  0.00    +0.114 C 
ATOM      9  C   UNL     1      -3.145  -8.833   6.035  0.00  0.00    +0.024 C 
ATOM     10  C   UNL     1      -2.263  -9.937   6.618  0.00  0.00    +0.038 C 
ATOM     11  C   UNL     1      -1.006  -9.352   7.205  0.00  0.00    -0.026 A 
ATOM     12  C   UNL     1      -0.543  -8.100   6.828  0.00  0.00    +0.040 A 
ATOM     13  C   UNL     1       0.627  -7.593   7.382  0.00  0.00    +0.024 A 
ATOM     14  C   UNL     1       1.333  -8.337   8.307  0.00  0.00    +0.002 A 
ATOM     15  C   UNL     1       0.874  -9.586   8.681  0.00  0.00    +0.000 A 
ATOM     16  C   UNL     1      -0.296 -10.090   8.138  0.00  0.00    +0.005 A 
ATOM     17  N   UNL     1       1.093  -3.478   7.211  0.00  0.00    -0.329 N 
ATOM     18  H   UNL     1       1.297  -2.538   7.089  0.00  0.00    +0.145 HD
ATOM     19  H   UNL     1       1.520  -3.978   7.924  0.00  0.00    +0.145 HD
ATOM     20  H   UNL     1      -0.187  -2.477   5.270  0.00  0.00    +0.170 HD
ENDROOT
BRANCH   1  21
ATOM     21  C   UNL     1      -1.914  -3.235   3.481  0.00  0.00    +0.158 C 
BRANCH  21  25
ATOM     22  N   UNL     1       0.228  -2.804  -0.103  0.00  0.00    -0.325 N 
ATOM     23  C   UNL     1      -1.171  -3.246  -0.210  0.00  0.00    +0.120 C 
ATOM     24  C   UNL     1      -1.899  -2.874   1.086  0.00  0.00    +0.104 C 
ATOM     25  N   UNL     1      -1.161  -3.421   2.233  0.00  0.00    -0.292 NA
ATOM     26  C   UNL     1       0.180  -2.829   2.334  0.00  0.00    +0.104 C 
ATOM     27  C   UNL     1       0.995  -3.204   1.086  0.00  0.00    +0.120 C 
BRANCH  22  33
ATOM     28  C   UNL     1       0.753  -0.639  -1.046  0.00  0.00    +0.141 A 
ATOM     29  C   UNL     1       1.341   0.124  -2.041  0.00  0.00    +0.047 A 
ATOM     30  C   UNL     1       1.982  -0.495  -3.099  0.00  0.00    +0.004 A 
ATOM     31  C   UNL     1       2.039  -1.875  -3.166  0.00  0.00    +0.002 A 
ATOM     32  C   UNL     1       1.455  -2.643  -2.176  0.00  0.00    +0.027 A 
ATOM     33  C   UNL     1       0.815  -2.029  -1.110  0.00  0.00    +0.072 A 
BRANCH  28  35
ATOM     34  C   UNL     1       0.098   1.397  -0.005  0.00  0.00    +0.277 C 
ATOM     35  O   UNL     1       0.122  -0.031  -0.005  0.00  0.00    -0.493 OA
ENDBRANCH  28  35
ENDBRANCH  22  33
ENDBRANCH  21  25
ENDBRANCH   1  21
TORSDOF 4
