REMARK  Name = ZINC09110360
REMARK  12 active torsions:
REMARK  status: ('A' for Active; 'I' for Inactive)
REMARK    1  A    between atoms: C_1  and  N_2
REMARK    2  A    between atoms: C_13  and  C_14
REMARK    3  A    between atoms: C_13  and  O_26
REMARK    4  A    between atoms: C_17  and  S_20
REMARK    5  A    between atoms: S_20  and  N_23
REMARK    6  A    between atoms: N_23  and  C_24
REMARK    7  A    between atoms: N_23  and  C_25
REMARK    8  A    between atoms: N_31  and  C_32
REMARK    9  A    between atoms: C_32  and  C_33
REMARK   10  A    between atoms: C_33  and  N_64
REMARK   11  A    between atoms: C_34  and  N_64
REMARK   12  A    between atoms: C_35  and  N_64
REMARK                            x       y       z     vdW  Elec       q    Type
REMARK                         _______ _______ _______ _____ _____    ______ ____
ROOT
ATOM      1  C   UNL     1       3.513   1.402   0.118  0.00  0.00    +0.138 C 
ATOM      2  N   UNL     1       2.112   0.980   0.034  0.00  0.00    -0.272 N 
ATOM      3  C   UNL     1       1.048   1.853  -0.196  0.00  0.00    +0.042 A 
ATOM      4  C   UNL     1       1.027   3.233  -0.390  0.00  0.00    +0.024 A 
ATOM      5  C   UNL     1      -0.169   3.886  -0.602  0.00  0.00    +0.002 A 
ATOM      6  C   UNL     1      -1.357   3.178  -0.626  0.00  0.00    +0.000 A 
ATOM      7  C   UNL     1      -1.345   1.807  -0.438  0.00  0.00    +0.008 A 
ATOM      8  C   UNL     1      -0.153   1.152  -0.220  0.00  0.00    +0.011 A 
ATOM      9  C   UNL     1       0.203  -0.291   0.018  0.00  0.00    +0.174 C 
ATOM     10  C   UNL     1       1.703  -0.295   0.169  0.00  0.00    +0.253 C 
ATOM     11  O   UNL     1       2.407  -1.262   0.373  0.00  0.00    -0.272 OA
ATOM     12  C   UNL     1      -0.466  -0.817   1.261  0.00  0.00    +0.083 C 
ATOM     13  C   UNL     1      -0.346  -0.320   2.542  0.00  0.00    +0.134 C 
ATOM     14  C   UNL     1      -1.236  -1.918   0.846  0.00  0.00    +0.250 C 
ATOM     15  O   UNL     1      -1.928  -2.616   1.564  0.00  0.00    -0.282 OA
ATOM     16  C   UNL     1      -1.056  -2.082  -0.623  0.00  0.00    +0.288 C 
ATOM     17  O   UNL     1      -1.584  -2.942  -1.297  0.00  0.00    -0.266 OA
ATOM     18  N   UNL     1      -0.222  -1.136  -1.094  0.00  0.00    -0.275 N 
ENDROOT
BRANCH  13  19
ATOM     19  C   UNL     1      -1.187  -0.863   3.624  0.00  0.00    +0.017 A 
ATOM     20  C   UNL     1      -2.573  -0.952   3.460  0.00  0.00    +0.013 A 
ATOM     21  C   UNL     1      -3.352  -1.468   4.474  0.00  0.00    +0.029 A 
ATOM     22  C   UNL     1      -2.767  -1.885   5.657  0.00  0.00    +0.105 A 
ATOM     23  C   UNL     1      -1.396  -1.794   5.829  0.00  0.00    +0.029 A 
ATOM     24  C   UNL     1      -0.603  -1.287   4.822  0.00  0.00    +0.013 A 
BRANCH  22  25
ATOM     25  S   UNL     1      -3.772  -2.535   6.950  0.00  0.00    +0.060 S 
ATOM     26  O   UNL     1      -4.958  -3.022   6.337  0.00  0.00    -0.153 OA
ATOM     27  O   UNL     1      -2.929  -3.361   7.743  0.00  0.00    -0.153 OA
BRANCH  25  28
ATOM     28  N   UNL     1      -4.222  -1.261   7.908  0.00  0.00    -0.183 NA
ATOM     29  C   UNL     1      -5.454  -0.525   7.615  0.00  0.00    +0.131 C 
ATOM     30  C   UNL     1      -3.388  -0.871   9.047  0.00  0.00    +0.131 C 
ENDBRANCH  25  28
ENDBRANCH  22  25
ENDBRANCH  13  19
BRANCH  13  31
ATOM     31  O   UNL     1       0.540   0.663   2.805  0.00  0.00    -0.506 OA
ATOM     32  H   UNL     1       0.495   0.902   3.776  0.00  0.00    +0.292 HD
ENDBRANCH  13  31
BRANCH  18  33
ATOM     33  C   UNL     1       0.192  -0.981  -2.490  0.00  0.00    +0.091 C 
BRANCH  33  34
ATOM     34  C   UNL     1       1.459  -1.800  -2.741  0.00  0.00    -0.060 C 
BRANCH  34  37
ATOM     35  C   UNL     1       2.291  -0.263  -4.417  0.00  0.00    -0.097 C 
ATOM     36  C   UNL     1       2.941  -2.595  -4.484  0.00  0.00    -0.097 C 
ATOM     37  N   UNL     1       1.851  -1.650  -4.159  0.00  0.00    +0.377 N 
ATOM     38  H   UNL     1       1.040  -1.859  -4.753  0.00  0.00    -0.083 HD
ENDBRANCH  34  37
ENDBRANCH  33  34
ENDBRANCH  18  33
TORSDOF 7
