REMARK  Name = ZINC60677518
REMARK  3 active torsions:
REMARK  status: ('A' for Active; 'I' for Inactive)
REMARK    1  A    between atoms: C_8  and  C_25
REMARK    2  A    between atoms: C_11  and  C_13
REMARK    3  A    between atoms: C_17  and  N_22
REMARK                            x       y       z     vdW  Elec       q    Type
REMARK                         _______ _______ _______ _____ _____    ______ ____
ROOT
ATOM      1  C   UNL     1       1.007   1.567   2.893  0.00  0.00    +0.000 A 
ATOM      2  C   UNL     1       0.420   1.780   1.660  0.00  0.00    +0.000 A 
ATOM      3  C   UNL     1       0.471   0.793   0.698  0.00  0.00    +0.005 A 
ATOM      4  C   UNL     1       1.104  -0.414   0.960  0.00  0.00    -0.027 A 
ATOM      5  C   UNL     1       1.681  -0.633   2.190  0.00  0.00    -0.040 A 
ATOM      6  C   UNL     1       1.635   0.367   3.155  0.00  0.00    +0.004 A 
ATOM      7  C   UNL     1       2.358  -1.927   2.558  0.00  0.00    +0.067 C 
ATOM      8  C   UNL     1       2.754  -2.708   1.306  0.00  0.00    +0.167 C 
ATOM      9  N   UNL     1       1.594  -2.730   0.400  0.00  0.00    -0.281 N 
ATOM     10  C   UNL     1       1.136  -1.445  -0.141  0.00  0.00    +0.144 C 
ATOM     11  C   UNL     1       0.977  -3.885   0.079  0.00  0.00    +0.254 C 
ATOM     12  O   UNL     1       1.292  -4.918   0.638  0.00  0.00    -0.269 OA
ENDROOT
BRANCH  11  13
ATOM     13  C   UNL     1      -0.077  -3.895  -0.946  0.00  0.00    +0.075 A 
ATOM     14  C   UNL     1      -0.911  -4.911  -1.294  0.00  0.00    +0.029 A 
ATOM     15  C   UNL     1      -1.863  -4.721  -2.311  0.00  0.00    -0.008 A 
ATOM     16  C   UNL     1      -2.812  -5.649  -2.812  0.00  0.00    +0.041 A 
ATOM     17  C   UNL     1      -3.667  -5.301  -3.807  0.00  0.00    +0.127 A 
ATOM     18  C   UNL     1      -3.648  -4.032  -4.373  0.00  0.00    +0.034 A 
ATOM     19  C   UNL     1      -2.741  -3.097  -3.916  0.00  0.00    +0.018 A 
ATOM     20  C   UNL     1      -1.867  -3.436  -2.905  0.00  0.00    +0.020 A 
ATOM     21  S   UNL     1      -0.582  -2.575  -2.035  0.00  0.00    -0.084 S 
BRANCH  17  22
ATOM     22  N   UNL     1      -4.642  -6.298  -4.303  0.00  0.00    +0.056 N 
ATOM     23  O   UNL     1      -4.671  -7.407  -3.821  0.00  0.00    -0.126 OA
ATOM     24  O   UNL     1      -5.410  -6.004  -5.189  0.00  0.00    -0.126 OA
ENDBRANCH  17  22
ENDBRANCH  11  13
BRANCH   8  25
ATOM     25  C   UNL     1       3.133  -4.117   1.683  0.00  0.00    +0.231 C 
ATOM     26  O   UNL     1       4.108  -4.637   1.183  0.00  0.00    -0.274 OA
ATOM     27  N   UNL     1       2.388  -4.799   2.575  0.00  0.00    -0.328 N 
ATOM     28  H   UNL     1       1.608  -4.384   2.974  0.00  0.00    +0.145 HD
ATOM     29  H   UNL     1       2.632  -5.706   2.818  0.00  0.00    +0.145 HD
ENDBRANCH   8  25
TORSDOF 3
