REMARK  Name = ZINC08147787
REMARK  8 active torsions:
REMARK  status: ('A' for Active; 'I' for Inactive)
REMARK    1  A    between atoms: C_1  and  C_2
REMARK    2  A    between atoms: C_7  and  C_8
REMARK    3  A    between atoms: C_7  and  N_56
REMARK    4  A    between atoms: N_20  and  C_21
REMARK    5  A    between atoms: C_21  and  C_22
REMARK    6  A    between atoms: C_22  and  N_58
REMARK    7  A    between atoms: C_23  and  N_58
REMARK    8  A    between atoms: C_24  and  N_58
REMARK                            x       y       z     vdW  Elec       q    Type
REMARK                         _______ _______ _______ _____ _____    ______ ____
ROOT
ATOM      1  C   UNL     1       1.093   2.038   0.003  0.00  0.00    +0.116 A 
ATOM      2  N   UNL     1      -0.016   1.320   0.009  0.00  0.00    -0.219 NA
ATOM      3  C   UNL     1       0.002  -0.004   0.002  0.00  0.00    +0.131 A 
ATOM      4  C   UNL     1       1.255  -0.676  -0.013  0.00  0.00    +0.051 A 
ATOM      5  C   UNL     1       1.517  -2.125  -0.022  0.00  0.00    -0.025 A 
ATOM      6  C   UNL     1       2.803  -2.509  -0.037  0.00  0.00    -0.004 A 
ATOM      7  S   UNL     1       3.738  -0.996  -0.038  0.00  0.00    -0.073 S 
ATOM      8  C   UNL     1       2.390   0.154  -0.019  0.00  0.00    +0.114 A 
ATOM      9  N   UNL     1       2.283   1.469  -0.012  0.00  0.00    -0.227 NA
ATOM     10  C   UNL     1       2.950  -4.007  -0.049  0.00  0.00    +0.043 C 
ATOM     11  C   UNL     1       1.560  -4.528  -0.475  0.00  0.00    +0.010 C 
ATOM     12  C   UNL     1       0.640  -3.380  -0.014  0.00  0.00    +0.037 C 
ATOM     13  N   UNL     1      -1.180  -0.722   0.009  0.00  0.00    -0.330 N 
ATOM     14  H   UNL     1      -1.158  -1.692   0.003  0.00  0.00    +0.147 HD
ENDROOT
BRANCH   1  15
ATOM     15  C   UNL     1       0.996   3.542   0.011  0.00  0.00    -0.001 C 
BRANCH  15  22
ATOM     16  C   UNL     1       1.809   5.722   5.232  0.00  0.00    +0.007 C 
ATOM     17  C   UNL     1       2.011   5.294   3.777  0.00  0.00    -0.018 C 
ATOM     18  C   UNL     1       0.953   5.963   2.895  0.00  0.00    -0.016 C 
ATOM     19  C   UNL     1       1.122   5.484   1.452  0.00  0.00    -0.078 C 
ATOM     20  C   UNL     1       2.012   3.358   2.201  0.00  0.00    -0.078 C 
ATOM     21  C   UNL     1       1.870   3.773   3.667  0.00  0.00    -0.016 C 
ATOM     22  N   UNL     1       0.950   4.016   1.410  0.00  0.00    +0.384 N 
ATOM     23  H   UNL     1       0.037   3.776   1.814  0.00  0.00    -0.081 HD
ENDBRANCH  15  22
ENDBRANCH   1  15
BRANCH  13  24
ATOM     24  C   UNL     1      -2.465  -0.019   0.024  0.00  0.00    +0.084 C 
BRANCH  24  25
ATOM     25  C   UNL     1      -3.605  -1.039   0.028  0.00  0.00    -0.061 C 
BRANCH  25  28
ATOM     26  C   UNL     1      -6.006  -1.264  -0.190  0.00  0.00    -0.097 C 
ATOM     27  C   UNL     1      -5.077   0.401   1.302  0.00  0.00    -0.097 C 
ATOM     28  N   UNL     1      -4.893  -0.314   0.022  0.00  0.00    +0.377 N 
ATOM     29  H   UNL     1      -4.888   0.369  -0.744  0.00  0.00    -0.083 HD
ENDBRANCH  25  28
ENDBRANCH  24  25
ENDBRANCH  13  24
TORSDOF 5
