REMARK  Name = ZINC63350845
REMARK  7 active torsions:
REMARK  status: ('A' for Active; 'I' for Inactive)
REMARK    1  A    between atoms: C_1  and  C_2
REMARK    2  A    between atoms: C_6  and  O_8
REMARK    3  A    between atoms: O_8  and  C_9
REMARK    4  A    between atoms: C_9  and  C_10
REMARK    5  A    between atoms: C_25  and  C_27
REMARK    6  A    between atoms: C_27  and  O_29
REMARK    7  A    between atoms: O_29  and  C_30
REMARK                            x       y       z     vdW  Elec       q    Type
REMARK                         _______ _______ _______ _____ _____    ______ ____
ROOT
ATOM      1  C   UNL     1       1.920  -3.384   5.734  0.00  0.00    +0.254 C 
ATOM      2  O   UNL     1       1.716  -4.573   5.602  0.00  0.00    -0.272 OA
ATOM      3  N   UNL     1       1.141  -2.653   6.556  0.00  0.00    -0.283 N 
ATOM      4  C   UNL     1       1.472  -1.243   6.809  0.00  0.00    +0.137 C 
ATOM      5  C   UNL     1       0.282  -0.391   6.355  0.00  0.00    +0.124 C 
ATOM      6  C   UNL     1      -0.963  -1.022   6.967  0.00  0.00    -0.035 C 
ATOM      7  C   UNL     1      -1.563  -0.065   7.665  0.00  0.00    -0.001 A 
ATOM      8  C   UNL     1      -2.829  -0.048   8.415  0.00  0.00    +0.010 A 
ATOM      9  C   UNL     1      -3.143   1.120   9.035  0.00  0.00    +0.001 A 
ATOM     10  C   UNL     1      -2.333   2.259   8.986  0.00  0.00    +0.002 A 
ATOM     11  C   UNL     1      -1.154   2.333   8.317  0.00  0.00    +0.026 A 
ATOM     12  C   UNL     1      -0.720   1.168   7.621  0.00  0.00    +0.043 A 
ATOM     13  N   UNL     1       0.356   0.974   6.880  0.00  0.00    -0.376 N 
ATOM     14  C   UNL     1      -1.294  -2.485   6.802  0.00  0.00    +0.067 C 
ATOM     15  C   UNL     1      -0.032  -3.270   7.184  0.00  0.00    +0.189 C 
ATOM     16  H   UNL     1       1.072   1.607   6.713  0.00  0.00    +0.160 HD
ENDROOT
BRANCH  15  17
ATOM     17  C   UNL     1      -0.166  -4.694   6.709  0.00  0.00    +0.328 C 
ATOM     18  O   UNL     1      -0.452  -4.923   5.558  0.00  0.00    -0.249 OA
BRANCH  17  19
ATOM     19  O   UNL     1       0.033  -5.709   7.565  0.00  0.00    -0.467 OA
ATOM     20  C   UNL     1      -0.110  -7.033   7.046  0.00  0.00    +0.280 C 
ENDBRANCH  17  19
ENDBRANCH  15  17
BRANCH   1  21
ATOM     21  C   UNL     1       3.044  -2.725   4.977  0.00  0.00    +0.324 C 
BRANCH  21  22
ATOM     22  O   UNL     1       3.718  -3.701   4.180  0.00  0.00    -0.482 OA
BRANCH  22  28
ATOM     23  C   UNL     1       6.602  -0.042   2.736  0.00  0.00    +0.044 C 
ATOM     24  C   UNL     1       6.207  -1.496   2.695  0.00  0.00    -0.043 A 
ATOM     25  C   UNL     1       6.914  -2.372   1.895  0.00  0.00    +0.050 A 
ATOM     26  C   UNL     1       6.558  -3.712   1.851  0.00  0.00    +0.143 A 
ATOM     27  C   UNL     1       5.476  -4.168   2.622  0.00  0.00    +0.063 A 
ATOM     28  C   UNL     1       4.764  -3.268   3.431  0.00  0.00    +0.132 A 
ATOM     29  C   UNL     1       5.143  -1.938   3.463  0.00  0.00    +0.050 A 
ATOM     30  C   UNL     1       5.102  -5.587   2.568  0.00  0.00    -0.023 A 
ATOM     31  C   UNL     1       5.819  -6.408   1.771  0.00  0.00    +0.041 A 
ATOM     32  C   UNL     1       6.905  -5.881   1.028  0.00  0.00    +0.341 A 
ATOM     33  O   UNL     1       7.555  -6.631   0.322  0.00  0.00    -0.245 OA
ATOM     34  O   UNL     1       7.239  -4.584   1.076  0.00  0.00    -0.422 OA
ATOM     35  C   UNL     1       5.510  -7.874   1.626  0.00  0.00    +0.042 C 
ATOM     36  C   UNL     1       4.636  -8.357   2.782  0.00  0.00    +0.005 C 
ATOM     37  C   UNL     1       3.437  -7.410   2.910  0.00  0.00    +0.005 C 
ATOM     38  C   UNL     1       3.945  -6.058   3.406  0.00  0.00    +0.036 C 
ENDBRANCH  22  28
ENDBRANCH  21  22
ENDBRANCH   1  21
TORSDOF 5
