REMARK  Name = ZINC39710221
REMARK  10 active torsions:
REMARK  status: ('A' for Active; 'I' for Inactive)
REMARK    1  A    between atoms: C_1  and  C_2
REMARK    2  A    between atoms: C_9  and  C_14
REMARK    3  A    between atoms: C_14  and  C_16
REMARK    4  A    between atoms: C_14  and  N_25
REMARK    5  A    between atoms: N_20  and  C_21
REMARK    6  A    between atoms: C_21  and  C_22
REMARK    7  A    between atoms: C_22  and  O_23
REMARK    8  A    between atoms: O_23  and  C_24
REMARK    9  A    between atoms: N_28  and  C_31
REMARK   10  A    between atoms: C_36  and  C_37
REMARK                            x       y       z     vdW  Elec       q    Type
REMARK                         _______ _______ _______ _____ _____    ______ ____
ROOT
ATOM      1  C   UNL     1       1.319  -4.874   2.934  0.00  0.00    +0.142 C 
ENDROOT
BRANCH   1  10
ATOM      2  C   UNL     1       0.763   1.279  -0.649  0.00  0.00    +0.044 C 
ATOM      3  C   UNL     1       0.751  -0.225  -0.546  0.00  0.00    -0.050 A 
ATOM      4  C   UNL     1       0.992  -0.990  -1.688  0.00  0.00    +0.005 A 
ATOM      5  C   UNL     1       0.998  -2.348  -1.672  0.00  0.00    +0.024 A 
ATOM      6  C   UNL     1       0.754  -3.050  -0.477  0.00  0.00    +0.040 A 
ATOM      7  N   UNL     1       0.762  -4.383  -0.474  0.00  0.00    -0.284 N 
ATOM      8  C   UNL     1       0.541  -5.103   0.613  0.00  0.00    +0.226 C 
ATOM      9  O   UNL     1       0.561  -6.318   0.554  0.00  0.00    -0.275 OA
ATOM     10  C   UNL     1       0.263  -4.411   1.928  0.00  0.00    +0.123 C 
ATOM     11  C   UNL     1       0.254  -2.895   1.930  0.00  0.00    -0.003 C 
ATOM     12  C   UNL     1       0.496  -2.268   0.744  0.00  0.00    -0.007 A 
ATOM     13  C   UNL     1       0.510  -0.807   0.657  0.00  0.00    +0.012 A 
ATOM     14  H   UNL     1       0.938  -4.846  -1.308  0.00  0.00    +0.155 HD
ENDBRANCH   1  10
BRANCH   1  15
ATOM     15  N   UNL     1       1.224  -6.330   3.110  0.00  0.00    -0.289 NA
ATOM     16  C   UNL     1      -0.066  -6.705   3.703  0.00  0.00    +0.104 C 
ATOM     17  C   UNL     1      -0.201  -8.231   3.702  0.00  0.00    +0.120 C 
ATOM     18  N   UNL     1       0.980  -8.805   4.366  0.00  0.00    -0.327 N 
ATOM     19  C   UNL     1       2.311  -8.370   3.916  0.00  0.00    +0.120 C 
ATOM     20  C   UNL     1       2.346  -6.838   3.909  0.00  0.00    +0.104 C 
BRANCH  18  21
ATOM     21  C   UNL     1       0.840  -9.737   5.397  0.00  0.00    +0.034 A 
ATOM     22  C   UNL     1       0.795 -11.094   5.107  0.00  0.00    +0.043 A 
ATOM     23  C   UNL     1       0.657 -12.014   6.130  0.00  0.00    +0.043 A 
ATOM     24  C   UNL     1       0.564 -11.582   7.441  0.00  0.00    +0.020 A 
ATOM     25  C   UNL     1       0.609 -10.232   7.733  0.00  0.00    +0.006 A 
ATOM     26  C   UNL     1       0.752  -9.308   6.715  0.00  0.00    -0.029 A 
ATOM     27  C   UNL     1       0.807  -7.836   7.035  0.00  0.00    +0.045 C 
ATOM     28 CL   UNL     1       0.601 -13.711   5.768  0.00  0.00    -0.083 Cl
ENDBRANCH  18  21
ENDBRANCH   1  15
BRANCH   1  29
ATOM     29  C   UNL     1       2.691  -4.519   2.422  0.00  0.00    +0.170 A 
ATOM     30  N   UNL     1       3.346  -5.119   1.457  0.00  0.00    -0.112 NA
ATOM     31  N   UNL     1       4.479  -4.523   1.316  0.00  0.00    -0.023 NA
ATOM     32  N   UNL     1       4.565  -3.559   2.165  0.00  0.00    -0.044 NA
ATOM     33  N   UNL     1       3.480  -3.521   2.862  0.00  0.00    -0.225 N 
BRANCH  33  34
ATOM     34  C   UNL     1       3.166  -2.572   3.933  0.00  0.00    +0.175 C 
BRANCH  34  35
ATOM     35  C   UNL     1       3.649  -3.135   5.271  0.00  0.00    +0.183 C 
BRANCH  35  36
ATOM     36  O   UNL     1       3.343  -2.209   6.315  0.00  0.00    -0.381 OA
ATOM     37  C   UNL     1       3.755  -2.641   7.614  0.00  0.00    +0.194 C 
ENDBRANCH  35  36
ENDBRANCH  34  35
ENDBRANCH  33  34
ENDBRANCH   1  29
TORSDOF 7
