REMARK  Name = ZINC38596210
REMARK  9 active torsions:
REMARK  status: ('A' for Active; 'I' for Inactive)
REMARK    1  A    between atoms: C_1  and  C_2
REMARK    2  A    between atoms: C_2  and  C_4
REMARK    3  A    between atoms: C_2  and  N_24
REMARK    4  A    between atoms: C_4  and  C_6
REMARK    5  A    between atoms: C_4  and  N_11
REMARK    6  A    between atoms: N_14  and  C_17
REMARK    7  A    between atoms: C_17  and  C_18
REMARK    8  A    between atoms: N_24  and  S_25
REMARK    9  A    between atoms: S_25  and  C_28
REMARK                            x       y       z     vdW  Elec       q    Type
REMARK                         _______ _______ _______ _____ _____    ______ ____
ROOT
ATOM      1  C   UNL     1      -1.203  -0.668  -0.126  0.00  0.00    +0.112 C 
ENDROOT
BRANCH   1   2
ATOM      2  N   UNL     1      -2.027   0.061  -1.099  0.00  0.00    -0.297 NA
ATOM      3  C   UNL     1      -1.225   0.481  -2.257  0.00  0.00    +0.066 C 
ATOM      4  C   UNL     1      -2.104   1.287  -3.217  0.00  0.00    -0.063 C 
ATOM      5  N   UNL     1      -3.235   0.460  -3.657  0.00  0.00    +0.384 N 
ATOM      6  C   UNL     1      -4.040   0.068  -2.492  0.00  0.00    -0.063 C 
ATOM      7  C   UNL     1      -3.177  -0.748  -1.527  0.00  0.00    +0.066 C 
ATOM      8  H   UNL     1      -2.887  -0.367  -4.118  0.00  0.00    -0.081 HD
BRANCH   5   9
ATOM      9  C   UNL     1      -4.068   1.227  -4.592  0.00  0.00    -0.043 C 
BRANCH   9  10
ATOM     10  C   UNL     1      -5.158   0.341  -5.137  0.00  0.00    -0.064 A 
ATOM     11  C   UNL     1      -4.940  -0.393  -6.288  0.00  0.00    +0.002 A 
ATOM     12  C   UNL     1      -5.940  -1.206  -6.789  0.00  0.00    +0.000 A 
ATOM     13  C   UNL     1      -7.157  -1.285  -6.139  0.00  0.00    +0.000 A 
ATOM     14  C   UNL     1      -7.375  -0.552  -4.987  0.00  0.00    +0.000 A 
ATOM     15  C   UNL     1      -6.374   0.258  -4.484  0.00  0.00    +0.002 A 
ENDBRANCH   9  10
ENDBRANCH   5   9
ENDBRANCH   1   2
BRANCH   1  16
ATOM     16  C   UNL     1      -2.035  -1.003   1.085  0.00  0.00    +0.008 A 
ATOM     17  C   UNL     1      -2.046  -2.138   1.826  0.00  0.00    +0.013 A 
ATOM     18  C   UNL     1      -2.902  -2.224   2.908  0.00  0.00    +0.008 A 
ATOM     19  C   UNL     1      -3.705  -1.171   3.196  0.00  0.00    +0.045 A 
ATOM     20  S   UNL     1      -3.256  -0.004   1.921  0.00  0.00    -0.100 S 
ENDBRANCH   1  16
BRANCH   1  22
ATOM     21  C   UNL     1      -0.532   1.546   0.816  0.00  0.00    +0.027 C 
ATOM     22  C   UNL     1      -0.018   0.203   0.294  0.00  0.00    +0.095 C 
BRANCH  22  23
ATOM     23  N   UNL     1       0.736  -0.474   1.352  0.00  0.00    -0.185 NA
ATOM     24  H   UNL     1       0.327  -0.628   2.217  0.00  0.00    +0.148 HD
BRANCH  23  25
ATOM     25  S   UNL     1       2.288  -0.978   1.069  0.00  0.00    +0.059 S 
ATOM     26  O   UNL     1       2.757  -1.551   2.283  0.00  0.00    -0.153 OA
ATOM     27  O   UNL     1       2.265  -1.700  -0.155  0.00  0.00    -0.153 OA
BRANCH  25  28
ATOM     28  C   UNL     1       3.260   0.464   0.785  0.00  0.00    +0.113 A 
ATOM     29  C   UNL     1       3.847   0.665  -0.427  0.00  0.00    +0.029 A 
ATOM     30  C   UNL     1       4.619   1.799  -0.671  0.00  0.00    +0.003 A 
ATOM     31  C   UNL     1       4.809   2.738   0.296  0.00  0.00    +0.008 A 
ATOM     32  C   UNL     1       4.220   2.565   1.560  0.00  0.00    -0.016 A 
ATOM     33  C   UNL     1       3.429   1.414   1.806  0.00  0.00    +0.008 A 
ATOM     34  C   UNL     1       2.835   1.244   3.068  0.00  0.00    +0.010 A 
ATOM     35  C   UNL     1       3.021   2.185   4.032  0.00  0.00    +0.001 A 
ATOM     36  C   UNL     1       3.793   3.320   3.788  0.00  0.00    +0.001 A 
ATOM     37  C   UNL     1       4.394   3.512   2.583  0.00  0.00    +0.008 A 
ENDBRANCH  25  28
ENDBRANCH  23  25
ENDBRANCH  22  23
ENDBRANCH   1  22
TORSDOF 8
