REMARK  Name = ZINC14652690
REMARK  8 active torsions:
REMARK  status: ('A' for Active; 'I' for Inactive)
REMARK    1  A    between atoms: C_1  and  C_2
REMARK    2  A    between atoms: C_2  and  C_3
REMARK    3  A    between atoms: C_3  and  O_4
REMARK    4  A    between atoms: O_4  and  C_5
REMARK    5  A    between atoms: C_10  and  C_11
REMARK    6  A    between atoms: N_13  and  N_14
REMARK    7  A    between atoms: C_15  and  C_17
REMARK    8  A    between atoms: C_20  and  N_23
REMARK                            x       y       z     vdW  Elec       q    Type
REMARK                         _______ _______ _______ _____ _____    ______ ____
ROOT
ATOM      1  C   UNL     1       2.369   1.025  -0.015  0.00  0.00    +0.264 C 
ATOM      2  O   UNL     1       2.385  -0.191  -0.022  0.00  0.00    -0.269 OA
ATOM      3  N   UNL     1       1.193   1.683  -0.000  0.00  0.00    -0.230 N 
ATOM      4  H   UNL     1       1.179   2.653   0.005  0.00  0.00    +0.173 HD
ENDROOT
BRANCH   1  10
ATOM      5  C   UNL     1       4.861   1.100  -0.033  0.00  0.00    +0.133 A 
ATOM      6  C   UNL     1       6.047   1.819  -0.045  0.00  0.00    +0.047 A 
ATOM      7  C   UNL     1       6.019   3.200  -0.037  0.00  0.00    +0.019 A 
ATOM      8  C   UNL     1       4.810   3.876  -0.023  0.00  0.00    +0.019 A 
ATOM      9  C   UNL     1       3.622   3.177  -0.015  0.00  0.00    +0.032 A 
ATOM     10  C   UNL     1       3.636   1.780  -0.023  0.00  0.00    +0.081 A 
ATOM     11 BR   UNL     1       4.789   5.767  -0.012  0.00  0.00    -0.050 Br
BRANCH   5  12
ATOM     12  O   UNL     1       4.888  -0.257  -0.034  0.00  0.00    -0.491 OA
BRANCH  12  13
ATOM     13  C   UNL     1       6.173  -0.881  -0.044  0.00  0.00    +0.229 C 
BRANCH  13  15
ATOM     14  C   UNL     1       7.378  -3.069  -0.055  0.00  0.00    +0.007 C 
ATOM     15  C   UNL     1       6.002  -2.401  -0.045  0.00  0.00    +0.038 C 
ENDBRANCH  13  15
ENDBRANCH  12  13
ENDBRANCH   5  12
ENDBRANCH   1  10
BRANCH   3  16
ATOM     16  N   UNL     1      -0.011   0.966   0.007  0.00  0.00    -0.230 N 
ATOM     17  C   UNL     1      -1.187   1.624   0.017  0.00  0.00    +0.260 C 
ATOM     18  O   UNL     1      -1.204   2.839   0.023  0.00  0.00    -0.269 OA
ATOM     19  H   UNL     1       0.002  -0.004   0.002  0.00  0.00    +0.173 HD
BRANCH  17  20
ATOM     20  C   UNL     1      -2.458   0.867   0.018  0.00  0.00    +0.038 A 
ATOM     21  C   UNL     1      -2.442  -0.528   0.005  0.00  0.00    +0.015 A 
ATOM     22  C   UNL     1      -3.631  -1.228   0.011  0.00  0.00    +0.033 A 
ATOM     23  C   UNL     1      -4.837  -0.550   0.021  0.00  0.00    +0.126 A 
ATOM     24  C   UNL     1      -4.859   0.834   0.029  0.00  0.00    +0.033 A 
ATOM     25  C   UNL     1      -3.677   1.546   0.028  0.00  0.00    +0.015 A 
BRANCH  23  26
ATOM     26  N   UNL     1      -6.108  -1.307   0.022  0.00  0.00    +0.056 N 
ATOM     27  O   UNL     1      -7.171  -0.713   0.031  0.00  0.00    -0.126 OA
ATOM     28  O   UNL     1      -6.092  -2.525   0.015  0.00  0.00    -0.126 OA
ENDBRANCH  23  26
ENDBRANCH  17  20
ENDBRANCH   3  16
TORSDOF 7
