REMARK  Name = ZINC20725081
REMARK  9 active torsions:
REMARK  status: ('A' for Active; 'I' for Inactive)
REMARK    1  A    between atoms: C_1  and  C_2
REMARK    2  A    between atoms: C_2  and  C_3
REMARK    3  A    between atoms: C_2  and  C_4
REMARK    4  A    between atoms: C_16  and  C_19
REMARK    5  A    between atoms: N_21  and  C_22
REMARK    6  A    between atoms: C_24  and  C_30
REMARK    7  A    between atoms: C_24  and  C_31
REMARK    8  A    between atoms: C_26  and  C_28
REMARK    9  A    between atoms: C_26  and  C_29
REMARK                            x       y       z     vdW  Elec       q    Type
REMARK                         _______ _______ _______ _____ _____    ______ ____
ROOT
ATOM      1  C   UNL     1      10.875   2.096   1.864  0.00  0.00    +0.158 A 
ATOM      2  N   UNL     1      11.999   2.329   1.232  0.00  0.00    -0.132 NA
ATOM      3  N   UNL     1      11.824   2.227  -0.039  0.00  0.00    -0.128 NA
ATOM      4  C   UNL     1      10.559   1.919  -0.281  0.00  0.00    +0.178 A 
ATOM      5  N   UNL     1       9.931   1.831   0.936  0.00  0.00    -0.195 N 
ATOM      6  N   UNL     1       8.571   1.521   1.001  0.00  0.00    -0.148 NA
ATOM      7  C   UNL     1       7.885   1.301  -0.097  0.00  0.00    +0.142 A 
ATOM      8  C   UNL     1       8.500   1.385  -1.361  0.00  0.00    +0.049 A 
ATOM      9  C   UNL     1       9.821   1.690  -1.458  0.00  0.00    +0.053 A 
ATOM     10  N   UNL     1       6.532   0.988  -0.010  0.00  0.00    -0.314 N 
ATOM     11  C   UNL     1       6.089   0.952   1.390  0.00  0.00    +0.107 C 
ATOM     12  C   UNL     1       4.640   0.464   1.455  0.00  0.00    +0.031 C 
ATOM     13  C   UNL     1       3.751   1.410   0.643  0.00  0.00    +0.078 C 
ATOM     14  C   UNL     1       4.263   1.469  -0.799  0.00  0.00    +0.031 C 
ATOM     15  C   UNL     1       5.723   1.926  -0.798  0.00  0.00    +0.107 C 
ENDROOT
BRANCH  13  16
ATOM     16  C   UNL     1       2.333   0.902   0.654  0.00  0.00    +0.216 C 
ATOM     17  O   UNL     1       2.058  -0.116   1.254  0.00  0.00    -0.276 OA
ATOM     18  N   UNL     1       1.369   1.578  -0.003  0.00  0.00    -0.312 N 
ATOM     19  H   UNL     1       1.619   2.501  -0.546  0.00  0.00    +0.149 HD
BRANCH  18  20
ATOM     20  C   UNL     1      -0.013   1.083   0.008  0.00  0.00    +0.070 C 
ATOM     21  C   UNL     1      -0.723   1.600   1.258  0.00  0.00    +0.009 C 
ATOM     22  C   UNL     1      -2.171   1.116   1.285  0.00  0.00    -0.072 C 
ATOM     23  N   UNL     1      -2.868   1.351   0.038  0.00  0.00    +0.386 N 
ATOM     24  C   UNL     1      -2.196   1.133  -1.226  0.00  0.00    -0.072 C 
ATOM     25  C   UNL     1      -0.747   1.613  -1.223  0.00  0.00    +0.009 C 
ATOM     26  C   UNL     1      -2.948   1.931  -2.315  0.00  0.00    -0.010 C 
ATOM     27  C   UNL     1      -2.245  -0.344  -1.632  0.00  0.00    -0.010 C 
ATOM     28  C   UNL     1      -2.902   1.895   2.401  0.00  0.00    -0.010 C 
ATOM     29  C   UNL     1      -2.208  -0.368   1.669  0.00  0.00    -0.010 C 
ATOM     30  H   UNL     1      -3.751   0.698  -0.018  0.00  0.00    -0.084 HD
ATOM     31  H   UNL     1      -3.186   2.403  -0.011  0.00  0.00    -0.084 HD
ENDBRANCH  18  20
ENDBRANCH  13  16
BRANCH   1  33
ATOM     32  C   UNL     1      11.584   1.081   4.012  0.00  0.00    +0.015 C 
ATOM     33  C   UNL     1      10.672   2.120   3.357  0.00  0.00    +0.053 C 
ATOM     34  C   UNL     1      11.015   3.511   3.896  0.00  0.00    +0.015 C 
ENDBRANCH   1  33
TORSDOF 3
