REMARK  Name = ZINC39532536
REMARK  13 active torsions:
REMARK  status: ('A' for Active; 'I' for Inactive)
REMARK    1  A    between atoms: C_1  and  C_2
REMARK    2  A    between atoms: C_2  and  C_3
REMARK    3  A    between atoms: C_6  and  C_9
REMARK    4  A    between atoms: C_9  and  C_11
REMARK    5  A    between atoms: C_9  and  N_19
REMARK    6  A    between atoms: C_11  and  N_12
REMARK    7  A    between atoms: N_12  and  S_13
REMARK    8  A    between atoms: S_13  and  C_16
REMARK    9  A    between atoms: C_16  and  C_17
REMARK   10  A    between atoms: C_16  and  C_18
REMARK   11  A    between atoms: C_23  and  S_26
REMARK   12  A    between atoms: S_26  and  O_29
REMARK   13  A    between atoms: O_29  and  C_30
REMARK                            x       y       z     vdW  Elec       q    Type
REMARK                         _______ _______ _______ _____ _____    ______ ____
ROOT
ATOM      1  C   UNL     1       2.707  -1.868  -4.752  0.00  0.00    +0.102 C 
ENDROOT
BRANCH   1   2
ATOM      2  N   UNL     1       3.940  -1.094  -4.950  0.00  0.00    -0.296 NA
ATOM      3  C   UNL     1       4.883  -1.314  -3.844  0.00  0.00    +0.066 C 
ATOM      4  C   UNL     1       6.174  -0.539  -4.117  0.00  0.00    -0.064 C 
ATOM      5  N   UNL     1       5.869   0.892  -4.247  0.00  0.00    +0.398 N 
ATOM      6  C   UNL     1       4.945   1.097  -5.370  0.00  0.00    +0.130 C 
ATOM      7  C   UNL     1       3.644   0.337  -5.108  0.00  0.00    +0.095 C 
ATOM      8  H   UNL     1       5.440   1.222  -3.395  0.00  0.00    -0.083 HD
ATOM      9  H   UNL     1       6.722   1.403  -4.414  0.00  0.00    -0.083 HD
BRANCH   6  10
ATOM     10  S   UNL     1       4.587   2.868  -5.542  0.00  0.00    +0.109 S 
ATOM     11  O   UNL     1       3.841   3.103  -6.728  0.00  0.00    -0.138 OA
ATOM     12  O   UNL     1       4.157   3.402  -4.297  0.00  0.00    -0.138 OA
BRANCH  10  13
ATOM     13  O   UNL     1       5.939   3.518  -5.797  0.00  0.00    -0.347 OA
BRANCH  13  14
ATOM     14  C   UNL     1       6.418   3.320  -7.054  0.00  0.00    +0.156 A 
ATOM     15  C   UNL     1       7.210   2.215  -7.330  0.00  0.00    +0.048 A 
ATOM     16  C   UNL     1       7.695   2.016  -8.608  0.00  0.00    +0.004 A 
ATOM     17  C   UNL     1       7.394   2.918  -9.611  0.00  0.00    +0.000 A 
ATOM     18  C   UNL     1       6.606   4.021  -9.338  0.00  0.00    +0.004 A 
ATOM     19  C   UNL     1       6.112   4.221  -8.063  0.00  0.00    +0.048 A 
ENDBRANCH  13  14
ENDBRANCH  10  13
ENDBRANCH   6  10
ENDBRANCH   1   2
BRANCH   1  23
ATOM     20  C   UNL     1       0.903  -0.746  -1.046  0.00  0.00    -0.048 A 
ATOM     21  C   UNL     1       2.073  -1.483  -1.050  0.00  0.00    +0.004 A 
ATOM     22  C   UNL     1       2.656  -1.847  -2.250  0.00  0.00    +0.005 A 
ATOM     23  C   UNL     1       2.070  -1.473  -3.445  0.00  0.00    -0.029 A 
ATOM     24  C   UNL     1       0.900  -0.737  -3.440  0.00  0.00    +0.005 A 
ATOM     25  C   UNL     1       0.314  -0.378  -2.241  0.00  0.00    +0.004 A 
BRANCH  20  27
ATOM     26  C   UNL     1      -0.712  -1.440   0.703  0.00  0.00    +0.009 C 
ATOM     27  C   UNL     1       0.267  -0.350   0.262  0.00  0.00    +0.032 C 
ENDBRANCH  20  27
ENDBRANCH   1  23
BRANCH   1  28
ATOM     28  C   UNL     1       3.040  -3.361  -4.727  0.00  0.00    +0.129 C 
BRANCH  28  29
ATOM     29  N   UNL     1       3.766  -3.720  -5.947  0.00  0.00    -0.192 NA
ATOM     30  H   UNL     1       3.772  -3.114  -6.704  0.00  0.00    +0.148 HD
BRANCH  29  31
ATOM     31  S   UNL     1       4.575  -5.162  -6.035  0.00  0.00    +0.032 S 
ATOM     32  O   UNL     1       5.171  -5.166  -7.326  0.00  0.00    -0.158 OA
ATOM     33  O   UNL     1       5.381  -5.198  -4.866  0.00  0.00    -0.158 OA
BRANCH  31  34
ATOM     34  C   UNL     1       3.281  -6.430  -5.941  0.00  0.00    +0.142 C 
ATOM     35  C   UNL     1       2.309  -6.255  -7.110  0.00  0.00    +0.033 C 
ATOM     36  C   UNL     1       3.921  -7.818  -6.014  0.00  0.00    +0.033 C 
ENDBRANCH  31  34
ENDBRANCH  29  31
ENDBRANCH  28  29
ENDBRANCH   1  28
TORSDOF 10
