REMARK  Name = ZINC39198485
REMARK  7 active torsions:
REMARK  status: ('A' for Active; 'I' for Inactive)
REMARK    1  A    between atoms: C_1  and  C_2
REMARK    2  A    between atoms: C_2  and  C_4
REMARK    3  A    between atoms: C_2  and  N_10
REMARK    4  A    between atoms: C_11  and  C_13
REMARK    5  A    between atoms: N_16  and  C_19
REMARK    6  A    between atoms: C_19  and  C_20
REMARK    7  A    between atoms: C_21  and  C_29
REMARK                            x       y       z     vdW  Elec       q    Type
REMARK                         _______ _______ _______ _____ _____    ______ ____
ROOT
ATOM      1  C   UNL     1      -0.327   0.315   3.757  0.00  0.00    +0.071 C 
ATOM      2  C   UNL     1       1.022   0.982   4.043  0.00  0.00    -0.006 C 
ATOM      3  C   UNL     1       1.815   0.116   5.024  0.00  0.00    -0.078 C 
ATOM      4  N   UNL     1       1.063  -0.026   6.276  0.00  0.00    +0.383 N 
ATOM      5  C   UNL     1      -0.200  -0.729   6.021  0.00  0.00    -0.078 C 
ATOM      6  C   UNL     1      -1.071   0.104   5.079  0.00  0.00    -0.006 C 
ATOM      7  H   UNL     1       0.867   0.888   6.655  0.00  0.00    -0.081 HD
ENDROOT
BRANCH   1   9
ATOM      8  N   UNL     1      -0.684   1.524   1.629  0.00  0.00    -0.309 N 
ATOM      9  C   UNL     1      -1.145   1.201   2.853  0.00  0.00    +0.216 C 
ATOM     10  O   UNL     1      -2.219   1.623   3.228  0.00  0.00    -0.276 OA
ATOM     11  H   UNL     1       0.174   1.187   1.329  0.00  0.00    +0.149 HD
BRANCH   8  13
ATOM     12  C   UNL     1      -1.199   3.852   1.083  0.00  0.00    +0.033 C 
ATOM     13  C   UNL     1      -1.480   2.385   0.750  0.00  0.00    +0.100 C 
BRANCH  13  14
ATOM     14  C   UNL     1      -1.111   2.116  -0.686  0.00  0.00    -0.027 A 
ATOM     15  C   UNL     1       0.210   1.899  -1.031  0.00  0.00    +0.005 A 
ATOM     16  C   UNL     1       0.549   1.652  -2.348  0.00  0.00    +0.000 A 
ATOM     17  C   UNL     1      -0.434   1.621  -3.320  0.00  0.00    +0.000 A 
ATOM     18  C   UNL     1      -1.755   1.837  -2.975  0.00  0.00    +0.000 A 
ATOM     19  C   UNL     1      -2.094   2.080  -1.657  0.00  0.00    +0.005 A 
ENDBRANCH  13  14
ENDBRANCH   8  13
ENDBRANCH   1   9
BRANCH   4  20
ATOM     20  C   UNL     1       1.862  -0.793   7.241  0.00  0.00    -0.022 C 
BRANCH  20  21
ATOM     21  C   UNL     1       1.144  -0.835   8.566  0.00  0.00    +0.035 A 
ATOM     22  C   UNL     1       1.171   0.125   9.532  0.00  0.00    +0.091 A 
ATOM     23  N   UNL     1       0.406  -0.286  10.556  0.00  0.00    -0.228 NA
ATOM     24  C   UNL     1      -0.102  -1.475  10.268  0.00  0.00    +0.138 A 
ATOM     25  N   UNL     1       0.340  -1.841   9.022  0.00  0.00    -0.305 N 
ATOM     26  C   UNL     1      -0.043  -3.033   8.476  0.00  0.00    +0.093 A 
ATOM     27  C   UNL     1      -0.863  -3.866   9.150  0.00  0.00    +0.018 A 
ATOM     28  C   UNL     1      -1.336  -3.517  10.426  0.00  0.00    +0.005 A 
ATOM     29  C   UNL     1      -0.955  -2.338  10.986  0.00  0.00    +0.047 A 
BRANCH  22  30
ATOM     30  C   UNL     1       1.917   1.406   9.463  0.00  0.00    +0.002 A 
ATOM     31  C   UNL     1       1.313   2.590   9.884  0.00  0.00    +0.011 A 
ATOM     32  C   UNL     1       2.012   3.778   9.820  0.00  0.00    +0.020 A 
ATOM     33  C   UNL     1       3.309   3.796   9.337  0.00  0.00    +0.041 A 
ATOM     34  C   UNL     1       3.912   2.623   8.917  0.00  0.00    +0.020 A 
ATOM     35  C   UNL     1       3.225   1.429   8.984  0.00  0.00    +0.011 A 
ATOM     36 CL   UNL     1       4.182   5.295   9.257  0.00  0.00    -0.084 Cl
ENDBRANCH  22  30
ENDBRANCH  20  21
ENDBRANCH   4  20
TORSDOF 6
