REMARK  Name = ZINC63064009
REMARK  3 active torsions:
REMARK  status: ('A' for Active; 'I' for Inactive)
REMARK    1  A    between atoms: C_5  and  S_7
REMARK    2  A    between atoms: S_7  and  N_10
REMARK    3  A    between atoms: C_16  and  O_20
REMARK                            x       y       z     vdW  Elec       q    Type
REMARK                         _______ _______ _______ _____ _____    ______ ____
ROOT
ATOM      1  N   UNL     1       1.394  -2.760   1.647  0.00  0.00    -0.199 N 
ATOM      2  C   UNL     1       2.699  -2.765   2.323  0.00  0.00    +0.132 C 
ATOM      3  C   UNL     1       2.826  -4.090   3.087  0.00  0.00    +0.025 C 
ATOM      4  C   UNL     1       1.740  -4.146   4.161  0.00  0.00    +0.039 C 
ATOM      5  C   UNL     1       0.390  -3.853   3.563  0.00  0.00    -0.021 A 
ATOM      6  C   UNL     1       0.261  -3.179   2.359  0.00  0.00    +0.096 A 
ATOM      7  C   UNL     1      -1.004  -2.915   1.837  0.00  0.00    +0.140 A 
ATOM      8  C   UNL     1      -2.135  -3.324   2.525  0.00  0.00    +0.047 A 
ATOM      9  C   UNL     1      -2.004  -3.994   3.728  0.00  0.00    +0.004 A 
ATOM     10  C   UNL     1      -0.747  -4.264   4.241  0.00  0.00    +0.006 A 
ENDROOT
BRANCH   1  11
ATOM     11  S   UNL     1       1.263  -2.262   0.073  0.00  0.00    +0.075 S 
ATOM     12  O   UNL     1       0.357  -3.155  -0.561  0.00  0.00    -0.150 OA
ATOM     13  O   UNL     1       2.587  -2.057  -0.400  0.00  0.00    -0.150 OA
BRANCH  11  18
ATOM     14  C   UNL     1      -1.172   0.823  -0.764  0.00  0.00    +0.005 A 
ATOM     15  C   UNL     1      -0.741   1.798   0.115  0.00  0.00    +0.038 A 
ATOM     16  C   UNL     1       0.304   1.534   0.983  0.00  0.00    +0.125 A 
ATOM     17  C   UNL     1       0.916   0.292   0.970  0.00  0.00    +0.067 A 
ATOM     18  C   UNL     1       0.484  -0.682   0.091  0.00  0.00    +0.111 A 
ATOM     19  C   UNL     1      -0.560  -0.417  -0.776  0.00  0.00    +0.029 A 
ATOM     20  F   UNL     1       0.726   2.487   1.843  0.00  0.00    -0.205 F 
ENDBRANCH  11  18
ENDBRANCH   1  11
BRANCH   7  21
ATOM     21  O   UNL     1      -1.129  -2.256   0.654  0.00  0.00    -0.505 OA
ATOM     22  H   UNL     1      -1.299  -2.834  -0.102  0.00  0.00    +0.292 HD
ENDBRANCH   7  21
TORSDOF 3
