REMARK  Name = ZINC00907625
REMARK  6 active torsions:
REMARK  status: ('A' for Active; 'I' for Inactive)
REMARK    1  A    between atoms: C_1  and  C_2
REMARK    2  A    between atoms: C_9  and  C_14
REMARK    3  A    between atoms: C_14  and  C_16
REMARK    4  A    between atoms: C_14  and  N_61
REMARK    5  A    between atoms: N_20  and  C_21
REMARK    6  A    between atoms: C_29  and  O_32
REMARK                            x       y       z     vdW  Elec       q    Type
REMARK                         _______ _______ _______ _____ _____    ______ ____
ROOT
ATOM      1  C   UNL     1      -1.334   2.140   0.020  0.00  0.00    +0.039 C 
ENDROOT
BRANCH   1  10
ATOM      2  C   UNL     1       6.123   2.025  -0.044  0.00  0.00    +0.044 C 
ATOM      3  C   UNL     1       4.797   1.308  -0.036  0.00  0.00    -0.050 A 
ATOM      4  C   UNL     1       4.766  -0.080  -0.044  0.00  0.00    +0.005 A 
ATOM      5  C   UNL     1       3.566  -0.756  -0.036  0.00  0.00    +0.026 A 
ATOM      6  C   UNL     1       2.371  -0.043  -0.021  0.00  0.00    +0.049 A 
ATOM      7  C   UNL     1       2.407   1.364  -0.014  0.00  0.00    -0.001 A 
ATOM      8  C   UNL     1       3.638   2.030  -0.021  0.00  0.00    +0.013 A 
ATOM      9  C   UNL     1       1.145   2.106   0.002  0.00  0.00    +0.017 A 
ATOM     10  C   UNL     1      -0.017   1.407   0.010  0.00  0.00    +0.011 A 
ATOM     11  C   UNL     1       0.002  -0.004   0.002  0.00  0.00    +0.251 A 
ATOM     12  O   UNL     1      -1.054  -0.613   0.009  0.00  0.00    -0.268 OA
ATOM     13  N   UNL     1       1.156  -0.694  -0.013  0.00  0.00    -0.322 N 
ATOM     14  H   UNL     1       1.132  -1.694  -0.018  0.00  0.00    +0.169 HD
ENDBRANCH   1  10
BRANCH   1  20
ATOM     15  C   UNL     1      -1.372   1.726   2.405  0.00  0.00    -0.075 C 
ATOM     16  C   UNL     1      -2.193   1.104   3.537  0.00  0.00    +0.013 C 
ATOM     17  C   UNL     1      -3.505   1.878   3.694  0.00  0.00    +0.111 C 
ATOM     18  C   UNL     1      -4.265   1.853   2.366  0.00  0.00    +0.013 C 
ATOM     19  C   UNL     1      -3.384   2.454   1.268  0.00  0.00    -0.075 C 
ATOM     20  N   UNL     1      -2.150   1.649   1.150  0.00  0.00    +0.389 N 
ATOM     21  H   UNL     1      -2.406   0.670   0.976  0.00  0.00    -0.080 HD
BRANCH  17  22
ATOM     22  O   UNL     1      -4.300   1.267   4.712  0.00  0.00    -0.392 OA
ATOM     23  H   UNL     1      -3.879   1.247   5.582  0.00  0.00    +0.210 HD
ENDBRANCH  17  22
ENDBRANCH   1  20
BRANCH   1  24
ATOM     24  C   UNL     1      -2.071   1.867  -1.266  0.00  0.00    +0.143 A 
ATOM     25  N   UNL     1      -2.695   0.761  -1.590  0.00  0.00    -0.115 NA
ATOM     26  N   UNL     1      -3.197   0.917  -2.766  0.00  0.00    -0.023 NA
ATOM     27  N   UNL     1      -2.911   2.095  -3.200  0.00  0.00    -0.044 NA
ATOM     28  N   UNL     1      -2.221   2.713  -2.301  0.00  0.00    -0.227 N 
BRANCH  28  29
ATOM     29  C   UNL     1      -1.698   4.079  -2.392  0.00  0.00    +0.111 C 
ATOM     30  C   UNL     1      -2.859   5.059  -2.570  0.00  0.00    +0.027 C 
ATOM     31  C   UNL     1      -2.313   6.485  -2.665  0.00  0.00    +0.002 C 
ATOM     32  C   UNL     1      -1.368   6.590  -3.864  0.00  0.00    +0.000 C 
ATOM     33  C   UNL     1      -0.207   5.610  -3.687  0.00  0.00    +0.002 C 
ATOM     34  C   UNL     1      -0.754   4.184  -3.592  0.00  0.00    +0.027 C 
ENDBRANCH  28  29
ENDBRANCH   1  24
TORSDOF 5
