REMARK  Name = ZINC13012380
REMARK  8 active torsions:
REMARK  status: ('A' for Active; 'I' for Inactive)
REMARK    1  A    between atoms: C_1  and  C_2
REMARK    2  A    between atoms: C_2  and  C_3
REMARK    3  A    between atoms: C_2  and  C_4
REMARK    4  A    between atoms: C_4  and  C_5
REMARK    5  A    between atoms: N_7  and  C_8
REMARK    6  A    between atoms: C_11  and  N_14
REMARK    7  A    between atoms: C_15  and  C_17
REMARK    8  A    between atoms: C_17  and  N_18
REMARK                            x       y       z     vdW  Elec       q    Type
REMARK                         _______ _______ _______ _____ _____    ______ ____
ROOT
ATOM      1  N   UNL     1      -1.594  -4.278  -3.555  0.00  0.00    -0.284 N 
ATOM      2  C   UNL     1      -1.242  -3.416  -2.580  0.00  0.00    +0.235 C 
ATOM      3  O   UNL     1      -0.434  -3.750  -1.739  0.00  0.00    -0.274 OA
ATOM      4  H   UNL     1      -2.289  -4.036  -4.188  0.00  0.00    +0.155 HD
ENDROOT
BRANCH   1   8
ATOM      5  C   UNL     1       0.301  -7.980  -3.852  0.00  0.00    +0.033 A 
ATOM      6  C   UNL     1       0.064  -7.419  -2.604  0.00  0.00    +0.025 A 
ATOM      7  C   UNL     1      -0.563  -6.194  -2.506  0.00  0.00    +0.025 A 
ATOM      8  C   UNL     1      -0.958  -5.521  -3.655  0.00  0.00    +0.034 A 
ATOM      9  C   UNL     1      -0.726  -6.085  -4.903  0.00  0.00    +0.025 A 
ATOM     10  C   UNL     1      -0.093  -7.308  -5.001  0.00  0.00    +0.025 A 
BRANCH   5  13
ATOM     11  C   UNL     1       1.778  -9.470  -4.976  0.00  0.00    +0.217 C 
ATOM     12  O   UNL     1       1.918  -8.648  -5.857  0.00  0.00    -0.275 OA
ATOM     13  N   UNL     1       0.938  -9.224  -3.951  0.00  0.00    -0.285 N 
ATOM     14  H   UNL     1       0.774  -9.907  -3.283  0.00  0.00    +0.155 HD
BRANCH  11  15
ATOM     15  C   UNL     1       2.542 -10.768  -5.028  0.00  0.00    +0.099 C 
BRANCH  15  17
ATOM     16  C   UNL     1       4.481  -9.701  -6.187  0.00  0.00    +0.008 C 
ATOM     17  C   UNL     1       3.417 -10.795  -6.283  0.00  0.00    -0.008 C 
ATOM     18  C   UNL     1       4.097 -12.160  -6.402  0.00  0.00    +0.008 C 
ENDBRANCH  15  17
ENDBRANCH  11  15
ENDBRANCH   5  13
ENDBRANCH   1   8
BRANCH   2  19
ATOM     19  C   UNL     1      -1.851  -2.039  -2.535  0.00  0.00    +0.214 C 
BRANCH  19  20
ATOM     20  N   UNL     1      -1.309  -1.302  -1.391  0.00  0.00    -0.215 N 
ATOM     21  C   UNL     1      -0.200  -0.533  -1.439  0.00  0.00    +0.251 C 
ATOM     22  O   UNL     1       0.511  -0.327  -2.399  0.00  0.00    -0.272 OA
ATOM     23  C   UNL     1      -0.036   0.014  -0.045  0.00  0.00    +0.138 C 
ATOM     24  C   UNL     1      -0.073   1.548  -0.042  0.00  0.00    +0.045 C 
ATOM     25  C   UNL     1       1.430   1.910  -0.069  0.00  0.00    +0.038 C 
ATOM     26  C   UNL     1       2.136   0.719   0.545  0.00  0.00    -0.042 A 
ATOM     27  C   UNL     1       1.288  -0.376   0.553  0.00  0.00    -0.012 A 
ATOM     28  C   UNL     1       1.731  -1.583   1.068  0.00  0.00    +0.006 A 
ATOM     29  C   UNL     1       3.011  -1.698   1.574  0.00  0.00    +0.000 A 
ATOM     30  C   UNL     1       3.856  -0.604   1.567  0.00  0.00    +0.000 A 
ATOM     31  C   UNL     1       3.418   0.601   1.053  0.00  0.00    +0.004 A 
ATOM     32  N   UNL     1      -1.159  -0.548   0.706  0.00  0.00    -0.281 N 
ATOM     33  C   UNL     1      -1.852  -1.308  -0.166  0.00  0.00    +0.310 C 
ATOM     34  O   UNL     1      -2.855  -1.928   0.126  0.00  0.00    -0.252 OA
ATOM     35  H   UNL     1      -1.364  -0.403   1.643  0.00  0.00    +0.152 HD
ENDBRANCH  19  20
ENDBRANCH   2  19
TORSDOF 6
