REMARK  Name = ZINC04144046
REMARK  2 active torsions:
REMARK  status: ('A' for Active; 'I' for Inactive)
REMARK    1  A    between atoms: C_7  and  C_9
REMARK    2  A    between atoms: C_16  and  C_19
REMARK                            x       y       z     vdW  Elec       q    Type
REMARK                         _______ _______ _______ _____ _____    ______ ____
ROOT
ATOM      1  C   UNL     1       0.483  -4.368  -0.028  0.00  0.00    +0.049 C 
ATOM      2  C   UNL     1       1.256  -4.764  -1.287  0.00  0.00    +0.019 C 
ATOM      3  C   UNL     1       1.471  -6.279  -1.298  0.00  0.00    -0.009 C 
ATOM      4  C   UNL     1       2.269  -6.690  -0.059  0.00  0.00    +0.007 C 
ATOM      5  C   UNL     1       1.496  -6.294   1.200  0.00  0.00    -0.009 C 
ATOM      6  C   UNL     1       1.282  -4.779   1.211  0.00  0.00    +0.019 C 
ATOM      7  C   UNL     1       0.140  -7.001   1.210  0.00  0.00    +0.019 C 
ATOM      8  C   UNL     1      -0.658  -6.590  -0.029  0.00  0.00    +0.049 C 
ATOM      9  C   UNL     1       0.115  -6.987  -1.289  0.00  0.00    +0.019 C 
ATOM     10  C   UNL     1      -0.873  -5.076  -0.018  0.00  0.00    +0.032 C 
ENDROOT
BRANCH   1  17
ATOM     11  C   UNL     1      -0.016   1.316   0.009  0.00  0.00    +0.120 A 
ATOM     12  C   UNL     1       1.183   1.948   0.001  0.00  0.00    +0.068 A 
ATOM     13  S   UNL     1       2.296   0.552  -0.017  0.00  0.00    -0.061 S 
ATOM     14  C   UNL     1       1.137  -0.669  -0.012  0.00  0.00    +0.164 A 
ATOM     15  N   UNL     1       0.002  -0.004   0.002  0.00  0.00    -0.233 NA
ATOM     16  N   UNL     1       1.333  -2.045  -0.022  0.00  0.00    -0.264 N 
ATOM     17  C   UNL     1       0.272  -2.876  -0.017  0.00  0.00    +0.225 C 
ATOM     18  O   UNL     1      -0.854  -2.423  -0.003  0.00  0.00    -0.275 OA
ATOM     19  H   UNL     1       2.232  -2.407  -0.034  0.00  0.00    +0.157 HD
ENDBRANCH   1  17
BRANCH   8  20
ATOM     20  C   UNL     1      -1.994  -7.287  -0.020  0.00  0.00    +0.225 C 
ATOM     21  O   UNL     1      -3.018  -6.637  -0.006  0.00  0.00    -0.275 OA
ATOM     22  N   UNL     1      -2.052  -8.634  -0.027  0.00  0.00    -0.264 N 
ATOM     23  C   UNL     1      -3.285  -9.277  -0.018  0.00  0.00    +0.164 A 
ATOM     24  N   UNL     1      -4.486  -8.741  -0.009  0.00  0.00    -0.233 NA
ATOM     25  C   UNL     1      -5.569  -9.495  -0.002  0.00  0.00    +0.120 A 
ATOM     26  C   UNL     1      -5.385 -10.838  -0.006  0.00  0.00    +0.068 A 
ATOM     27  S   UNL     1      -3.602 -10.930  -0.025  0.00  0.00    -0.061 S 
ATOM     28  H   UNL     1      -1.234  -9.154  -0.039  0.00  0.00    +0.157 HD
ENDBRANCH   8  20
TORSDOF 2
