REMARK  Name = ZINC39666630
REMARK  9 active torsions:
REMARK  status: ('A' for Active; 'I' for Inactive)
REMARK    1  A    between atoms: C_1  and  C_2
REMARK    2  A    between atoms: C_3  and  C_8
REMARK    3  A    between atoms: C_4  and  C_7
REMARK    4  A    between atoms: C_12  and  C_21
REMARK    5  A    between atoms: N_23  and  C_24
REMARK    6  A    between atoms: C_24  and  C_25
REMARK    7  A    between atoms: C_25  and  C_27
REMARK    8  A    between atoms: C_25  and  O_28
REMARK    9  A    between atoms: O_28  and  C_29
REMARK                            x       y       z     vdW  Elec       q    Type
REMARK                         _______ _______ _______ _____ _____    ______ ____
ROOT
ATOM      1  C   UNL     1       0.018  -0.409  -2.614  0.00  0.00    +0.252 C 
ATOM      2  O   UNL     1       1.066  -0.205  -3.196  0.00  0.00    -0.270 OA
ATOM      3  N   UNL     1      -1.155  -0.226  -3.252  0.00  0.00    -0.296 N 
ATOM      4  C   UNL     1      -2.522  -0.415  -2.713  0.00  0.00    +0.121 C 
ATOM      5  C   UNL     1      -3.341   0.752  -3.309  0.00  0.00    +0.100 C 
ATOM      6  C   UNL     1      -2.580   1.156  -4.582  0.00  0.00    -0.004 C 
ATOM      7  C   UNL     1      -1.368   0.216  -4.652  0.00  0.00    +0.115 C 
ATOM      8  C   UNL     1      -2.111   2.605  -4.481  0.00  0.00    -0.010 C 
ATOM      9  C   UNL     1      -1.407   3.001  -5.781  0.00  0.00    -0.082 C 
ATOM     10  N   UNL     1      -2.333   2.844  -6.909  0.00  0.00    +0.379 N 
ATOM     11  C   UNL     1      -2.707   1.432  -7.057  0.00  0.00    -0.082 C 
ATOM     12  C   UNL     1      -3.466   0.969  -5.810  0.00  0.00    -0.010 C 
ATOM     13  H   UNL     1      -3.162   3.393  -6.741  0.00  0.00    -0.086 HD
ATOM     14  H   UNL     1      -1.887   3.163  -7.756  0.00  0.00    -0.086 HD
ENDROOT
BRANCH   1  17
ATOM     15  C   UNL     1      -0.009   1.506  -0.003  0.00  0.00    +0.070 C 
ATOM     16  C   UNL     1       0.017  -0.001  -0.021  0.00  0.00    +0.093 A 
ATOM     17  C   UNL     1       0.030  -0.856  -1.209  0.00  0.00    +0.101 A 
ATOM     18  C   UNL     1       0.055  -2.147  -0.766  0.00  0.00    +0.147 A 
ATOM     19  O   UNL     1       0.058  -2.127   0.569  0.00  0.00    -0.359 OA
ATOM     20  N   UNL     1       0.039  -0.786   1.016  0.00  0.00    -0.083 NA
ATOM     21  C   UNL     1       0.075  -3.380  -1.633  0.00  0.00    +0.090 C 
ENDBRANCH   1  17
BRANCH   5  22
ATOM     22  C   UNL     1      -3.395   1.904  -2.339  0.00  0.00    +0.218 C 
ATOM     23  O   UNL     1      -2.521   2.039  -1.509  0.00  0.00    -0.275 OA
ATOM     24  N   UNL     1      -4.414   2.784  -2.393  0.00  0.00    -0.312 N 
ATOM     25  H   UNL     1      -5.113   2.676  -3.057  0.00  0.00    +0.149 HD
BRANCH  24  26
ATOM     26  C   UNL     1      -4.466   3.904  -1.450  0.00  0.00    +0.148 C 
BRANCH  26  27
ATOM     27  C   UNL     1      -5.714   4.745  -1.726  0.00  0.00    +0.187 C 
ATOM     28  C   UNL     1      -5.769   5.915  -0.741  0.00  0.00    +0.053 C 
BRANCH  27  29
ATOM     29  O   UNL     1      -5.664   5.250  -3.062  0.00  0.00    -0.486 OA
BRANCH  29  30
ATOM     30  C   UNL     1      -6.850   5.554  -3.652  0.00  0.00    +0.139 A 
ATOM     31  C   UNL     1      -8.028   5.479  -2.923  0.00  0.00    +0.047 A 
ATOM     32  C   UNL     1      -9.232   5.789  -3.525  0.00  0.00    +0.004 A 
ATOM     33  C   UNL     1      -9.264   6.174  -4.853  0.00  0.00    +0.002 A 
ATOM     34  C   UNL     1      -8.092   6.249  -5.582  0.00  0.00    +0.023 A 
ATOM     35  C   UNL     1      -6.884   5.946  -4.983  0.00  0.00    +0.083 A 
ATOM     36 CL   UNL     1      -5.411   6.048  -5.897  0.00  0.00    -0.080 Cl
ENDBRANCH  29  30
ENDBRANCH  27  29
ENDBRANCH  26  27
ENDBRANCH  24  26
ENDBRANCH   5  22
TORSDOF 6
