REMARK  Name = ZINC09909436
REMARK  8 active torsions:
REMARK  status: ('A' for Active; 'I' for Inactive)
REMARK    1  A    between atoms: C_1  and  C_2
REMARK    2  A    between atoms: C_2  and  C_4
REMARK    3  A    between atoms: C_2  and  S_18
REMARK    4  A    between atoms: N_6  and  C_7
REMARK    5  A    between atoms: C_8  and  C_15
REMARK    6  A    between atoms: S_18  and  C_19
REMARK    7  A    between atoms: C_22  and  C_27
REMARK    8  A    between atoms: N_23  and  C_24
REMARK                            x       y       z     vdW  Elec       q    Type
REMARK                         _______ _______ _______ _____ _____    ______ ____
ROOT
ATOM      1  C   UNL     1       0.962  -0.886  -1.377  0.00  0.00    +0.029 C 
ATOM      2  C   UNL     1       0.490  -0.205  -0.091  0.00  0.00    +0.137 C 
ENDROOT
BRANCH   2   3
ATOM      3  C   UNL     1       0.635   1.288  -0.230  0.00  0.00    +0.231 C 
ATOM      4  O   UNL     1      -0.331   1.968  -0.504  0.00  0.00    -0.274 OA
ATOM      5  N   UNL     1       1.839   1.867  -0.054  0.00  0.00    -0.278 N 
ATOM      6  H   UNL     1       2.612   1.323   0.162  0.00  0.00    +0.155 HD
BRANCH   5   7
ATOM      7  C   UNL     1       1.973   3.242  -0.182  0.00  0.00    +0.084 A 
ATOM      8  C   UNL     1       3.113   4.013  -0.034  0.00  0.00    +0.068 A 
ATOM      9  C   UNL     1       2.984   5.456  -0.228  0.00  0.00    -0.023 A 
ATOM     10  C   UNL     1       1.744   5.884  -0.525  0.00  0.00    -0.004 A 
ATOM     11  S   UNL     1       0.753   4.410  -0.557  0.00  0.00    -0.077 S 
ATOM     12  C   UNL     1       1.690   7.377  -0.706  0.00  0.00    +0.043 C 
ATOM     13  C   UNL     1       3.163   7.797  -0.909  0.00  0.00    +0.010 C 
ATOM     14  C   UNL     1       3.915   6.668  -0.176  0.00  0.00    +0.037 C 
BRANCH   8  15
ATOM     15  C   UNL     1       4.404   3.403   0.300  0.00  0.00    +0.244 C 
ATOM     16  O   UNL     1       5.151   3.035  -0.588  0.00  0.00    -0.270 OA
ATOM     17  N   UNL     1       4.764   3.251   1.590  0.00  0.00    -0.325 N 
ATOM     18  H   UNL     1       4.168   3.545   2.297  0.00  0.00    +0.145 HD
ATOM     19  H   UNL     1       5.618   2.848   1.811  0.00  0.00    +0.145 HD
ENDBRANCH   8  15
ENDBRANCH   5   7
ENDBRANCH   2   3
BRANCH   2  20
ATOM     20  S   UNL     1      -1.247  -0.618   0.207  0.00  0.00    -0.073 S 
BRANCH  20  21
ATOM     21  C   UNL     1      -1.108  -2.354   0.475  0.00  0.00    +0.193 A 
ATOM     22  N   UNL     1      -0.003  -3.061   0.440  0.00  0.00    -0.122 NA
ATOM     23  N   UNL     1      -0.260  -4.296   0.683  0.00  0.00    -0.128 NA
ATOM     24  C   UNL     1      -1.549  -4.456   0.880  0.00  0.00    +0.167 A 
ATOM     25  N   UNL     1      -2.133  -3.217   0.753  0.00  0.00    -0.299 N 
BRANCH  24  26
ATOM     26  C   UNL     1      -2.241  -5.726   1.180  0.00  0.00    +0.044 A 
ATOM     27  C   UNL     1      -3.550  -5.879   1.503  0.00  0.00    +0.095 A 
ATOM     28  N   UNL     1      -3.822  -7.200   1.711  0.00  0.00    -0.360 N 
ATOM     29  H   UNL     1      -4.691  -7.557   1.953  0.00  0.00    +0.165 HD
ATOM     30  C   UNL     1      -2.683  -7.955   1.527  0.00  0.00    +0.047 A 
ATOM     31  C   UNL     1      -1.645  -7.073   1.182  0.00  0.00    +0.010 A 
ATOM     32  C   UNL     1      -0.363  -7.564   0.942  0.00  0.00    +0.011 A 
ATOM     33  C   UNL     1      -0.123  -8.917   1.033  0.00  0.00    +0.001 A 
ATOM     34  C   UNL     1      -1.148  -9.790   1.368  0.00  0.00    +0.002 A 
ATOM     35  C   UNL     1      -2.419  -9.318   1.614  0.00  0.00    +0.026 A 
ENDBRANCH  24  26
BRANCH  25  36
ATOM     36  C   UNL     1      -3.554  -2.889   0.887  0.00  0.00    +0.091 C 
ATOM     37  C   UNL     1      -3.975  -1.444   0.615  0.00  0.00    +0.027 C 
ATOM     38  C   UNL     1      -3.964  -1.981   2.048  0.00  0.00    +0.027 C 
ENDBRANCH  25  36
ENDBRANCH  20  21
ENDBRANCH   2  20
TORSDOF 7
