REMARK  Name = ZINC02778484
REMARK  9 active torsions:
REMARK  status: ('A' for Active; 'I' for Inactive)
REMARK    1  A    between atoms: C_1  and  C_2
REMARK    2  A    between atoms: C_2  and  N_3
REMARK    3  A    between atoms: C_4  and  C_27
REMARK    4  A    between atoms: C_5  and  N_8
REMARK    5  A    between atoms: C_9  and  C_11
REMARK    6  A    between atoms: C_11  and  C_13
REMARK    7  A    between atoms: C_11  and  N_14
REMARK    8  A    between atoms: C_15  and  C_24
REMARK    9  A    between atoms: C_17  and  C_19
REMARK                            x       y       z     vdW  Elec       q    Type
REMARK                         _______ _______ _______ _____ _____    ______ ____
ROOT
ATOM      1  N   UNL     1      -2.272   4.136  -0.167  0.00  0.00    -0.281 N 
ATOM      2  C   UNL     1      -1.231   3.291  -0.301  0.00  0.00    +0.242 C 
ATOM      3  O   UNL     1      -0.475   3.404  -1.243  0.00  0.00    -0.273 OA
ATOM      4  H   UNL     1      -2.957   4.033   0.688  0.00  0.00    +0.155 HD
ENDROOT
BRANCH   1   7
ATOM      5  N   UNL     1      -3.286   6.857  -2.244  0.00  0.00    -0.258 N 
ATOM      6  C   UNL     1      -3.501   6.088  -1.129  0.00  0.00    +0.144 A 
ATOM      7  C   UNL     1      -2.481   5.142  -1.112  0.00  0.00    +0.084 A 
ATOM      8  C   UNL     1      -1.710   5.413  -2.254  0.00  0.00    +0.158 A 
ATOM      9  N   UNL     1      -2.247   6.435  -2.868  0.00  0.00    -0.177 NA
BRANCH   6  10
ATOM     10  C   UNL     1      -4.584   6.235  -0.152  0.00  0.00    +0.261 C 
ATOM     11  O   UNL     1      -5.564   5.516  -0.217  0.00  0.00    -0.269 OA
ATOM     12  N   UNL     1      -4.494   7.165   0.819  0.00  0.00    -0.324 N 
ATOM     13  H   UNL     1      -5.306   7.276   1.553  0.00  0.00    +0.145 HD
ATOM     14  H   UNL     1      -3.608   7.815   0.878  0.00  0.00    +0.145 HD
ENDBRANCH   6  10
BRANCH   5  16
ATOM     15  C   UNL     1      -5.301   7.470  -3.488  0.00  0.00    +0.029 C 
ATOM     16  C   UNL     1      -4.120   7.987  -2.663  0.00  0.00    +0.141 C 
ENDBRANCH   5  16
ENDBRANCH   1   7
BRANCH   2  17
ATOM     17  C   UNL     1      -1.005   2.205   0.720  0.00  0.00    +0.190 C 
ATOM     18  C   UNL     1      -0.794   2.836   2.098  0.00  0.00    +0.042 C 
BRANCH  17  19
ATOM     19  N   UNL     1       0.181   1.428   0.352  0.00  0.00    -0.255 N 
ATOM     20  C   UNL     1       0.212   0.104   0.087  0.00  0.00    +0.058 A 
ATOM     21  C   UNL     1       1.490  -0.226  -0.216  0.00  0.00    +0.071 A 
ATOM     22  C   UNL     1       2.265   0.936  -0.134  0.00  0.00    +0.179 A 
ATOM     23  N   UNL     1       1.481   1.927   0.206  0.00  0.00    -0.165 NA
ATOM     24 BR   UNL     1       2.116  -1.952  -0.669  0.00  0.00    -0.046 Br
BRANCH  22  25
ATOM     25  C   UNL     1       3.747   1.030  -0.392  0.00  0.00    +0.437 C 
ATOM     26  F   UNL     1       3.968   1.307  -1.745  0.00  0.00    -0.164 F 
ATOM     27  F   UNL     1       4.292   2.054   0.389  0.00  0.00    -0.164 F 
ATOM     28  F   UNL     1       4.355  -0.185  -0.059  0.00  0.00    -0.164 F 
ENDBRANCH  22  25
BRANCH  20  29
ATOM     29  C   UNL     1      -0.964  -0.838   0.123  0.00  0.00    +0.039 C 
ATOM     30  C   UNL     1      -0.667  -2.335   0.223  0.00  0.00    +0.010 C 
ATOM     31  C   UNL     1      -1.181  -1.743  -1.091  0.00  0.00    +0.010 C 
ENDBRANCH  20  29
ENDBRANCH  17  19
ENDBRANCH   2  17
TORSDOF 7
