REMARK  Name = ZINC22433369
REMARK  11 active torsions:
REMARK  status: ('A' for Active; 'I' for Inactive)
REMARK    1  A    between atoms: C_1  and  C_2
REMARK    2  A    between atoms: C_2  and  C_3
REMARK    3  A    between atoms: C_2  and  C_4
REMARK    4  A    between atoms: C_2  and  C_5
REMARK    5  A    between atoms: C_12  and  N_17
REMARK    6  A    between atoms: C_13  and  C_14
REMARK    7  A    between atoms: C_18  and  C_20
REMARK    8  A    between atoms: C_20  and  C_21
REMARK    9  A    between atoms: C_20  and  C_22
REMARK   10  A    between atoms: C_20  and  O_23
REMARK   11  A    between atoms: O_23  and  C_24
REMARK                            x       y       z     vdW  Elec       q    Type
REMARK                         _______ _______ _______ _____ _____    ______ ____
ROOT
ATOM      1  C   UNL     1      -4.833   2.215  -3.304  0.00  0.00    -0.000 C 
ATOM      2  C   UNL     1      -3.313   2.178  -3.485  0.00  0.00    +0.009 C 
ATOM      3  C   UNL     1      -2.629   2.789  -2.260  0.00  0.00    +0.037 C 
ATOM      4  C   UNL     1      -3.165   2.105  -1.008  0.00  0.00    -0.023 A 
ATOM      5  C   UNL     1      -4.325   1.413  -1.036  0.00  0.00    -0.004 A 
ATOM      6  S   UNL     1      -4.532   0.812   0.617  0.00  0.00    -0.077 S 
ATOM      7  C   UNL     1      -3.097   1.465   1.334  0.00  0.00    +0.085 A 
ATOM      8  C   UNL     1      -2.495   2.139   0.281  0.00  0.00    +0.068 A 
ATOM      9  C   UNL     1      -5.227   1.208  -2.213  0.00  0.00    +0.046 C 
ENDROOT
BRANCH   8  10
ATOM     10  C   UNL     1      -1.227   2.853   0.460  0.00  0.00    +0.244 C 
ATOM     11  O   UNL     1      -1.230   4.026   0.787  0.00  0.00    -0.270 OA
ATOM     12  N   UNL     1      -0.059   2.212   0.263  0.00  0.00    -0.325 N 
ATOM     13  H   UNL     1       0.892   2.748   0.398  0.00  0.00    +0.145 HD
ATOM     14  H   UNL     1      -0.056   1.152  -0.032  0.00  0.00    +0.145 HD
ENDBRANCH   8  10
BRANCH   1  16
ATOM     15  C   UNL     1      -5.085   0.427  -5.031  0.00  0.00    +0.011 C 
ATOM     16  C   UNL     1      -5.515   1.837  -4.621  0.00  0.00    -0.035 C 
ATOM     17  C   UNL     1      -7.034   1.874  -4.438  0.00  0.00    +0.011 C 
ATOM     18  C   UNL     1      -5.108   2.831  -5.710  0.00  0.00    +0.011 C 
ENDBRANCH   1  16
BRANCH   7  19
ATOM     19  N   UNL     1      -2.657   1.346   2.644  0.00  0.00    -0.276 N 
ATOM     20  C   UNL     1      -3.383   0.644   3.537  0.00  0.00    +0.261 C 
ATOM     21  O   UNL     1      -4.420   0.117   3.195  0.00  0.00    -0.271 OA
ATOM     22  H   UNL     1      -1.716   1.824   2.954  0.00  0.00    +0.155 HD
BRANCH  20  23
ATOM     23  C   UNL     1      -2.905   0.514   4.960  0.00  0.00    +0.180 C 
ATOM     24  C   UNL     1      -1.536  -0.168   4.979  0.00  0.00    +0.065 C 
ATOM     25  C   UNL     1      -2.790   1.905   5.588  0.00  0.00    +0.065 C 
BRANCH  23  26
ATOM     26  O   UNL     1      -3.838  -0.270   5.707  0.00  0.00    -0.477 OA
BRANCH  26  27
ATOM     27  C   UNL     1      -4.048  -1.545   5.286  0.00  0.00    +0.122 A 
ATOM     28  C   UNL     1      -3.458  -1.996   4.114  0.00  0.00    +0.046 A 
ATOM     29  C   UNL     1      -3.668  -3.294   3.691  0.00  0.00    +0.004 A 
ATOM     30  C   UNL     1      -4.474  -4.141   4.430  0.00  0.00    +0.000 A 
ATOM     31  C   UNL     1      -5.067  -3.692   5.596  0.00  0.00    +0.004 A 
ATOM     32  C   UNL     1      -4.856  -2.396   6.025  0.00  0.00    +0.046 A 
ENDBRANCH  26  27
ENDBRANCH  23  26
ENDBRANCH  20  23
ENDBRANCH   7  19
TORSDOF 6
