REMARK  Name = ZINC20206718
REMARK  10 active torsions:
REMARK  status: ('A' for Active; 'I' for Inactive)
REMARK    1  A    between atoms: C_1  and  C_2
REMARK    2  A    between atoms: C_2  and  S_3
REMARK    3  A    between atoms: S_3  and  C_6
REMARK    4  A    between atoms: C_14  and  C_15
REMARK    5  A    between atoms: C_18  and  O_23
REMARK    6  A    between atoms: C_19  and  O_21
REMARK    7  A    between atoms: O_21  and  C_22
REMARK    8  A    between atoms: O_23  and  C_24
REMARK    9  A    between atoms: C_24  and  C_25
REMARK   10  A    between atoms: C_28  and  C_31
REMARK                            x       y       z     vdW  Elec       q    Type
REMARK                         _______ _______ _______ _____ _____    ______ ____
ROOT
ATOM      1  C   UNL     1      -0.392   1.841  -3.448  0.00  0.00    +0.257 C 
ATOM      2  N   UNL     1       0.185   2.970  -3.720  0.00  0.00    -0.174 NA
ATOM      3  S   UNL     1       1.754   2.543  -4.130  0.00  0.00    +0.049 S 
ATOM      4  C   UNL     1       1.627   0.886  -3.994  0.00  0.00    +0.183 C 
ATOM      5  N   UNL     1       2.512  -0.054  -4.237  0.00  0.00    -0.152 NA
ATOM      6  C   UNL     1       2.156  -1.347  -4.117  0.00  0.00    +0.273 C 
ATOM      7  O   UNL     1       2.988  -2.235  -4.207  0.00  0.00    -0.268 OA
ATOM      8  C   UNL     1       0.728  -1.665  -3.871  0.00  0.00    +0.079 C 
ATOM      9  C   UNL     1       0.180  -2.875  -4.233  0.00  0.00    +0.024 C 
ATOM     10  C   UNL     1      -0.081  -0.600  -3.211  0.00  0.00    +0.138 C 
ATOM     11  N   UNL     1      -1.074  -0.850  -2.401  0.00  0.00    -0.284 NA
ATOM     12  N   UNL     1       0.337   0.705  -3.541  0.00  0.00    -0.201 N 
ATOM     13  H   UNL     1      -1.319  -1.768  -2.203  0.00  0.00    +0.188 HD
ENDROOT
BRANCH   9  14
ATOM     14  C   UNL     1       0.955  -3.817  -5.043  0.00  0.00    -0.021 A 
ATOM     15  C   UNL     1       0.864  -5.195  -4.799  0.00  0.00    +0.012 A 
ATOM     16  C   UNL     1       1.595  -6.077  -5.562  0.00  0.00    +0.050 A 
ATOM     17  C   UNL     1       2.423  -5.607  -6.574  0.00  0.00    +0.162 A 
ATOM     18  C   UNL     1       2.520  -4.238  -6.823  0.00  0.00    +0.162 A 
ATOM     19  C   UNL     1       1.787  -3.345  -6.068  0.00  0.00    +0.057 A 
BRANCH  18  20
ATOM     20  O   UNL     1       3.333  -3.783  -7.814  0.00  0.00    -0.491 OA
ATOM     21  C   UNL     1       3.384  -2.369  -8.014  0.00  0.00    +0.277 C 
ENDBRANCH  18  20
BRANCH  17  22
ATOM     22  O   UNL     1       3.140  -6.484  -7.323  0.00  0.00    -0.484 OA
BRANCH  22  23
ATOM     23  C   UNL     1       2.995  -7.871  -7.014  0.00  0.00    +0.264 C 
BRANCH  23  24
ATOM     24  C   UNL     1       3.860  -8.685  -7.942  0.00  0.00    -0.010 A 
ATOM     25  C   UNL     1       3.352  -9.131  -9.147  0.00  0.00    +0.007 A 
ATOM     26  C   UNL     1       4.146  -9.878  -9.998  0.00  0.00    +0.004 A 
ATOM     27  C   UNL     1       5.448 -10.178  -9.643  0.00  0.00    -0.050 A 
ATOM     28  C   UNL     1       5.956  -9.731  -8.437  0.00  0.00    +0.004 A 
ATOM     29  C   UNL     1       5.163  -8.981  -7.589  0.00  0.00    +0.007 A 
ATOM     30  C   UNL     1       6.313 -10.993 -10.569  0.00  0.00    +0.044 C 
ENDBRANCH  23  24
ENDBRANCH  22  23
ENDBRANCH  17  22
ENDBRANCH   9  14
BRANCH   1  31
ATOM     31  S   UNL     1      -2.085   1.789  -2.963  0.00  0.00    +0.029 S 
ATOM     32  O   UNL     1      -2.576   0.564  -3.492  0.00  0.00    -0.167 OA
ATOM     33  O   UNL     1      -2.624   3.031  -3.393  0.00  0.00    -0.167 OA
BRANCH  31  35
ATOM     34  C   UNL     1      -3.480   1.667  -0.613  0.00  0.00    +0.028 C 
ATOM     35  C   UNL     1      -2.049   1.716  -1.151  0.00  0.00    +0.172 C 
ENDBRANCH  31  35
ENDBRANCH   1  31
TORSDOF 7
