REMARK  Name = ZINC31952643
REMARK  9 active torsions:
REMARK  status: ('A' for Active; 'I' for Inactive)
REMARK    1  A    between atoms: C_1  and  C_2
REMARK    2  A    between atoms: C_3  and  C_8
REMARK    3  A    between atoms: N_10  and  N_11
REMARK    4  A    between atoms: C_12  and  C_13
REMARK    5  A    between atoms: C_15  and  O_28
REMARK    6  A    between atoms: C_16  and  O_20
REMARK    7  A    between atoms: O_20  and  C_21
REMARK    8  A    between atoms: C_21  and  C_22
REMARK    9  A    between atoms: O_28  and  C_29
REMARK                            x       y       z     vdW  Elec       q    Type
REMARK                         _______ _______ _______ _____ _____    ______ ____
ROOT
ATOM      1  C   UNL     1      -1.139   1.849  -0.576  0.00  0.00    -0.001 A 
ATOM      2  C   UNL     1      -2.446   1.355  -0.538  0.00  0.00    +0.059 A 
ATOM      3  C   UNL     1      -3.483   2.114  -1.047  0.00  0.00    +0.163 A 
ATOM      4  C   UNL     1      -3.226   3.368  -1.596  0.00  0.00    +0.176 A 
ATOM      5  C   UNL     1      -1.929   3.860  -1.634  0.00  0.00    +0.064 A 
ATOM      6  C   UNL     1      -0.888   3.110  -1.123  0.00  0.00    +0.028 A 
ATOM      7 BR   UNL     1      -1.587   5.563  -2.380  0.00  0.00    -0.046 Br
ENDROOT
BRANCH   1   9
ATOM      8  N   UNL     1       1.098   1.614   0.269  0.00  0.00    -0.187 NA
ATOM      9  C   UNL     1      -0.028   1.045  -0.035  0.00  0.00    +0.138 C 
BRANCH   8  12
ATOM     10  C   UNL     1       2.332   3.607   0.683  0.00  0.00    +0.272 C 
ATOM     11  O   UNL     1       3.362   2.959   0.655  0.00  0.00    -0.268 OA
ATOM     12  N   UNL     1       1.145   2.996   0.496  0.00  0.00    -0.202 N 
ATOM     13  H   UNL     1       0.214   3.581   0.522  0.00  0.00    +0.178 HD
BRANCH  10  16
ATOM     14  C   UNL     1       4.876   5.320   1.162  0.00  0.00    +0.067 C 
ATOM     15  C   UNL     1       3.475   5.874   1.141  0.00  0.00    +0.060 A 
ATOM     16  C   UNL     1       2.381   5.049   0.921  0.00  0.00    +0.100 A 
ATOM     17  S   UNL     1       1.049   6.237   1.015  0.00  0.00    -0.048 S 
ATOM     18  C   UNL     1       2.021   7.644   1.315  0.00  0.00    +0.156 A 
ATOM     19  N   UNL     1       3.249   7.149   1.326  0.00  0.00    -0.230 NA
ATOM     20  N   UNL     1       1.615   8.949   1.498  0.00  0.00    -0.337 N 
ATOM     21  H   UNL     1       2.362   9.737   1.681  0.00  0.00    +0.144 HD
ATOM     22  H   UNL     1       0.546   9.203   1.460  0.00  0.00    +0.144 HD
ENDBRANCH  10  16
ENDBRANCH   8  12
ENDBRANCH   1   9
BRANCH   3  23
ATOM     23  O   UNL     1      -4.756   1.635  -1.011  0.00  0.00    -0.491 OA
ATOM     24  C   UNL     1      -4.947   0.342  -0.434  0.00  0.00    +0.277 C 
ENDBRANCH   3  23
BRANCH   4  25
ATOM     25  O   UNL     1      -4.248   4.112  -2.096  0.00  0.00    -0.483 OA
BRANCH  25  26
ATOM     26  C   UNL     1      -4.905   5.002  -1.192  0.00  0.00    +0.264 C 
BRANCH  26  27
ATOM     27  C   UNL     1      -6.002   5.737  -1.919  0.00  0.00    -0.010 A 
ATOM     28  C   UNL     1      -5.733   6.943  -2.538  0.00  0.00    +0.007 A 
ATOM     29  C   UNL     1      -6.738   7.614  -3.209  0.00  0.00    +0.000 A 
ATOM     30  C   UNL     1      -8.014   7.085  -3.252  0.00  0.00    +0.000 A 
ATOM     31  C   UNL     1      -8.284   5.882  -2.627  0.00  0.00    +0.000 A 
ATOM     32  C   UNL     1      -7.278   5.207  -1.961  0.00  0.00    +0.007 A 
ENDBRANCH  26  27
ENDBRANCH  25  26
ENDBRANCH   4  25
TORSDOF 7
