REMARK  Name = ZINC09579014
REMARK  6 active torsions:
REMARK  status: ('A' for Active; 'I' for Inactive)
REMARK    1  A    between atoms: N_13  and  C_17
REMARK    2  A    between atoms: C_17  and  C_18
REMARK    3  A    between atoms: N_20  and  C_21
REMARK    4  A    between atoms: C_21  and  C_22
REMARK    5  A    between atoms: C_25  and  O_28
REMARK    6  A    between atoms: O_28  and  C_29
REMARK                            x       y       z     vdW  Elec       q    Type
REMARK                         _______ _______ _______ _____ _____    ______ ____
ROOT
ATOM      1  C   UNL     1       4.080   1.000  -1.403  0.00  0.00    +0.231 C 
ATOM      2  O   UNL     1       3.286   0.870  -2.310  0.00  0.00    -0.274 OA
ATOM      3  N   UNL     1       5.394   1.136  -1.673  0.00  0.00    -0.310 N 
ATOM      4  H   UNL     1       6.030   1.241  -0.948  0.00  0.00    +0.149 HD
ENDROOT
BRANCH   1   5
ATOM      5  C   UNL     1       3.599   1.010   0.025  0.00  0.00    +0.213 C 
BRANCH   5  18
ATOM      6  C   UNL     1      -1.671  -1.347   3.804  0.00  0.00    +0.000 A 
ATOM      7  C   UNL     1      -0.424  -0.749   3.777  0.00  0.00    +0.000 A 
ATOM      8  C   UNL     1       0.109  -0.331   2.575  0.00  0.00    +0.006 A 
ATOM      9  C   UNL     1      -0.595  -0.506   1.391  0.00  0.00    -0.012 A 
ATOM     10  C   UNL     1      -1.835  -1.106   1.418  0.00  0.00    -0.042 A 
ATOM     11  C   UNL     1      -2.371  -1.524   2.629  0.00  0.00    +0.004 A 
ATOM     12  C   UNL     1      -2.647  -1.339   0.171  0.00  0.00    +0.035 C 
ATOM     13  C   UNL     1      -2.154  -0.449  -0.968  0.00  0.00    +0.008 C 
ATOM     14  C   UNL     1      -0.637  -0.633  -1.107  0.00  0.00    +0.040 C 
ATOM     15  C   UNL     1       0.037  -0.024   0.116  0.00  0.00    +0.138 C 
ATOM     16  C   UNL     1       1.515  -0.344   0.114  0.00  0.00    +0.251 C 
ATOM     17  O   UNL     1       2.028  -1.442   0.159  0.00  0.00    -0.272 OA
ATOM     18  N   UNL     1       2.144   0.847   0.051  0.00  0.00    -0.215 N 
ATOM     19  C   UNL     1       1.272   1.863   0.013  0.00  0.00    +0.310 C 
ATOM     20  O   UNL     1       1.599   3.032  -0.045  0.00  0.00    -0.252 OA
ATOM     21  N   UNL     1      -0.007   1.444   0.047  0.00  0.00    -0.281 N 
ATOM     22  H   UNL     1      -0.801   2.000   0.026  0.00  0.00    +0.152 HD
ENDBRANCH   5  18
ENDBRANCH   1   5
BRANCH   3  23
ATOM     23  C   UNL     1       5.862   1.127  -3.061  0.00  0.00    +0.139 C 
BRANCH  23  24
ATOM     24  C   UNL     1       7.359   1.294  -3.088  0.00  0.00    -0.030 A 
ATOM     25  C   UNL     1       7.911   2.560  -3.159  0.00  0.00    +0.009 A 
ATOM     26  C   UNL     1       9.283   2.717  -3.178  0.00  0.00    +0.046 A 
ATOM     27  C   UNL     1      10.108   1.602  -3.136  0.00  0.00    +0.128 A 
ATOM     28  C   UNL     1       9.552   0.333  -3.071  0.00  0.00    +0.046 A 
ATOM     29  C   UNL     1       8.179   0.182  -3.047  0.00  0.00    +0.009 A 
BRANCH  27  30
ATOM     30  O   UNL     1      11.458   1.753  -3.159  0.00  0.00    -0.456 OA
BRANCH  30  31
ATOM     31  C   UNL     1      12.131   1.316  -4.257  0.00  0.00    +0.129 A 
ATOM     32  C   UNL     1      11.431   0.847  -5.359  0.00  0.00    +0.049 A 
ATOM     33  C   UNL     1      12.115   0.409  -6.476  0.00  0.00    +0.042 A 
ATOM     34  C   UNL     1      13.500   0.425  -6.491  0.00  0.00    +0.124 A 
ATOM     35  C   UNL     1      14.200   0.887  -5.389  0.00  0.00    +0.042 A 
ATOM     36  C   UNL     1      13.518   1.332  -4.273  0.00  0.00    +0.049 A 
ATOM     37  F   UNL     1      14.168  -0.009  -7.581  0.00  0.00    -0.205 F 
ENDBRANCH  30  31
ENDBRANCH  27  30
ENDBRANCH  23  24
ENDBRANCH   3  23
TORSDOF 6
