REMARK  Name = ZINC13134630
REMARK  12 active torsions:
REMARK  status: ('A' for Active; 'I' for Inactive)
REMARK    1  A    between atoms: C_1  and  C_2
REMARK    2  A    between atoms: C_2  and  C_3
REMARK    3  A    between atoms: C_3  and  C_4
REMARK    4  A    between atoms: C_4  and  C_6
REMARK    5  A    between atoms: C_4  and  N_7
REMARK    6  A    between atoms: C_10  and  C_29
REMARK    7  A    between atoms: N_14  and  C_15
REMARK    8  A    between atoms: C_16  and  C_28
REMARK    9  A    between atoms: N_17  and  C_27
REMARK   10  A    between atoms: N_18  and  C_21
REMARK   11  A    between atoms: C_29  and  C_30
REMARK   12  A    between atoms: N_32  and  C_33
REMARK                            x       y       z     vdW  Elec       q    Type
REMARK                         _______ _______ _______ _____ _____    ______ ____
ROOT
ATOM      1  N   UNL     1       3.819  -4.439   0.011  0.00  0.00    -0.247 N 
ATOM      2  C   UNL     1       5.107  -4.170  -0.113  0.00  0.00    +0.235 C 
ATOM      3  O   UNL     1       5.932  -5.041  -0.296  0.00  0.00    -0.274 OA
ATOM      4  C   UNL     1       5.492  -2.704  -0.004  0.00  0.00    +0.149 C 
ATOM      5  S   UNL     1       3.840  -1.947   0.262  0.00  0.00    -0.077 S 
ATOM      6  C   UNL     1       2.875  -3.449   0.215  0.00  0.00    +0.165 C 
ATOM      7  N   UNL     1       1.580  -3.583   0.349  0.00  0.00    -0.218 NA
ENDROOT
BRANCH   7   8
ATOM      8  C   UNL     1       0.776  -2.467   0.413  0.00  0.00    +0.153 A 
ATOM      9  C   UNL     1      -0.218  -2.238   1.312  0.00  0.00    +0.064 A 
ATOM     10  N   UNL     1      -0.772  -1.014   1.044  0.00  0.00    -0.282 N 
ATOM     11  N   UNL     1      -0.126  -0.445  -0.059  0.00  0.00    -0.215 N 
ATOM     12  C   UNL     1       0.832  -1.299  -0.474  0.00  0.00    +0.298 A 
ATOM     13  O   UNL     1       1.596  -1.133  -1.408  0.00  0.00    -0.264 OA
ATOM     14  C   UNL     1      -1.871  -0.400   1.793  0.00  0.00    +0.171 C 
ATOM     15  C   UNL     1      -0.635  -3.171   2.419  0.00  0.00    +0.067 C 
BRANCH  11  16
ATOM     16  C   UNL     1      -0.419   0.799  -0.628  0.00  0.00    +0.067 A 
ATOM     17  C   UNL     1      -1.730   1.128  -0.944  0.00  0.00    +0.028 A 
ATOM     18  C   UNL     1      -2.017   2.359  -1.500  0.00  0.00    +0.002 A 
ATOM     19  C   UNL     1      -0.998   3.259  -1.754  0.00  0.00    +0.000 A 
ATOM     20  C   UNL     1       0.310   2.932  -1.446  0.00  0.00    +0.002 A 
ATOM     21  C   UNL     1       0.603   1.705  -0.884  0.00  0.00    +0.028 A 
ENDBRANCH  11  16
ENDBRANCH   7   8
BRANCH   1  22
ATOM     22  C   UNL     1       3.375  -5.832  -0.076  0.00  0.00    +0.080 C 
ATOM     23  C   UNL     1       2.677  -6.228   1.228  0.00  0.00    +0.028 C 
BRANCH  22  24
ATOM     24  C   UNL     1       2.399  -5.985  -1.244  0.00  0.00    +0.022 C 
BRANCH  24  26
ATOM     25  C   UNL     1       2.154  -5.863  -3.727  0.00  0.00    +0.004 C 
ATOM     26  C   UNL     1       3.130  -5.711  -2.559  0.00  0.00    -0.002 C 
ENDBRANCH  24  26
ENDBRANCH  22  24
ENDBRANCH   1  22
BRANCH   4  27
ATOM     27  C   UNL     1       6.130  -2.200  -1.300  0.00  0.00    +0.120 C 
BRANCH  27  28
ATOM     28  C   UNL     1       6.439  -0.731  -1.170  0.00  0.00    +0.219 C 
ATOM     29  O   UNL     1       6.174  -0.144  -0.142  0.00  0.00    -0.275 OA
ATOM     30  N   UNL     1       7.009  -0.069  -2.197  0.00  0.00    -0.283 N 
ATOM     31  H   UNL     1       7.270  -0.548  -2.998  0.00  0.00    +0.155 HD
BRANCH  30  32
ATOM     32  C   UNL     1       7.224   1.312  -2.106  0.00  0.00    +0.069 A 
ATOM     33  C   UNL     1       7.450   1.901  -0.869  0.00  0.00    +0.026 A 
ATOM     34  C   UNL     1       7.663   3.263  -0.782  0.00  0.00    +0.002 A 
ATOM     35  C   UNL     1       7.651   4.041  -1.925  0.00  0.00    +0.003 A 
ATOM     36  C   UNL     1       7.426   3.460  -3.159  0.00  0.00    +0.040 A 
ATOM     37  C   UNL     1       7.217   2.096  -3.254  0.00  0.00    +0.144 A 
ATOM     38  F   UNL     1       7.003   1.526  -4.461  0.00  0.00    -0.204 F 
ENDBRANCH  30  32
ENDBRANCH  27  28
ENDBRANCH   4  27
TORSDOF 8
