REMARK  Name = ZINC39923301
REMARK  6 active torsions:
REMARK  status: ('A' for Active; 'I' for Inactive)
REMARK    1  A    between atoms: C_4  and  N_7
REMARK    2  A    between atoms: C_8  and  S_19
REMARK    3  A    between atoms: S_19  and  C_20
REMARK    4  A    between atoms: C_20  and  C_21
REMARK    5  A    between atoms: N_23  and  N_24
REMARK    6  A    between atoms: C_25  and  C_26
REMARK                            x       y       z     vdW  Elec       q    Type
REMARK                         _______ _______ _______ _____ _____    ______ ____
ROOT
ATOM      1  N   UNL     1       3.621  -0.650  -0.037  0.00  0.00    -0.239 N 
ATOM      2  C   UNL     1       3.631  -2.110   0.060  0.00  0.00    +0.227 C 
ATOM      3  N   UNL     1       4.753  -2.664  -0.707  0.00  0.00    -0.317 N 
ATOM      4  C   UNL     1       5.996  -2.048  -0.613  0.00  0.00    +0.041 A 
ATOM      5  C   UNL     1       7.175  -2.756  -0.779  0.00  0.00    +0.024 A 
ATOM      6  C   UNL     1       8.386  -2.098  -0.688  0.00  0.00    +0.002 A 
ATOM      7  C   UNL     1       8.432  -0.737  -0.432  0.00  0.00    +0.001 A 
ATOM      8  C   UNL     1       7.267  -0.018  -0.259  0.00  0.00    +0.015 A 
ATOM      9  C   UNL     1       6.038  -0.669  -0.344  0.00  0.00    +0.058 A 
ATOM     10  C   UNL     1       4.768   0.050  -0.148  0.00  0.00    +0.255 C 
ATOM     11  O   UNL     1       4.755   1.264  -0.082  0.00  0.00    -0.269 OA
ATOM     12  H   UNL     1       4.630  -3.445  -1.268  0.00  0.00    +0.149 HD
ENDROOT
BRANCH   1  16
ATOM     13  C   UNL     1      -0.017   1.377   0.011  0.00  0.00    +0.000 A 
ATOM     14  C   UNL     1       0.513   0.941  -1.189  0.00  0.00    +0.002 A 
ATOM     15  C   UNL     1       1.719   0.269  -1.209  0.00  0.00    +0.023 A 
ATOM     16  C   UNL     1       2.400   0.031  -0.021  0.00  0.00    +0.039 A 
ATOM     17  C   UNL     1       1.864   0.471   1.182  0.00  0.00    +0.023 A 
ATOM     18  C   UNL     1       0.657   1.143   1.195  0.00  0.00    +0.002 A 
ENDBRANCH   1  16
BRANCH   2  19
ATOM     19  S   UNL     1       3.800  -2.595   1.799  0.00  0.00    -0.110 S 
BRANCH  19  20
ATOM     20  C   UNL     1       5.380  -1.864   2.307  0.00  0.00    +0.170 C 
BRANCH  20  21
ATOM     21  C   UNL     1       5.646  -2.195   3.753  0.00  0.00    +0.242 C 
ATOM     22  O   UNL     1       4.847  -2.860   4.379  0.00  0.00    -0.273 OA
ATOM     23  N   UNL     1       6.770  -1.754   4.351  0.00  0.00    -0.206 N 
ATOM     24  H   UNL     1       7.409  -1.222   3.850  0.00  0.00    +0.177 HD
BRANCH  23  25
ATOM     25  N   UNL     1       7.017  -2.062   5.695  0.00  0.00    -0.188 NA
ATOM     26  C   UNL     1       8.109  -1.633   6.275  0.00  0.00    +0.136 C 
BRANCH  26  27
ATOM     27  C   UNL     1       8.356  -1.942   7.620  0.00  0.00    +0.000 C 
ATOM     28  C   UNL     1       9.458  -1.562   8.383  0.00  0.00    +0.004 A 
ATOM     29  C   UNL     1      10.608  -0.798   8.084  0.00  0.00    +0.010 A 
ATOM     30  C   UNL     1      11.541  -0.583   9.046  0.00  0.00    +0.001 A 
ATOM     31  C   UNL     1      11.396  -1.099  10.336  0.00  0.00    +0.002 A 
ATOM     32  C   UNL     1      10.320  -1.840  10.694  0.00  0.00    +0.026 A 
ATOM     33  C   UNL     1       9.300  -2.109   9.742  0.00  0.00    +0.043 A 
ATOM     34  N   UNL     1       8.177  -2.789   9.837  0.00  0.00    -0.380 N 
ATOM     35  C   UNL     1       7.479  -2.752   8.549  0.00  0.00    +0.150 C 
ATOM     36  H   UNL     1       7.860  -3.240  10.635  0.00  0.00    +0.160 HD
ENDBRANCH  26  27
ENDBRANCH  23  25
ENDBRANCH  20  21
ENDBRANCH  19  20
ENDBRANCH   2  19
TORSDOF 6
