REMARK  Name = ZINC63513887
REMARK  9 active torsions:
REMARK  status: ('A' for Active; 'I' for Inactive)
REMARK    1  A    between atoms: C_1  and  C_2
REMARK    2  A    between atoms: C_4  and  C_12
REMARK    3  A    between atoms: C_12  and  C_13
REMARK    4  A    between atoms: C_13  and  N_14
REMARK    5  A    between atoms: C_15  and  C_17
REMARK    6  A    between atoms: C_17  and  N_25
REMARK    7  A    between atoms: C_18  and  C_19
REMARK    8  A    between atoms: C_26  and  C_28
REMARK    9  A    between atoms: C_32  and  N_34
REMARK                            x       y       z     vdW  Elec       q    Type
REMARK                         _______ _______ _______ _____ _____    ______ ____
ROOT
ATOM      1  C   UNL     1      -7.119  -0.867  -2.261  0.00  0.00    +0.097 C 
ATOM      2  C   UNL     1      -6.818  -0.523  -3.534  0.00  0.00    +0.036 C 
ENDROOT
BRANCH   2   3
ATOM      3  C   UNL     1      -7.880  -0.460  -4.550  0.00  0.00    -0.023 A 
ATOM      4  C   UNL     1      -9.221  -0.371  -4.160  0.00  0.00    +0.008 A 
ATOM      5  C   UNL     1     -10.211  -0.312  -5.118  0.00  0.00    +0.001 A 
ATOM      6  C   UNL     1      -9.881  -0.341  -6.462  0.00  0.00    +0.000 A 
ATOM      7  C   UNL     1      -8.557  -0.429  -6.855  0.00  0.00    +0.001 A 
ATOM      8  C   UNL     1      -7.555  -0.483  -5.910  0.00  0.00    +0.008 A 
ENDBRANCH   2   3
BRANCH   1  10
ATOM      9  N   UNL     1      -4.848  -0.361  -1.522  0.00  0.00    -0.310 N 
ATOM     10  C   UNL     1      -6.090  -0.782  -1.214  0.00  0.00    +0.258 C 
ATOM     11  O   UNL     1      -6.361  -1.091  -0.068  0.00  0.00    -0.269 OA
ATOM     12  H   UNL     1      -4.632  -0.114  -2.435  0.00  0.00    +0.149 HD
BRANCH   9  13
ATOM     13  C   UNL     1      -3.823  -0.276  -0.479  0.00  0.00    +0.109 C 
BRANCH  13  14
ATOM     14  C   UNL     1      -2.513   0.226  -1.090  0.00  0.00    +0.052 C 
BRANCH  14  17
ATOM     15  C   UNL     1       0.021   2.207  -0.687  0.00  0.00    +0.035 C 
ATOM     16  C   UNL     1      -0.024   0.762  -0.185  0.00  0.00    +0.103 C 
ATOM     17  C   UNL     1      -1.459   0.314  -0.017  0.00  0.00    -0.037 C 
ATOM     18  C   UNL     1      -1.604   0.008   1.293  0.00  0.00    -0.001 A 
ATOM     19  C   UNL     1      -2.744  -0.480   2.079  0.00  0.00    +0.010 A 
ATOM     20  C   UNL     1      -2.580  -0.700   3.404  0.00  0.00    +0.001 A 
ATOM     21  C   UNL     1      -1.353  -0.474   4.043  0.00  0.00    +0.002 A 
ATOM     22  C   UNL     1      -0.261  -0.027   3.387  0.00  0.00    +0.026 A 
ATOM     23  C   UNL     1      -0.319   0.238   1.991  0.00  0.00    +0.043 A 
ATOM     24  N   UNL     1       0.587   0.669   1.145  0.00  0.00    -0.378 N 
ATOM     25  H   UNL     1       1.506   0.890   1.362  0.00  0.00    +0.160 HD
ENDBRANCH  14  17
ENDBRANCH  13  14
ENDBRANCH   9  13
ENDBRANCH   1  10
BRANCH   1  26
ATOM     26  N   UNL     1      -8.407  -1.304  -1.941  0.00  0.00    -0.277 N 
ATOM     27  C   UNL     1      -9.122  -0.660  -0.997  0.00  0.00    +0.248 C 
ATOM     28  O   UNL     1      -8.609   0.230  -0.347  0.00  0.00    -0.270 OA
ATOM     29  H   UNL     1      -8.787  -2.071  -2.398  0.00  0.00    +0.155 HD
BRANCH  27  30
ATOM     30  C   UNL     1     -10.530  -1.036  -0.751  0.00  0.00    +0.039 A 
ATOM     31  C   UNL     1     -11.088  -2.133  -1.411  0.00  0.00    +0.013 A 
ATOM     32  C   UNL     1     -12.403  -2.479  -1.177  0.00  0.00    +0.003 A 
ATOM     33  C   UNL     1     -13.169  -1.741  -0.291  0.00  0.00    +0.033 A 
ATOM     34  C   UNL     1     -12.622  -0.653   0.365  0.00  0.00    +0.127 A 
ATOM     35  C   UNL     1     -11.307  -0.300   0.145  0.00  0.00    +0.045 A 
BRANCH  34  36
ATOM     36  N   UNL     1     -13.449   0.131   1.310  0.00  0.00    +0.056 N 
ATOM     37  O   UNL     1     -14.600  -0.180   1.508  0.00  0.00    -0.126 OA
ATOM     38  O   UNL     1     -12.972   1.082   1.885  0.00  0.00    -0.126 OA
ENDBRANCH  34  36
ENDBRANCH  27  30
ENDBRANCH   1  26
TORSDOF 8
