REMARK  Name = ZINC07737465
REMARK  8 active torsions:
REMARK  status: ('A' for Active; 'I' for Inactive)
REMARK    1  A    between atoms: C_4  and  C_7
REMARK    2  A    between atoms: C_7  and  N_8
REMARK    3  A    between atoms: C_9  and  N_31
REMARK    4  A    between atoms: C_10  and  N_17
REMARK    5  A    between atoms: N_17  and  C_18
REMARK    6  A    between atoms: C_18  and  C_19
REMARK    7  A    between atoms: C_19  and  C_21
REMARK    8  A    between atoms: C_19  and  N_57
REMARK                            x       y       z     vdW  Elec       q    Type
REMARK                         _______ _______ _______ _____ _____    ______ ____
ROOT
ATOM      1  N   UNL     1       1.368   1.969   0.004  0.00  0.00    -0.276 N 
ATOM      2  C   UNL     1       2.031   2.179   1.192  0.00  0.00    +0.127 A 
ATOM      3  C   UNL     1       3.295   2.702   1.171  0.00  0.00    +0.131 A 
ATOM      4  C   UNL     1       3.881   3.022  -0.067  0.00  0.00    +0.277 A 
ATOM      5  O   UNL     1       5.005   3.493  -0.110  0.00  0.00    -0.266 OA
ATOM      6  N   UNL     1       3.193   2.804  -1.205  0.00  0.00    -0.273 N 
ATOM      7  H   UNL     1       3.609   3.031  -2.086  0.00  0.00    +0.173 HD
ATOM      8  C   UNL     1       1.953   2.284  -1.167  0.00  0.00    +0.331 A 
ATOM      9  O   UNL     1       1.351   2.097  -2.206  0.00  0.00    -0.246 OA
ENDROOT
BRANCH   2  10
ATOM     10  N   UNL     1       1.430   1.860   2.388  0.00  0.00    -0.343 N 
ATOM     11  H   UNL     1       0.535   1.486   2.397  0.00  0.00    +0.144 HD
ATOM     12  H   UNL     1       1.901   2.010   3.223  0.00  0.00    +0.144 HD
ENDBRANCH   2  10
BRANCH   3  13
ATOM     13  N   UNL     1       4.000   2.922   2.377  0.00  0.00    -0.338 N 
ATOM     14  H   UNL     1       3.471   3.511   3.003  0.00  0.00    +0.146 HD
BRANCH  13  15
ATOM     15  C   UNL     1       5.329   3.492   2.114  0.00  0.00    +0.094 C 
BRANCH  15  16
ATOM     16  C   UNL     1       6.059   3.716   3.440  0.00  0.00    +0.016 C 
BRANCH  16  22
ATOM     17  C   UNL     1       4.894   5.825   3.679  0.00  0.00    -0.078 C 
ATOM     18  C   UNL     1       3.914   6.600   4.562  0.00  0.00    -0.019 C 
ATOM     19  C   UNL     1       4.554   6.848   5.931  0.00  0.00    -0.004 C 
ATOM     20  C   UNL     1       4.938   5.505   6.558  0.00  0.00    -0.019 C 
ATOM     21  C   UNL     1       5.888   4.761   5.617  0.00  0.00    -0.078 C 
ATOM     22  N   UNL     1       5.204   4.532   4.326  0.00  0.00    +0.387 N 
ATOM     23  H   UNL     1       4.327   4.028   4.500  0.00  0.00    -0.081 HD
ENDBRANCH  16  22
BRANCH  16  24
ATOM     24  C   UNL     1       7.370   4.413   3.179  0.00  0.00    +0.093 A 
ATOM     25  C   UNL     1       8.589   3.852   3.266  0.00  0.00    +0.043 A 
ATOM     26  C   UNL     1       9.527   4.859   2.941  0.00  0.00    +0.041 A 
ATOM     27  C   UNL     1       8.824   5.975   2.676  0.00  0.00    +0.195 A 
ATOM     28  O   UNL     1       7.518   5.697   2.816  0.00  0.00    -0.469 OA
ENDBRANCH  16  24
ENDBRANCH  15  16
ENDBRANCH  13  15
ENDBRANCH   3  13
BRANCH   1  29
ATOM     29  C   UNL     1       0.017   1.405   0.013  0.00  0.00    +0.163 C 
BRANCH  29  33
ATOM     30  C   UNL     1       0.249  -2.855  -0.204  0.00  0.00    +0.000 A 
ATOM     31  C   UNL     1       0.245  -2.225   1.026  0.00  0.00    +0.000 A 
ATOM     32  C   UNL     1       0.170  -0.847   1.097  0.00  0.00    +0.005 A 
ATOM     33  C   UNL     1       0.099  -0.098  -0.063  0.00  0.00    -0.028 A 
ATOM     34  C   UNL     1       0.098  -0.729  -1.294  0.00  0.00    +0.005 A 
ATOM     35  C   UNL     1       0.178  -2.107  -1.364  0.00  0.00    +0.000 A 
ENDBRANCH  29  33
ENDBRANCH   1  29
TORSDOF 8
