REMARK  Name = ZINC14647727
REMARK  14 active torsions:
REMARK  status: ('A' for Active; 'I' for Inactive)
REMARK    1  A    between atoms: C_1  and  C_2
REMARK    2  A    between atoms: C_2  and  C_3
REMARK    3  A    between atoms: C_3  and  C_4
REMARK    4  A    between atoms: C_4  and  O_5
REMARK    5  A    between atoms: O_5  and  C_6
REMARK    6  A    between atoms: C_6  and  C_8
REMARK    7  A    between atoms: C_8  and  C_9
REMARK    8  A    between atoms: N_16  and  C_17
REMARK    9  A    between atoms: C_17  and  N_19
REMARK   10  A    between atoms: C_20  and  C_22
REMARK   11  A    between atoms: C_25  and  O_29
REMARK   12  A    between atoms: O_29  and  C_30
REMARK   13  A    between atoms: C_30  and  C_31
REMARK   14  A    between atoms: C_31  and  C_32
REMARK                            x       y       z     vdW  Elec       q    Type
REMARK                         _______ _______ _______ _____ _____    ______ ____
ROOT
ATOM      1  C   UNL     1       1.857  -1.439   0.761  0.00  0.00    +0.140 C 
ATOM      2  S   UNL     1       3.524  -1.749   0.994  0.00  0.00    -0.018 S 
ENDROOT
BRANCH   1   9
ATOM      3  C   UNL     1       0.040  -0.036  -0.117  0.00  0.00    +0.171 C 
ATOM      4  C   UNL     1      -0.158   1.443   0.080  0.00  0.00    +0.234 C 
ATOM      5  O   UNL     1      -1.289   1.865   0.197  0.00  0.00    -0.274 OA
ATOM      6  N   UNL     1       0.853   2.311   0.126  0.00  0.00    -0.312 N 
ATOM      7  C   UNL     1       2.262   1.944   0.084  0.00  0.00    +0.123 C 
ATOM      8  C   UNL     1       2.443   0.561  -0.545  0.00  0.00    +0.126 C 
ATOM      9  N   UNL     1       1.464  -0.354   0.065  0.00  0.00    -0.299 N 
ATOM     10  H   UNL     1       0.635   3.254   0.192  0.00  0.00    +0.149 HD
BRANCH   3  11
ATOM     11  C   UNL     1      -0.397  -0.428  -1.530  0.00  0.00    +0.152 C 
BRANCH  11  12
ATOM     12  C   UNL     1      -0.352  -1.927  -1.672  0.00  0.00    +0.309 C 
ATOM     13  O   UNL     1      -0.146  -2.620  -0.703  0.00  0.00    -0.251 OA
BRANCH  12  14
ATOM     14  O   UNL     1      -0.540  -2.494  -2.874  0.00  0.00    -0.465 OA
BRANCH  14  15
ATOM     15  C   UNL     1      -0.483  -3.943  -2.936  0.00  0.00    +0.232 C 
BRANCH  15  16
ATOM     16  C   UNL     1      -0.719  -4.402  -4.377  0.00  0.00    +0.041 C 
BRANCH  16  18
ATOM     17  C   UNL     1      -0.895  -6.388  -5.882  0.00  0.00    +0.004 C 
ATOM     18  C   UNL     1      -0.659  -5.929  -4.442  0.00  0.00    -0.000 C 
ENDBRANCH  16  18
ENDBRANCH  15  16
ENDBRANCH  14  15
ENDBRANCH  12  14
ENDBRANCH  11  12
ENDBRANCH   3  11
ENDBRANCH   1   9
BRANCH   1  19
ATOM     19  N   UNL     1       0.937  -2.280   1.273  0.00  0.00    -0.264 N 
ATOM     20  C   UNL     1       1.329  -3.415   1.886  0.00  0.00    +0.250 C 
ATOM     21  O   UNL     1       2.512  -3.679   1.978  0.00  0.00    -0.270 OA
ATOM     22  H   UNL     1      -0.007  -2.070   1.200  0.00  0.00    +0.157 HD
BRANCH  20  23
ATOM     23  C   UNL     1       0.322  -4.336   2.447  0.00  0.00    +0.038 A 
ATOM     24  C   UNL     1      -1.039  -4.031   2.348  0.00  0.00    +0.017 A 
ATOM     25  C   UNL     1      -1.976  -4.896   2.867  0.00  0.00    +0.047 A 
ATOM     26  C   UNL     1      -1.570  -6.066   3.499  0.00  0.00    +0.134 A 
ATOM     27  C   UNL     1      -0.217  -6.370   3.606  0.00  0.00    +0.060 A 
ATOM     28  C   UNL     1       0.726  -5.513   3.083  0.00  0.00    +0.032 A 
ATOM     29 BR   UNL     1       0.328  -7.963   4.467  0.00  0.00    -0.046 Br
BRANCH  26  30
ATOM     30  O   UNL     1      -2.497  -6.913   4.014  0.00  0.00    -0.491 OA
BRANCH  30  31
ATOM     31  C   UNL     1      -3.869  -6.539   3.870  0.00  0.00    +0.229 C 
BRANCH  31  32
ATOM     32  C   UNL     1      -4.758  -7.609   4.508  0.00  0.00    +0.038 C 
ATOM     33  C   UNL     1      -6.227  -7.208   4.354  0.00  0.00    +0.007 C 
ENDBRANCH  31  32
ENDBRANCH  30  31
ENDBRANCH  26  30
ENDBRANCH  20  23
ENDBRANCH   1  19
TORSDOF 12
