REMARK  Name = ZINC13064894
REMARK  13 active torsions:
REMARK  status: ('A' for Active; 'I' for Inactive)
REMARK    1  A    between atoms: C_1  and  C_2
REMARK    2  A    between atoms: C_2  and  C_3
REMARK    3  A    between atoms: C_3  and  C_5
REMARK    4  A    between atoms: C_3  and  N_76
REMARK    5  A    between atoms: N_9  and  C_10
REMARK    6  A    between atoms: C_10  and  C_11
REMARK    7  A    between atoms: C_14  and  O_17
REMARK    8  A    between atoms: O_17  and  C_18
REMARK    9  A    between atoms: C_19  and  C_20
REMARK   10  A    between atoms: C_19  and  N_76
REMARK   11  A    between atoms: C_23  and  C_33
REMARK   12  A    between atoms: C_25  and  C_32
REMARK   13  A    between atoms: C_34  and  N_76
REMARK                            x       y       z     vdW  Elec       q    Type
REMARK                         _______ _______ _______ _____ _____    ______ ____
ROOT
ATOM      1  N   UNL     1      -2.935   0.426  -2.424  0.00  0.00    +0.391 N 
ATOM      2  H   UNL     1      -2.102  -0.059  -2.776  0.00  0.00    -0.080 HD
ENDROOT
BRANCH   1   3
ATOM      3  C   UNL     1      -3.196   1.610  -3.270  0.00  0.00    -0.067 C 
ATOM      4  C   UNL     1      -4.048   1.198  -4.472  0.00  0.00    -0.015 C 
ATOM      5  C   UNL     1      -4.295   2.417  -5.363  0.00  0.00    -0.002 C 
ATOM      6  C   UNL     1      -2.956   2.970  -5.853  0.00  0.00    -0.000 C 
ATOM      7  C   UNL     1      -2.103   3.382  -4.651  0.00  0.00    -0.002 C 
ATOM      8  C   UNL     1      -1.856   2.163  -3.760  0.00  0.00    -0.015 C 
ENDBRANCH   1   3
BRANCH   1   9
ATOM      9  C   UNL     1      -4.088  -0.498  -2.479  0.00  0.00    +0.003 C 
BRANCH   9  10
ATOM     10  C   UNL     1      -3.609  -1.885  -2.137  0.00  0.00    +0.138 A 
ATOM     11  N   UNL     1      -2.695  -2.202  -1.253  0.00  0.00    -0.115 NA
ATOM     12  N   UNL     1      -2.568  -3.484  -1.253  0.00  0.00    -0.023 NA
ATOM     13  N   UNL     1      -3.378  -3.993  -2.114  0.00  0.00    -0.044 NA
ATOM     14  N   UNL     1      -4.041  -3.040  -2.676  0.00  0.00    -0.226 N 
BRANCH  14  15
ATOM     15  C   UNL     1      -5.069  -3.187  -3.710  0.00  0.00    +0.182 C 
BRANCH  15  16
ATOM     16  C   UNL     1      -4.416  -3.204  -5.068  0.00  0.00    -0.026 A 
ATOM     17  C   UNL     1      -4.267  -2.026  -5.777  0.00  0.00    +0.009 A 
ATOM     18  C   UNL     1      -3.664  -2.037  -7.020  0.00  0.00    +0.046 A 
ATOM     19  C   UNL     1      -3.219  -3.234  -7.562  0.00  0.00    +0.120 A 
ATOM     20  C   UNL     1      -3.375  -4.415  -6.851  0.00  0.00    +0.046 A 
ATOM     21  C   UNL     1      -3.973  -4.398  -5.607  0.00  0.00    +0.009 A 
BRANCH  19  22
ATOM     22  O   UNL     1      -2.630  -3.249  -8.787  0.00  0.00    -0.495 OA
ATOM     23  C   UNL     1      -2.502  -1.995  -9.461  0.00  0.00    +0.277 C 
ENDBRANCH  19  22
ENDBRANCH  15  16
ENDBRANCH  14  15
ENDBRANCH   9  10
BRANCH   9  25
ATOM     24  C   UNL     1      -5.745   1.281  -1.905  0.00  0.00    +0.002 C 
ATOM     25  C   UNL     1      -5.165  -0.069  -1.481  0.00  0.00    -0.011 C 
ENDBRANCH   9  25
ENDBRANCH   1   9
BRANCH   1  26
ATOM     26  C   UNL     1      -2.692   0.847  -1.028  0.00  0.00    -0.036 C 
BRANCH  26  27
ATOM     27  C   UNL     1      -1.347   1.523  -0.953  0.00  0.00    +0.001 A 
ATOM     28  C   UNL     1      -1.272   2.876  -0.919  0.00  0.00    +0.017 A 
ATOM     29  C   UNL     1       0.050   3.502  -0.852  0.00  0.00    +0.002 A 
ATOM     30  C   UNL     1       0.191   4.893  -0.822  0.00  0.00    -0.041 A 
ATOM     31  C   UNL     1       1.439   5.446  -0.759  0.00  0.00    +0.007 A 
ATOM     32  C   UNL     1       2.568   4.639  -0.726  0.00  0.00    -0.048 A 
ATOM     33  C   UNL     1       2.453   3.266  -0.756  0.00  0.00    +0.029 A 
ATOM     34  C   UNL     1       1.192   2.681  -0.819  0.00  0.00    +0.050 A 
ATOM     35  N   UNL     1       1.048   1.310  -0.850  0.00  0.00    -0.322 N 
ATOM     36  H   UNL     1       1.836   0.746  -0.827  0.00  0.00    +0.169 HD
ATOM     37  C   UNL     1      -0.170   0.744  -0.912  0.00  0.00    +0.251 A 
ATOM     38  O   UNL     1      -0.261  -0.471  -0.938  0.00  0.00    -0.268 OA
ATOM     39  C   UNL     1       3.934   5.271  -0.658  0.00  0.00    +0.044 C 
ATOM     40  C   UNL     1      -1.028   5.779  -0.857  0.00  0.00    +0.044 C 
ENDBRANCH  26  27
ENDBRANCH   1  26
TORSDOF 9
