REMARK  Name = ZINC41107387
REMARK  6 active torsions:
REMARK  status: ('A' for Active; 'I' for Inactive)
REMARK    1  A    between atoms: C_1  and  C_2
REMARK    2  A    between atoms: C_2  and  C_3
REMARK    3  A    between atoms: C_4  and  C_19
REMARK    4  A    between atoms: C_5  and  C_11
REMARK    5  A    between atoms: C_19  and  O_21
REMARK    6  A    between atoms: O_21  and  C_22
REMARK                            x       y       z     vdW  Elec       q    Type
REMARK                         _______ _______ _______ _____ _____    ______ ____
ROOT
ATOM      1  C   UNL     1       0.485  -0.802  -1.535  0.00  0.00    +0.021 C 
ATOM      2  C   UNL     1       1.816  -0.858  -1.307  0.00  0.00    +0.078 C 
ATOM      3  C   UNL     1       2.728  -1.056  -2.500  0.00  0.00    +0.144 C 
ATOM      4  N   UNL     1       2.084  -1.172  -3.820  0.00  0.00    -0.315 N 
ATOM      5  C   UNL     1       0.740  -1.097  -3.887  0.00  0.00    +0.135 C 
ATOM      6  S   UNL     1      -0.021  -1.230  -5.414  0.00  0.00    -0.019 S 
ATOM      7  N   UNL     1      -0.019  -0.926  -2.797  0.00  0.00    -0.300 N 
ATOM      8  H   UNL     1       2.615  -1.300  -4.622  0.00  0.00    +0.149 HD
ATOM      9  H   UNL     1      -0.981  -0.884  -2.912  0.00  0.00    +0.154 HD
ENDROOT
BRANCH   3  10
ATOM     10  C   UNL     1       3.535  -2.306  -2.266  0.00  0.00    +0.013 A 
ATOM     11  C   UNL     1       3.090  -3.519  -2.759  0.00  0.00    +0.010 A 
ATOM     12  C   UNL     1       3.830  -4.666  -2.545  0.00  0.00    +0.016 A 
ATOM     13  C   UNL     1       5.016  -4.603  -1.836  0.00  0.00    +0.021 A 
ATOM     14  C   UNL     1       5.463  -3.392  -1.342  0.00  0.00    +0.054 A 
ATOM     15  C   UNL     1       4.725  -2.241  -1.562  0.00  0.00    +0.130 A 
ATOM     16  F   UNL     1       5.163  -1.055  -1.084  0.00  0.00    -0.205 F 
ATOM     17 BR   UNL     1       6.027  -6.174  -1.543  0.00  0.00    -0.050 Br
ENDBRANCH   3  10
BRANCH   1  19
ATOM     18  C   UNL     1      -0.732   0.887  -0.188  0.00  0.00    +0.010 C 
ATOM     19  C   UNL     1      -0.458  -0.606  -0.376  0.00  0.00    +0.048 C 
ENDBRANCH   1  19
BRANCH   2  20
ATOM     20  C   UNL     1       2.339  -0.735   0.001  0.00  0.00    +0.339 C 
ATOM     21  O   UNL     1       2.814   0.323   0.369  0.00  0.00    -0.245 OA
BRANCH  20  22
ATOM     22  O   UNL     1       2.311  -1.790   0.841  0.00  0.00    -0.465 OA
ATOM     23  C   UNL     1       2.857  -1.595   2.147  0.00  0.00    +0.280 C 
ENDBRANCH  20  22
ENDBRANCH   2  20
TORSDOF 4
