REMARK  Name = ZINC08645765
REMARK  7 active torsions:
REMARK  status: ('A' for Active; 'I' for Inactive)
REMARK    1  A    between atoms: C_1  and  C_2
REMARK    2  A    between atoms: C_2  and  C_4
REMARK    3  A    between atoms: C_2  and  S_10
REMARK    4  A    between atoms: S_10  and  C_11
REMARK    5  A    between atoms: C_14  and  C_23
REMARK    6  A    between atoms: N_15  and  C_16
REMARK    7  A    between atoms: C_16  and  C_17
REMARK                            x       y       z     vdW  Elec       q    Type
REMARK                         _______ _______ _______ _____ _____    ______ ____
ROOT
ATOM      1  C   UNL     1       2.459  -4.491   0.691  0.00  0.00    +0.193 A 
ATOM      2  N   UNL     1       1.367  -5.094   0.278  0.00  0.00    -0.122 NA
ATOM      3  N   UNL     1       1.482  -6.366   0.425  0.00  0.00    -0.125 NA
ATOM      4  C   UNL     1       2.656  -6.654   0.942  0.00  0.00    +0.201 A 
ATOM      5  N   UNL     1       3.320  -5.461   1.123  0.00  0.00    -0.295 N 
ENDROOT
BRANCH   4   6
ATOM      6  C   UNL     1       3.167  -7.996   1.260  0.00  0.00    +0.173 A 
ATOM      7  C   UNL     1       2.641  -9.176   0.826  0.00  0.00    +0.054 A 
ATOM      8  C   UNL     1       3.441 -10.200   1.367  0.00  0.00    +0.057 A 
ATOM      9  C   UNL     1       4.401  -9.605   2.104  0.00  0.00    +0.171 A 
ATOM     10  O   UNL     1       4.232  -8.274   2.038  0.00  0.00    -0.445 OA
ATOM     11 BR   UNL     1       5.760 -10.497   3.071  0.00  0.00    -0.008 Br
ENDBRANCH   4   6
BRANCH   1  12
ATOM     12  S   UNL     1       2.760  -2.755   0.682  0.00  0.00    -0.073 S 
BRANCH  12  14
ATOM     13  C   UNL     1       1.066  -2.673  -1.460  0.00  0.00    +0.029 C 
ATOM     14  C   UNL     1       1.199  -2.169  -0.021  0.00  0.00    +0.137 C 
BRANCH  14  15
ATOM     15  C   UNL     1       1.178  -0.662  -0.013  0.00  0.00    +0.233 C 
ATOM     16  O   UNL     1       2.220  -0.042  -0.019  0.00  0.00    -0.274 OA
ATOM     17  N   UNL     1       0.002  -0.004   0.002  0.00  0.00    -0.239 N 
ATOM     18  C   UNL     1      -0.016   1.344   0.009  0.00  0.00    +0.303 C 
ATOM     19  O   UNL     1       1.028   1.966   0.003  0.00  0.00    -0.253 OA
ATOM     20  N   UNL     1      -1.192   2.002   0.019  0.00  0.00    -0.313 N 
ATOM     21  H   UNL     1      -0.831  -0.500   0.007  0.00  0.00    +0.159 HD
ATOM     22  H   UNL     1      -2.026   1.505   0.020  0.00  0.00    +0.146 HD
ATOM     23  H   UNL     1      -1.206   2.971   0.024  0.00  0.00    +0.146 HD
ENDBRANCH  14  15
ENDBRANCH  12  14
ENDBRANCH   1  12
BRANCH   5  24
ATOM     24  C   UNL     1       4.667  -5.270   1.668  0.00  0.00    +0.161 C 
BRANCH  24  25
ATOM     25  C   UNL     1       4.585  -5.105   3.164  0.00  0.00    -0.028 A 
ATOM     26  C   UNL     1       4.441  -3.845   3.713  0.00  0.00    +0.005 A 
ATOM     27  C   UNL     1       4.361  -3.693   5.085  0.00  0.00    +0.000 A 
ATOM     28  C   UNL     1       4.436  -4.801   5.908  0.00  0.00    +0.000 A 
ATOM     29  C   UNL     1       4.585  -6.061   5.359  0.00  0.00    +0.000 A 
ATOM     30  C   UNL     1       4.659  -6.213   3.987  0.00  0.00    +0.005 A 
ENDBRANCH  24  25
ENDBRANCH   5  24
TORSDOF 6
