REMARK  Name = ZINC67460209
REMARK  10 active torsions:
REMARK  status: ('A' for Active; 'I' for Inactive)
REMARK    1  A    between atoms: C_1  and  O_2
REMARK    2  A    between atoms: O_2  and  C_3
REMARK    3  A    between atoms: C_7  and  C_9
REMARK    4  A    between atoms: C_9  and  N_10
REMARK    5  A    between atoms: C_14  and  C_17
REMARK    6  A    between atoms: C_14  and  O_27
REMARK    7  A    between atoms: C_17  and  N_18
REMARK    8  A    between atoms: N_18  and  C_19
REMARK    9  A    between atoms: C_19  and  C_20
REMARK   10  A    between atoms: C_20  and  N_21
REMARK                            x       y       z     vdW  Elec       q    Type
REMARK                         _______ _______ _______ _____ _____    ______ ____
ROOT
ATOM      1  N   UNL     1       0.338  -4.575  -3.282  0.00  0.00    -0.295 N 
ATOM      2  C   UNL     1      -1.015  -4.887  -2.840  0.00  0.00    +0.108 C 
ATOM      3  C   UNL     1      -1.714  -5.793  -3.855  0.00  0.00    +0.022 C 
ATOM      4  C   UNL     1      -1.570  -5.170  -5.249  0.00  0.00    +0.044 C 
ATOM      5  C   UNL     1      -0.096  -5.227  -5.655  0.00  0.00    +0.127 C 
ATOM      6  C   UNL     1       0.760  -4.695  -4.541  0.00  0.00    +0.246 C 
ATOM      7  O   UNL     1       1.897  -4.361  -4.800  0.00  0.00    -0.273 OA
ENDROOT
BRANCH   5   8
ATOM      8  O   UNL     1       0.268  -6.580  -5.935  0.00  0.00    -0.381 OA
ATOM      9  H   UNL     1       0.155  -7.181  -5.185  0.00  0.00    +0.211 HD
ENDBRANCH   5   8
BRANCH   1  10
ATOM     10  C   UNL     1       1.293  -4.092  -2.281  0.00  0.00    +0.146 C 
BRANCH  10  15
ATOM     11  C   UNL     1       0.524  -0.602  -1.053  0.00  0.00    +0.121 A 
ATOM     12  C   UNL     1       1.087   0.173  -2.056  0.00  0.00    +0.048 A 
ATOM     13  C   UNL     1       1.714  -0.433  -3.127  0.00  0.00    +0.042 A 
ATOM     14  C   UNL     1       1.781  -1.814  -3.200  0.00  0.00    +0.128 A 
ATOM     15  C   UNL     1       1.220  -2.589  -2.200  0.00  0.00    +0.008 A 
ATOM     16  C   UNL     1       0.597  -1.986  -1.124  0.00  0.00    +0.053 A 
ATOM     17  F   UNL     1       2.395  -2.406  -4.248  0.00  0.00    -0.205 F 
BRANCH  11  19
ATOM     18  C   UNL     1      -0.131   1.421   0.009  0.00  0.00    +0.277 C 
ATOM     19  O   UNL     1      -0.094  -0.007   0.002  0.00  0.00    -0.495 OA
ENDBRANCH  11  19
ENDBRANCH  10  15
ENDBRANCH   1  10
BRANCH   5  20
ATOM     20  C   UNL     1       0.120  -4.375  -6.908  0.00  0.00    -0.038 C 
BRANCH  20  21
ATOM     21  N   UNL     1      -0.724  -4.885  -7.997  0.00  0.00    +0.382 N 
ATOM     22  H   UNL     1      -0.535  -5.866  -8.137  0.00  0.00    -0.086 HD
ATOM     23  H   UNL     1      -1.696  -4.761  -7.757  0.00  0.00    -0.086 HD
BRANCH  21  24
ATOM     24  C   UNL     1      -0.426  -4.148  -9.233  0.00  0.00    -0.063 C 
BRANCH  24  25
ATOM     25  C   UNL     1      -1.304  -4.679 -10.367  0.00  0.00    +0.090 C 
BRANCH  25  26
ATOM     26  N   UNL     1      -1.008  -3.944 -11.600  0.00  0.00    -0.286 N 
ATOM     27  C   UNL     1      -1.676  -2.709 -12.036  0.00  0.00    +0.128 C 
ATOM     28  C   UNL     1      -0.989  -2.371 -13.374  0.00  0.00    +0.124 C 
ATOM     29  N   UNL     1      -0.007  -3.452 -13.549  0.00  0.00    -0.298 N 
ATOM     30  C   UNL     1      -0.081  -4.287 -12.504  0.00  0.00    +0.302 C 
ATOM     31  O   UNL     1       0.625  -5.270 -12.389  0.00  0.00    -0.253 OA
ATOM     32  H   UNL     1       0.601  -3.543 -14.299  0.00  0.00    +0.150 HD
ENDBRANCH  25  26
ENDBRANCH  24  25
ENDBRANCH  21  24
ENDBRANCH  20  21
ENDBRANCH   5  20
TORSDOF 9
