REMARK  Name = ZINC09807737
REMARK  6 active torsions:
REMARK  status: ('A' for Active; 'I' for Inactive)
REMARK    1  A    between atoms: C_3  and  C_8
REMARK    2  A    between atoms: C_8  and  C_10
REMARK    3  A    between atoms: C_8  and  N_24
REMARK    4  A    between atoms: C_11  and  O_23
REMARK    5  A    between atoms: C_16  and  C_18
REMARK    6  A    between atoms: C_27  and  C_30
REMARK                            x       y       z     vdW  Elec       q    Type
REMARK                         _______ _______ _______ _____ _____    ______ ____
ROOT
ATOM      1  C   UNL     1       3.672   2.184  -0.021  0.00  0.00    +0.005 C 
ENDROOT
BRANCH   1   2
ATOM      2  C   UNL     1       4.243   2.222   1.373  0.00  0.00    +0.045 A 
ATOM      3  C   UNL     1       4.425   3.272   2.182  0.00  0.00    +0.225 A 
ATOM      4  N   UNL     1       4.966   3.108   3.433  0.00  0.00    -0.173 N 
ATOM      5  C   UNL     1       5.303   1.835   3.804  0.00  0.00    +0.199 A 
ATOM      6  S   UNL     1       4.846   0.876   2.380  0.00  0.00    -0.050 S 
ATOM      7  N   UNL     1       5.799   1.844   5.010  0.00  0.00    -0.197 NA
ATOM      8  C   UNL     1       5.809   3.101   5.475  0.00  0.00    +0.218 A 
ATOM      9  N   UNL     1       5.315   3.903   4.556  0.00  0.00    -0.138 NA
BRANCH   8  10
ATOM     10  C   UNL     1       6.298   3.520   6.805  0.00  0.00    +0.173 A 
ATOM     11  C   UNL     1       6.816   2.701   7.758  0.00  0.00    +0.053 A 
ATOM     12  C   UNL     1       7.150   3.518   8.857  0.00  0.00    +0.042 A 
ATOM     13  C   UNL     1       6.822   4.782   8.524  0.00  0.00    +0.196 A 
ATOM     14  O   UNL     1       6.312   4.780   7.281  0.00  0.00    -0.460 OA
ENDBRANCH   8  10
BRANCH   3  15
ATOM     15  O   UNL     1       4.072   4.516   1.760  0.00  0.00    -0.492 OA
ATOM     16  H   UNL     1       4.239   5.214   2.408  0.00  0.00    +0.294 HD
ENDBRANCH   3  15
ENDBRANCH   1   2
BRANCH   1  19
ATOM     17  C   UNL     1      -0.017   1.378   0.010  0.00  0.00    +0.002 A 
ATOM     18  C   UNL     1       1.171   2.086   0.002  0.00  0.00    +0.002 A 
ATOM     19  C   UNL     1       2.378   1.412  -0.013  0.00  0.00    -0.055 A 
ATOM     20  C   UNL     1       2.398   0.029  -0.021  0.00  0.00    +0.022 A 
ATOM     21  C   UNL     1       1.210  -0.679  -0.013  0.00  0.00    +0.041 A 
ATOM     22  C   UNL     1       0.002  -0.004   0.002  0.00  0.00    +0.020 A 
ATOM     23 CL   UNL     1       1.234  -2.415  -0.024  0.00  0.00    -0.084 Cl
ENDBRANCH   1  19
BRANCH   1  24
ATOM     24  N   UNL     1       4.627   1.528  -0.924  0.00  0.00    +0.387 N 
ATOM     25  C   UNL     1       5.890   2.277  -0.924  0.00  0.00    -0.077 C 
ATOM     26  C   UNL     1       6.916   1.554  -1.800  0.00  0.00    -0.006 C 
ATOM     27  C   UNL     1       6.378   1.456  -3.231  0.00  0.00    +0.071 C 
ATOM     28  C   UNL     1       5.025   0.739  -3.209  0.00  0.00    -0.006 C 
ATOM     29  C   UNL     1       4.070   1.492  -2.281  0.00  0.00    -0.077 C 
ATOM     30  H   UNL     1       4.797   0.586  -0.606  0.00  0.00    -0.080 HD
BRANCH  27  31
ATOM     31  C   UNL     1       7.348   0.676  -4.081  0.00  0.00    +0.213 C 
ATOM     32  O   UNL     1       8.369   0.241  -3.592  0.00  0.00    -0.276 OA
ATOM     33  N   UNL     1       7.081   0.463  -5.385  0.00  0.00    -0.329 N 
ATOM     34  H   UNL     1       6.264   0.810  -5.776  0.00  0.00    +0.145 HD
ATOM     35  H   UNL     1       7.705  -0.039  -5.932  0.00  0.00    +0.145 HD
ENDBRANCH  27  31
ENDBRANCH   1  24
TORSDOF 6
