REMARK  Name = ZINC06074456
REMARK  12 active torsions:
REMARK  status: ('A' for Active; 'I' for Inactive)
REMARK    1  A    between atoms: C_1  and  C_2
REMARK    2  A    between atoms: C_2  and  C_3
REMARK    3  A    between atoms: C_2  and  C_4
REMARK    4  A    between atoms: C_2  and  N_5
REMARK    5  A    between atoms: C_6  and  C_8
REMARK    6  A    between atoms: C_8  and  C_10
REMARK    7  A    between atoms: C_8  and  N_17
REMARK    8  A    between atoms: N_17  and  C_18
REMARK    9  A    between atoms: C_18  and  C_19
REMARK   10  A    between atoms: C_24  and  C_26
REMARK   11  A    between atoms: C_26  and  N_27
REMARK   12  A    between atoms: C_29  and  C_32
REMARK                            x       y       z     vdW  Elec       q    Type
REMARK                         _______ _______ _______ _____ _____    ______ ____
ROOT
ATOM      1  N   UNL     1       1.415  -2.844   2.143  0.00  0.00    -0.277 N 
ATOM      2  C   UNL     1       0.642  -3.457   3.061  0.00  0.00    +0.240 C 
ATOM      3  O   UNL     1      -0.523  -3.688   2.815  0.00  0.00    -0.273 OA
ENDROOT
BRANCH   1   4
ATOM      4  C   UNL     1       0.849  -2.456   0.849  0.00  0.00    +0.193 C 
BRANCH   4   5
ATOM      5  C   UNL     1       0.725  -3.673  -0.030  0.00  0.00    -0.018 A 
ATOM      6  C   UNL     1       1.709  -4.644  -0.010  0.00  0.00    +0.007 A 
ATOM      7  C   UNL     1       1.594  -5.763  -0.812  0.00  0.00    +0.020 A 
ATOM      8  C   UNL     1       0.498  -5.907  -1.644  0.00  0.00    +0.041 A 
ATOM      9  C   UNL     1      -0.484  -4.933  -1.669  0.00  0.00    +0.020 A 
ATOM     10  C   UNL     1      -0.370  -3.816  -0.862  0.00  0.00    +0.007 A 
ATOM     11 CL   UNL     1       0.355  -7.309  -2.658  0.00  0.00    -0.084 Cl
ENDBRANCH   4   5
BRANCH   4  13
ATOM     12  N   UNL     1       1.562  -1.118  -1.106  0.00  0.00    -0.309 N 
ATOM     13  C   UNL     1       1.753  -1.448   0.187  0.00  0.00    +0.238 C 
ATOM     14  O   UNL     1       2.652  -0.933   0.818  0.00  0.00    -0.273 OA
ATOM     15  H   UNL     1       0.843  -1.530  -1.610  0.00  0.00    +0.149 HD
BRANCH  12  17
ATOM     16  C   UNL     1       3.885  -0.642  -1.705  0.00  0.00    +0.031 C 
ATOM     17  C   UNL     1       2.441  -0.138  -1.749  0.00  0.00    +0.026 C 
ATOM     18  C   UNL     1       2.011   0.053  -3.205  0.00  0.00    +0.031 C 
ATOM     19  C   UNL     1       2.343   1.197  -1.009  0.00  0.00    +0.031 C 
ENDBRANCH  12  17
ENDBRANCH   4  13
ENDBRANCH   1   4
BRANCH   1  20
ATOM     20  C   UNL     1       2.823  -2.566   2.440  0.00  0.00    +0.183 C 
BRANCH  20  21
ATOM     21  C   UNL     1       2.923  -1.314   3.272  0.00  0.00    +0.122 A 
ATOM     22  C   UNL     1       3.027  -1.266   4.612  0.00  0.00    +0.046 A 
ATOM     23  C   UNL     1       3.094   0.100   4.970  0.00  0.00    +0.041 A 
ATOM     24  C   UNL     1       3.026   0.806   3.827  0.00  0.00    +0.195 A 
ATOM     25  O   UNL     1       2.928  -0.056   2.801  0.00  0.00    -0.466 OA
ENDBRANCH  20  21
ENDBRANCH   1  20
BRANCH   2  26
ATOM     26  C   UNL     1       1.225  -3.857   4.392  0.00  0.00    +0.264 C 
BRANCH  26  27
ATOM     27  N   UNL     1       0.190  -4.500   5.205  0.00  0.00    -0.154 N 
ATOM     28  N   UNL     1      -0.602  -3.893   6.020  0.00  0.00    -0.130 NA
ATOM     29  C   UNL     1      -1.392  -4.798   6.564  0.00  0.00    +0.205 A 
ATOM     30  N   UNL     1      -1.035  -5.981   6.045  0.00  0.00    -0.108 NA
ATOM     31  N   UNL     1      -0.068  -5.761   5.221  0.00  0.00    -0.045 NA
BRANCH  29  32
ATOM     32  C   UNL     1      -2.464  -4.555   7.562  0.00  0.00    +0.023 A 
ATOM     33  C   UNL     1      -2.716  -3.262   8.014  0.00  0.00    +0.014 A 
ATOM     34  C   UNL     1      -3.718  -3.039   8.938  0.00  0.00    +0.039 A 
ATOM     35  C   UNL     1      -4.464  -4.101   9.423  0.00  0.00    +0.123 A 
ATOM     36  C   UNL     1      -4.212  -5.389   8.979  0.00  0.00    +0.039 A 
ATOM     37  C   UNL     1      -3.217  -5.620   8.052  0.00  0.00    +0.014 A 
ATOM     38  F   UNL     1      -5.439  -3.879  10.331  0.00  0.00    -0.205 F 
ENDBRANCH  29  32
ENDBRANCH  26  27
ENDBRANCH   2  26
TORSDOF 9
