REMARK  Name = ZINC20182078
REMARK  6 active torsions:
REMARK  status: ('A' for Active; 'I' for Inactive)
REMARK    1  A    between atoms: C_1  and  C_2
REMARK    2  A    between atoms: N_16  and  C_17
REMARK    3  A    between atoms: C_21  and  C_23
REMARK    4  A    between atoms: N_25  and  C_26
REMARK    5  A    between atoms: C_26  and  C_27
REMARK    6  A    between atoms: C_27  and  C_28
REMARK                            x       y       z     vdW  Elec       q    Type
REMARK                         _______ _______ _______ _____ _____    ______ ____
ROOT
ATOM      1  C   UNL     1       1.079   3.404  -0.436  0.00  0.00    +0.042 A 
ATOM      2  C   UNL     1       2.264   4.108  -0.613  0.00  0.00    +0.024 A 
ATOM      3  C   UNL     1       2.235   5.467  -0.866  0.00  0.00    +0.003 A 
ATOM      4  C   UNL     1       1.029   6.135  -0.934  0.00  0.00    +0.013 A 
ATOM      5  C   UNL     1      -0.167   5.438  -0.752  0.00  0.00    +0.038 A 
ATOM      6  C   UNL     1      -0.137   4.066  -0.501  0.00  0.00    +0.036 A 
ENDROOT
BRANCH   1  21
ATOM      7  C   UNL     1       0.576   2.501   2.144  0.00  0.00    +0.079 C 
ATOM      8  C   UNL     1       1.311   1.563   1.186  0.00  0.00    +0.185 C 
ATOM      9  C   UNL     1       0.728   0.131   1.327  0.00  0.00    +0.096 C 
ATOM     10  C   UNL     1       1.426  -0.718   0.251  0.00  0.00    +0.114 C 
ATOM     11  C   UNL     1       2.923  -0.575   0.408  0.00  0.00    +0.015 A 
ATOM     12  C   UNL     1       3.746  -1.577  -0.074  0.00  0.00    +0.009 A 
ATOM     13  C   UNL     1       5.118  -1.468   0.049  0.00  0.00    +0.001 A 
ATOM     14  C   UNL     1       5.670  -0.355   0.657  0.00  0.00    +0.004 A 
ATOM     15  C   UNL     1       4.853   0.645   1.142  0.00  0.00    +0.046 A 
ATOM     16  C   UNL     1       3.470   0.538   1.021  0.00  0.00    +0.128 A 
ATOM     17  O   UNL     1       2.697   1.537   1.518  0.00  0.00    -0.468 OA
ATOM     18  N   UNL     1       1.066  -0.156  -1.061  0.00  0.00    -0.292 N 
ATOM     19  C   UNL     1       0.965   1.175  -1.210  0.00  0.00    +0.310 C 
ATOM     20  O   UNL     1       0.734   1.625  -2.317  0.00  0.00    -0.252 OA
ATOM     21  N   UNL     1       1.113   2.027  -0.185  0.00  0.00    -0.216 N 
ATOM     22  H   UNL     1       0.881  -0.825  -1.914  0.00  0.00    +0.151 HD
ENDBRANCH   1  21
BRANCH   5  23
ATOM     23  C   UNL     1      -1.460   6.151  -0.823  0.00  0.00    +0.244 C 
ATOM     24  O   UNL     1      -2.499   5.542  -0.664  0.00  0.00    -0.270 OA
ATOM     25  N   UNL     1      -1.485   7.477  -1.065  0.00  0.00    -0.311 N 
ATOM     26  H   UNL     1      -0.544   8.028  -1.209  0.00  0.00    +0.149 HD
BRANCH  25  27
ATOM     27  C   UNL     1      -2.767   8.184  -1.135  0.00  0.00    +0.109 C 
BRANCH  27  28
ATOM     28  C   UNL     1      -2.516   9.666  -1.418  0.00  0.00    +0.056 C 
BRANCH  28  29
ATOM     29  C   UNL     1      -3.834  10.394  -1.491  0.00  0.00    -0.021 A 
ATOM     30  C   UNL     1      -4.536  10.666  -2.603  0.00  0.00    +0.087 A 
ATOM     31  N   UNL     1      -5.682  11.339  -2.278  0.00  0.00    -0.360 N 
ATOM     32  H   UNL     1      -6.383  11.645  -3.069  0.00  0.00    +0.165 HD
ATOM     33  C   UNL     1      -5.747  11.521  -0.915  0.00  0.00    +0.047 A 
ATOM     34  C   UNL     1      -4.596  10.932  -0.361  0.00  0.00    +0.003 A 
ATOM     35  C   UNL     1      -4.394  10.960   1.020  0.00  0.00    +0.010 A 
ATOM     36  C   UNL     1      -5.320  11.557   1.828  0.00  0.00    +0.001 A 
ATOM     37  C   UNL     1      -6.459  12.137   1.288  0.00  0.00    +0.002 A 
ATOM     38  C   UNL     1      -6.674  12.127  -0.073  0.00  0.00    +0.026 A 
ENDBRANCH  28  29
ENDBRANCH  27  28
ENDBRANCH  25  27
ENDBRANCH   5  23
TORSDOF 5
