REMARK  Name = ZINC59364507
REMARK  7 active torsions:
REMARK  status: ('A' for Active; 'I' for Inactive)
REMARK    1  A    between atoms: C_1  and  C_2
REMARK    2  A    between atoms: C_2  and  C_4
REMARK    3  A    between atoms: C_2  and  N_27
REMARK    4  A    between atoms: N_6  and  N_7
REMARK    5  A    between atoms: C_8  and  C_10
REMARK    6  A    between atoms: C_12  and  C_20
REMARK    7  A    between atoms: C_28  and  C_30
REMARK                            x       y       z     vdW  Elec       q    Type
REMARK                         _______ _______ _______ _____ _____    ______ ____
ROOT
ATOM      1  N   UNL     1       2.704  -0.645   2.549  0.00  0.00    -0.230 N 
ATOM      2  C   UNL     1       3.984  -0.283   2.764  0.00  0.00    +0.261 C 
ATOM      3  O   UNL     1       4.551   0.445   1.973  0.00  0.00    -0.269 OA
ATOM      4  H   UNL     1       2.251  -1.226   3.180  0.00  0.00    +0.173 HD
ENDROOT
BRANCH   2   5
ATOM      5  C   UNL     1       4.699  -0.773   3.962  0.00  0.00    +0.049 A 
ATOM      6  C   UNL     1       4.041  -1.504   4.938  0.00  0.00    +0.042 A 
ATOM      7  C   UNL     1       4.752  -1.953   6.062  0.00  0.00    +0.074 A 
ATOM      8  N   UNL     1       6.036  -1.697   6.216  0.00  0.00    -0.247 NA
ATOM      9  C   UNL     1       6.726  -0.999   5.312  0.00  0.00    +0.072 A 
ATOM     10  C   UNL     1       6.083  -0.515   4.145  0.00  0.00    +0.013 A 
ATOM     11  C   UNL     1       6.818   0.211   3.199  0.00  0.00    +0.011 A 
ATOM     12  C   UNL     1       8.145   0.441   3.407  0.00  0.00    +0.001 A 
ATOM     13  C   UNL     1       8.782  -0.038   4.550  0.00  0.00    +0.002 A 
ATOM     14  C   UNL     1       8.097  -0.737   5.495  0.00  0.00    +0.028 A 
BRANCH   7  15
ATOM     15  C   UNL     1       4.041  -2.734   7.103  0.00  0.00    +0.019 A 
ATOM     16  C   UNL     1       2.684  -3.020   6.958  0.00  0.00    +0.011 A 
ATOM     17  C   UNL     1       2.027  -3.747   7.930  0.00  0.00    +0.001 A 
ATOM     18  C   UNL     1       2.712  -4.192   9.047  0.00  0.00    +0.001 A 
ATOM     19  C   UNL     1       4.058  -3.911   9.198  0.00  0.00    +0.020 A 
ATOM     20  C   UNL     1       4.728  -3.190   8.228  0.00  0.00    +0.050 A 
ATOM     21 CL   UNL     1       6.419  -2.845   8.414  0.00  0.00    -0.083 Cl
ENDBRANCH   7  15
ENDBRANCH   2   5
BRANCH   1  24
ATOM     22  C   UNL     1       0.746  -0.542   1.198  0.00  0.00    +0.249 C 
ATOM     23  O   UNL     1       0.180  -1.269   1.988  0.00  0.00    -0.272 OA
ATOM     24  N   UNL     1       2.026  -0.181   1.413  0.00  0.00    -0.233 N 
ATOM     25  H   UNL     1       2.478   0.401   0.782  0.00  0.00    +0.173 HD
BRANCH  22  27
ATOM     26  C   UNL     1      -0.030   1.486   0.001  0.00  0.00    +0.038 C 
ATOM     27  C   UNL     1       0.017  -0.043  -0.022  0.00  0.00    +0.158 C 
BRANCH  27  28
ATOM     28  N   UNL     1      -1.349  -0.572  -0.026  0.00  0.00    -0.300 N 
ATOM     29  C   UNL     1      -2.018  -0.704  -1.189  0.00  0.00    +0.248 C 
ATOM     30  O   UNL     1      -1.487  -0.382  -2.235  0.00  0.00    -0.270 OA
ATOM     31  H   UNL     1      -1.772  -0.829   0.808  0.00  0.00    +0.150 HD
BRANCH  29  32
ATOM     32  C   UNL     1      -3.392  -1.237  -1.193  0.00  0.00    +0.074 A 
ATOM     33  C   UNL     1      -4.258  -1.451  -2.361  0.00  0.00    +0.054 A 
ATOM     34  C   UNL     1      -5.408  -1.948  -1.881  0.00  0.00    +0.195 A 
ATOM     35  O   UNL     1      -5.318  -2.054  -0.546  0.00  0.00    -0.470 OA
ATOM     36  C   UNL     1      -4.123  -1.640  -0.115  0.00  0.00    +0.207 A 
ENDBRANCH  29  32
ENDBRANCH  27  28
ENDBRANCH  22  27
ENDBRANCH   1  24
TORSDOF 6
