REMARK  Name = ZINC64035082
REMARK  8 active torsions:
REMARK  status: ('A' for Active; 'I' for Inactive)
REMARK    1  A    between atoms: C_1  and  C_2
REMARK    2  A    between atoms: C_5  and  C_9
REMARK    3  A    between atoms: C_6  and  C_8
REMARK    4  A    between atoms: C_11  and  C_14
REMARK    5  A    between atoms: N_16  and  C_17
REMARK    6  A    between atoms: N_16  and  C_18
REMARK    7  A    between atoms: C_18  and  C_19
REMARK    8  A    between atoms: C_24  and  O_25
REMARK                            x       y       z     vdW  Elec       q    Type
REMARK                         _______ _______ _______ _____ _____    ______ ____
ROOT
ATOM      1  C   UNL     1       0.900  -4.403  -0.217  0.00  0.00    +0.109 A 
ATOM      2  N   UNL     1       0.611  -5.169  -1.253  0.00  0.00    -0.234 NA
ATOM      3  C   UNL     1       0.400  -6.461  -1.044  0.00  0.00    +0.133 A 
ATOM      4  C   UNL     1       0.489  -6.952   0.232  0.00  0.00    +0.080 A 
ATOM      5  S   UNL     1       0.878  -5.580   1.124  0.00  0.00    -0.075 S 
ENDROOT
BRANCH   1  10
ATOM      6  C   UNL     1       1.974   1.249  -0.069  0.00  0.00    +0.044 C 
ATOM      7  C   UNL     1       1.693  -0.231  -0.108  0.00  0.00    -0.050 A 
ATOM      8  C   UNL     1       0.809  -0.788   0.799  0.00  0.00    +0.004 A 
ATOM      9  C   UNL     1       0.547  -2.142   0.769  0.00  0.00    +0.011 A 
ATOM     10  C   UNL     1       1.176  -2.950  -0.179  0.00  0.00    +0.010 A 
ATOM     11  C   UNL     1       2.065  -2.382  -1.091  0.00  0.00    -0.041 A 
ATOM     12  C   UNL     1       2.315  -1.025  -1.054  0.00  0.00    +0.007 A 
ATOM     13  C   UNL     1       2.748  -3.247  -2.119  0.00  0.00    +0.044 C 
ENDBRANCH   1  10
BRANCH   3  14
ATOM     14  C   UNL     1       0.075  -7.356  -2.168  0.00  0.00    +0.266 C 
ATOM     15  O   UNL     1      -0.001  -8.557  -1.987  0.00  0.00    -0.268 OA
ATOM     16  N   UNL     1      -0.138  -6.845  -3.397  0.00  0.00    -0.295 N 
ATOM     17  C   UNL     1      -0.170  -5.393  -3.591  0.00  0.00    +0.132 C 
BRANCH  16  18
ATOM     18  C   UNL     1      -0.339  -7.741  -4.538  0.00  0.00    +0.146 C 
BRANCH  18  19
ATOM     19  C   UNL     1      -1.807  -8.046  -4.686  0.00  0.00    +0.011 A 
ATOM     20  C   UNL     1      -2.319  -9.235  -4.203  0.00  0.00    +0.009 A 
ATOM     21  C   UNL     1      -3.666  -9.515  -4.338  0.00  0.00    +0.001 A 
ATOM     22  C   UNL     1      -4.505  -8.607  -4.956  0.00  0.00    +0.004 A 
ATOM     23  C   UNL     1      -3.999  -7.416  -5.441  0.00  0.00    +0.046 A 
ATOM     24  C   UNL     1      -2.648  -7.130  -5.301  0.00  0.00    +0.122 A 
BRANCH  24  25
ATOM     25  O   UNL     1      -2.149  -5.957  -5.772  0.00  0.00    -0.506 OA
ATOM     26  H   UNL     1      -1.846  -5.998  -6.689  0.00  0.00    +0.292 HD
ENDBRANCH  24  25
ENDBRANCH  18  19
ENDBRANCH  16  18
ENDBRANCH   3  14
TORSDOF 5
