REMARK  Name = ZINC65266635
REMARK  5 active torsions:
REMARK  status: ('A' for Active; 'I' for Inactive)
REMARK    1  A    between atoms: C_1  and  C_2
REMARK    2  A    between atoms: C_2  and  C_3
REMARK    3  A    between atoms: C_8  and  N_9
REMARK    4  A    between atoms: C_20  and  N_22
REMARK    5  A    between atoms: C_23  and  C_25
REMARK                            x       y       z     vdW  Elec       q    Type
REMARK                         _______ _______ _______ _____ _____    ______ ____
ROOT
ATOM      1  N   UNL     1       2.841  -0.288  -0.124  0.00  0.00    -0.269 N 
ATOM      2  C   UNL     1       4.173  -0.492  -0.099  0.00  0.00    +0.307 C 
ATOM      3  O   UNL     1       4.747  -0.887  -1.095  0.00  0.00    -0.252 OA
ATOM      4  N   UNL     1       4.869  -0.258   1.032  0.00  0.00    -0.282 N 
ATOM      5  C   UNL     1       4.324   0.216   2.321  0.00  0.00    +0.115 C 
ATOM      6  C   UNL     1       5.558   0.336   3.269  0.00  0.00    +0.028 C 
ATOM      7  C   UNL     1       6.652   0.747   2.217  0.00  0.00    +0.029 C 
ATOM      8  C   UNL     1       6.338  -0.432   1.226  0.00  0.00    +0.080 C 
ATOM      9  C   UNL     1       6.467  -1.659   2.178  0.00  0.00    +0.045 C 
ATOM     10  C   UNL     1       5.954  -1.145   3.561  0.00  0.00    +0.080 C 
ATOM     11  H   UNL     1       2.393   0.088   0.649  0.00  0.00    +0.156 HD
ENDROOT
BRANCH   1  17
ATOM     12  C   UNL     1       0.812  -1.110  -1.145  0.00  0.00    -0.026 A 
ATOM     13  C   UNL     1       0.086  -1.430  -2.275  0.00  0.00    +0.005 A 
ATOM     14  C   UNL     1       0.647  -1.266  -3.528  0.00  0.00    +0.000 A 
ATOM     15  C   UNL     1       1.937  -0.782  -3.654  0.00  0.00    +0.002 A 
ATOM     16  C   UNL     1       2.668  -0.461  -2.528  0.00  0.00    +0.023 A 
ATOM     17  C   UNL     1       2.105  -0.618  -1.268  0.00  0.00    +0.038 A 
BRANCH  12  19
ATOM     18  C   UNL     1      -0.416   0.034   0.680  0.00  0.00    +0.009 C 
ATOM     19  C   UNL     1       0.200  -1.289   0.221  0.00  0.00    +0.033 C 
ENDBRANCH  12  19
ENDBRANCH   1  17
BRANCH  10  20
ATOM     20  N   UNL     1       4.788  -1.908   4.012  0.00  0.00    -0.308 N 
ATOM     21  C   UNL     1       4.379  -1.819   5.293  0.00  0.00    +0.244 C 
ATOM     22  O   UNL     1       4.977  -1.106   6.074  0.00  0.00    -0.270 OA
ATOM     23  H   UNL     1       4.310  -2.478   3.389  0.00  0.00    +0.149 HD
BRANCH  21  24
ATOM     24  C   UNL     1       3.202  -2.590   5.748  0.00  0.00    +0.037 A 
ATOM     25  C   UNL     1       2.516  -3.415   4.855  0.00  0.00    +0.013 A 
ATOM     26  C   UNL     1       1.419  -4.131   5.286  0.00  0.00    +0.001 A 
ATOM     27  C   UNL     1       0.998  -4.033   6.601  0.00  0.00    +0.000 A 
ATOM     28  C   UNL     1       1.673  -3.217   7.491  0.00  0.00    +0.001 A 
ATOM     29  C   UNL     1       2.775  -2.500   7.074  0.00  0.00    +0.013 A 
ENDBRANCH  21  24
ENDBRANCH  10  20
TORSDOF 4
