REMARK  Name = ZINC39673767
REMARK  9 active torsions:
REMARK  status: ('A' for Active; 'I' for Inactive)
REMARK    1  A    between atoms: C_1  and  C_2
REMARK    2  A    between atoms: C_2  and  C_3
REMARK    3  A    between atoms: C_3  and  C_4
REMARK    4  A    between atoms: C_4  and  C_6
REMARK    5  A    between atoms: C_4  and  N_7
REMARK    6  A    between atoms: C_8  and  C_10
REMARK    7  A    between atoms: C_21  and  C_23
REMARK    8  A    between atoms: C_28  and  O_29
REMARK    9  A    between atoms: O_29  and  C_30
REMARK                            x       y       z     vdW  Elec       q    Type
REMARK                         _______ _______ _______ _____ _____    ______ ____
ROOT
ATOM      1  C   UNL     1       0.130  -4.418   3.034  0.00  0.00    +0.100 C 
ATOM      2  C   UNL     1       1.394  -3.541   3.181  0.00  0.00    +0.121 C 
ATOM      3  N   UNL     1       2.451  -4.480   3.624  0.00  0.00    -0.296 N 
ATOM      4  C   UNL     1       2.197  -5.716   2.846  0.00  0.00    +0.115 C 
ATOM      5  C   UNL     1       0.661  -5.844   2.814  0.00  0.00    -0.004 C 
ATOM      6  C   UNL     1       0.185  -6.764   3.934  0.00  0.00    -0.010 C 
ATOM      7  C   UNL     1       0.679  -8.188   3.663  0.00  0.00    -0.082 C 
ATOM      8  N   UNL     1       0.161  -8.649   2.370  0.00  0.00    +0.379 N 
ATOM      9  C   UNL     1       0.698  -7.815   1.288  0.00  0.00    -0.082 C 
ATOM     10  C   UNL     1       0.205  -6.375   1.459  0.00  0.00    -0.010 C 
ATOM     11  C   UNL     1       3.424  -4.260   4.531  0.00  0.00    +0.252 C 
ATOM     12  O   UNL     1       4.279  -5.102   4.721  0.00  0.00    -0.270 OA
ATOM     13  H   UNL     1       0.437  -9.609   2.221  0.00  0.00    -0.086 HD
ATOM     14  H   UNL     1      -0.846  -8.589   2.372  0.00  0.00    -0.086 HD
ENDROOT
BRANCH  11  15
ATOM     15  C   UNL     1       3.450  -2.997   5.293  0.00  0.00    +0.099 A 
ATOM     16  C   UNL     1       3.038  -1.798   4.699  0.00  0.00    +0.020 A 
ATOM     17  C   UNL     1       3.081  -0.641   5.457  0.00  0.00    +0.021 A 
ATOM     18  C   UNL     1       3.525  -0.701   6.766  0.00  0.00    +0.114 A 
ATOM     19  N   UNL     1       3.908  -1.842   7.306  0.00  0.00    -0.220 NA
ATOM     20  C   UNL     1       3.882  -2.977   6.628  0.00  0.00    +0.233 A 
BRANCH  20  21
ATOM     21  O   UNL     1       4.279  -4.126   7.224  0.00  0.00    -0.437 OA
BRANCH  21  22
ATOM     22  C   UNL     1       4.781  -4.051   8.485  0.00  0.00    +0.130 A 
ATOM     23  C   UNL     1       3.923  -3.929   9.568  0.00  0.00    +0.048 A 
ATOM     24  C   UNL     1       4.435  -3.853  10.849  0.00  0.00    +0.023 A 
ATOM     25  C   UNL     1       5.803  -3.897  11.051  0.00  0.00    +0.041 A 
ATOM     26  C   UNL     1       6.661  -4.018   9.972  0.00  0.00    +0.023 A 
ATOM     27  C   UNL     1       6.152  -4.101   8.691  0.00  0.00    +0.048 A 
ATOM     28 CL   UNL     1       6.444  -3.801  12.662  0.00  0.00    -0.084 Cl
ENDBRANCH  21  22
ENDBRANCH  20  21
ENDBRANCH  11  15
BRANCH   1  30
ATOM     29  N   UNL     1      -2.014  -4.182   1.824  0.00  0.00    -0.312 N 
ATOM     30  C   UNL     1      -0.683  -3.972   1.847  0.00  0.00    +0.218 C 
ATOM     31  O   UNL     1      -0.140  -3.423   0.911  0.00  0.00    -0.275 OA
ATOM     32  H   UNL     1      -2.449  -4.621   2.572  0.00  0.00    +0.149 HD
BRANCH  29  33
ATOM     33  C   UNL     1      -2.805  -3.749   0.669  0.00  0.00    +0.070 C 
ATOM     34  C   UNL     1      -2.763  -4.830  -0.413  0.00  0.00    +0.028 C 
BRANCH  33  35
ATOM     35  C   UNL     1      -4.254  -3.515   1.101  0.00  0.00    +0.022 C 
BRANCH  35  37
ATOM     36  C   UNL     1      -5.758  -2.116   2.523  0.00  0.00    +0.004 C 
ATOM     37  C   UNL     1      -4.309  -2.349   2.091  0.00  0.00    -0.002 C 
ENDBRANCH  35  37
ENDBRANCH  33  35
ENDBRANCH  29  33
ENDBRANCH   1  30
TORSDOF 7
