REMARK  Name = ZINC13151504
REMARK  8 active torsions:
REMARK  status: ('A' for Active; 'I' for Inactive)
REMARK    1  A    between atoms: C_1  and  C_2
REMARK    2  A    between atoms: C_4  and  C_16
REMARK    3  A    between atoms: C_5  and  C_15
REMARK    4  A    between atoms: N_6  and  C_7
REMARK    5  A    between atoms: N_17  and  N_18
REMARK    6  A    between atoms: C_19  and  C_21
REMARK    7  A    between atoms: C_21  and  C_22
REMARK    8  A    between atoms: N_24  and  C_25
REMARK                            x       y       z     vdW  Elec       q    Type
REMARK                         _______ _______ _______ _____ _____    ______ ____
ROOT
ATOM      1  C   UNL     1       2.854  -5.296  -0.150  0.00  0.00    +0.140 C 
ATOM      2  N   UNL     1       1.862  -4.478  -0.326  0.00  0.00    -0.188 NA
ENDROOT
BRANCH   1   6
ATOM      3  C   UNL     1       6.899  -2.193   0.095  0.00  0.00    +0.064 C 
ATOM      4  C   UNL     1       6.012  -3.403  -0.049  0.00  0.00    +0.022 A 
ATOM      5  C   UNL     1       4.670  -3.405   0.045  0.00  0.00    +0.032 A 
ATOM      6  C   UNL     1       4.238  -4.791  -0.162  0.00  0.00    +0.016 A 
ATOM      7  C   UNL     1       5.375  -5.520  -0.361  0.00  0.00    +0.030 A 
ATOM      8  N   UNL     1       6.440  -4.676  -0.297  0.00  0.00    -0.317 N 
ATOM      9  C   UNL     1       5.439  -7.005  -0.611  0.00  0.00    +0.064 C 
BRANCH   8  10
ATOM     10  C   UNL     1       7.780  -5.057  -0.457  0.00  0.00    +0.048 A 
ATOM     11  C   UNL     1       8.665  -4.948   0.607  0.00  0.00    +0.027 A 
ATOM     12  C   UNL     1       9.984  -5.324   0.448  0.00  0.00    +0.023 A 
ATOM     13  C   UNL     1      10.425  -5.810  -0.771  0.00  0.00    +0.059 A 
ATOM     14  C   UNL     1       9.544  -5.921  -1.833  0.00  0.00    +0.061 A 
ATOM     15  C   UNL     1       8.221  -5.550  -1.677  0.00  0.00    +0.047 A 
ATOM     16 CL   UNL     1      10.099  -6.531  -3.361  0.00  0.00    -0.082 Cl
ATOM     17 CL   UNL     1      12.084  -6.282  -0.967  0.00  0.00    -0.082 Cl
ENDBRANCH   8  10
ENDBRANCH   1   6
BRANCH   2  18
ATOM     18  N   UNL     1       2.106  -3.157  -0.724  0.00  0.00    -0.207 N 
ATOM     19  C   UNL     1       1.090  -2.275  -0.794  0.00  0.00    +0.241 C 
ATOM     20  O   UNL     1      -0.037  -2.625  -0.512  0.00  0.00    -0.274 OA
ATOM     21  H   UNL     1       3.007  -2.877  -0.950  0.00  0.00    +0.177 HD
BRANCH  19  22
ATOM     22  C   UNL     1       1.353  -0.854  -1.223  0.00  0.00    +0.193 C 
BRANCH  22  23
ATOM     23  C   UNL     1       0.059  -0.081  -1.218  0.00  0.00    +0.222 C 
ATOM     24  O   UNL     1      -0.974  -0.629  -0.897  0.00  0.00    -0.275 OA
ATOM     25  N   UNL     1       0.051   1.221  -1.569  0.00  0.00    -0.312 N 
ATOM     26  H   UNL     1       0.878   1.659  -1.825  0.00  0.00    +0.149 HD
BRANCH  25  27
ATOM     27  C   UNL     1      -1.207   1.971  -1.569  0.00  0.00    +0.073 C 
ATOM     28  C   UNL     1      -1.927   1.758  -2.902  0.00  0.00    +0.022 C 
ATOM     29  C   UNL     1      -3.241   2.542  -2.903  0.00  0.00    +0.002 C 
ATOM     30  C   UNL     1      -2.946   4.032  -2.715  0.00  0.00    +0.000 C 
ATOM     31  C   UNL     1      -2.226   4.245  -1.382  0.00  0.00    +0.002 C 
ATOM     32  C   UNL     1      -0.912   3.461  -1.381  0.00  0.00    +0.022 C 
ENDBRANCH  25  27
ENDBRANCH  22  23
ENDBRANCH  19  22
ENDBRANCH   2  18
TORSDOF 6
