REMARK  Name = ZINC39746387
REMARK  10 active torsions:
REMARK  status: ('A' for Active; 'I' for Inactive)
REMARK    1  A    between atoms: C_1  and  C_2
REMARK    2  A    between atoms: C_6  and  N_12
REMARK    3  A    between atoms: C_9  and  C_11
REMARK    4  A    between atoms: C_13  and  C_15
REMARK    5  A    between atoms: C_15  and  O_16
REMARK    6  A    between atoms: O_16  and  C_17
REMARK    7  A    between atoms: C_17  and  C_19
REMARK    8  A    between atoms: C_19  and  C_20
REMARK    9  A    between atoms: C_20  and  C_25
REMARK   10  A    between atoms: C_25  and  C_26
REMARK                            x       y       z     vdW  Elec       q    Type
REMARK                         _______ _______ _______ _____ _____    ______ ____
ROOT
ATOM      1  O   UNL     1      -6.090  -4.933   2.936  0.00  0.00    -0.455 OA
ENDROOT
BRANCH   1   2
ATOM      2  C   UNL     1      -6.752  -5.437   3.989  0.00  0.00    +0.308 C 
ATOM      3  O   UNL     1      -6.418  -5.138   5.112  0.00  0.00    -0.251 OA
BRANCH   2   4
ATOM      4  C   UNL     1      -7.912  -6.375   3.773  0.00  0.00    +0.127 C 
BRANCH   4   5
ATOM      5  C   UNL     1      -8.485  -6.798   5.127  0.00  0.00    -0.017 C 
ATOM      6  C   UNL     1      -9.031  -5.567   5.878  0.00  0.00    +0.007 C 
ATOM      7  C   UNL     1      -8.678  -5.839   7.361  0.00  0.00    +0.001 C 
ATOM      8  C   UNL     1      -7.281  -6.501   7.263  0.00  0.00    +0.001 C 
ATOM      9  C   UNL     1      -7.372  -7.392   6.008  0.00  0.00    +0.007 C 
BRANCH   5  10
ATOM     10  C   UNL     1      -9.599  -7.827   4.925  0.00  0.00    +0.041 C 
BRANCH  10  11
ATOM     11  C   UNL     1     -10.653  -7.258   3.973  0.00  0.00    +0.134 C 
ATOM     12  N   UNL     1     -11.829  -8.136   3.900  0.00  0.00    -0.331 N 
ATOM     13  C   UNL     1     -12.137  -8.699   2.662  0.00  0.00    +0.042 A 
ATOM     14  C   UNL     1     -13.218  -9.559   2.401  0.00  0.00    +0.024 A 
ATOM     15  C   UNL     1     -13.438 -10.065   1.141  0.00  0.00    +0.002 A 
ATOM     16  C   UNL     1     -12.603  -9.744   0.087  0.00  0.00    +0.001 A 
ATOM     17  C   UNL     1     -11.530  -8.899   0.315  0.00  0.00    +0.016 A 
ATOM     18  C   UNL     1     -11.311  -8.393   1.576  0.00  0.00    +0.030 A 
ATOM     19  S   UNL     1     -10.065  -7.304   2.232  0.00  0.00    -0.101 S 
ATOM     20  H   UNL     1     -12.370  -8.317   4.684  0.00  0.00    +0.147 HD
ENDBRANCH  10  11
ENDBRANCH   5  10
ENDBRANCH   4   5
ENDBRANCH   2   4
ENDBRANCH   1   2
BRANCH   1  21
ATOM     21  C   UNL     1      -5.001  -4.051   3.215  0.00  0.00    +0.327 C 
BRANCH  21  23
ATOM     22  N   UNL     1      -3.333  -2.745   1.938  0.00  0.00    -0.283 N 
ATOM     23  C   UNL     1      -4.384  -3.590   1.920  0.00  0.00    +0.253 C 
ATOM     24  O   UNL     1      -4.832  -3.978   0.862  0.00  0.00    -0.272 OA
ATOM     25  H   UNL     1      -2.975  -2.434   2.784  0.00  0.00    +0.152 HD
BRANCH  22  30
ATOM     26  C   UNL     1       0.853   0.733   0.342  0.00  0.00    +0.030 C 
ATOM     27  C   UNL     1       0.665  -0.780   0.214  0.00  0.00    +0.099 C 
ATOM     28  C   UNL     1      -0.802  -1.111   0.251  0.00  0.00    -0.011 C 
ATOM     29  C   UNL     1      -1.244  -2.254   0.804  0.00  0.00    +0.065 C 
ATOM     30  C   UNL     1      -2.733  -2.297   0.679  0.00  0.00    +0.243 C 
ATOM     31  O   UNL     1      -3.140  -0.943   0.385  0.00  0.00    -0.347 OA
ATOM     32  C   UNL     1      -1.989  -0.350  -0.255  0.00  0.00    +0.146 C 
ATOM     33  C   UNL     1      -2.098  -0.493  -1.775  0.00  0.00    +0.043 C 
ATOM     34  C   UNL     1      -0.287  -3.198   1.404  0.00  0.00    +0.258 C 
ATOM     35  O   UNL     1      -0.623  -4.304   1.782  0.00  0.00    -0.269 OA
ATOM     36  N   UNL     1       0.992  -2.758   1.508  0.00  0.00    -0.247 N 
ATOM     37  N   UNL     1       1.334  -1.456   1.333  0.00  0.00    -0.233 NA
ATOM     38  H   UNL     1       1.690  -3.399   1.714  0.00  0.00    +0.169 HD
ATOM     39  H   UNL     1       2.336  -1.348   1.274  0.00  0.00    +0.145 HD
ENDBRANCH  22  30
ENDBRANCH  21  23
ENDBRANCH   1  21
TORSDOF 8
