REMARK  Name = ZINC67043785
REMARK  6 active torsions:
REMARK  status: ('A' for Active; 'I' for Inactive)
REMARK    1  A    between atoms: C_4  and  O_7
REMARK    2  A    between atoms: O_7  and  C_8
REMARK    3  A    between atoms: N_10  and  C_11
REMARK    4  A    between atoms: N_19  and  C_20
REMARK    5  A    between atoms: C_20  and  C_21
REMARK    6  A    between atoms: C_25  and  C_27
REMARK                            x       y       z     vdW  Elec       q    Type
REMARK                         _______ _______ _______ _____ _____    ______ ____
ROOT
ATOM      1  C   UNL     1       4.685  -4.125   0.243  0.00  0.00    +0.079 C 
ATOM      2  C   UNL     1       4.589  -4.747  -1.152  0.00  0.00    +0.041 C 
ATOM      3  C   UNL     1       4.533  -6.272  -1.025  0.00  0.00    +0.111 C 
ATOM      4  N   UNL     1       5.691  -6.724  -0.241  0.00  0.00    -0.286 N 
ATOM      5  C   UNL     1       5.929  -6.124   1.079  0.00  0.00    +0.111 C 
ATOM      6  C   UNL     1       5.969  -4.600   0.928  0.00  0.00    +0.041 C 
ATOM      7  C   UNL     1       6.519  -7.671  -0.725  0.00  0.00    +0.302 C 
ATOM      8  O   UNL     1       6.373  -8.086  -1.858  0.00  0.00    -0.253 OA
ATOM      9  N   UNL     1       7.510  -8.158   0.049  0.00  0.00    -0.295 N 
ATOM     10  H   UNL     1       7.673  -7.777   0.926  0.00  0.00    +0.151 HD
ENDROOT
BRANCH   1  13
ATOM     11  C   UNL     1       3.548  -1.980   0.041  0.00  0.00    +0.406 C 
ATOM     12  O   UNL     1       2.488  -2.573   0.060  0.00  0.00    -0.226 OA
ATOM     13  N   UNL     1       4.705  -2.665   0.127  0.00  0.00    -0.278 N 
ATOM     14  H   UNL     1       5.552  -2.192   0.112  0.00  0.00    +0.152 HD
BRANCH  11  15
ATOM     15  O   UNL     1       3.567  -0.637  -0.065  0.00  0.00    -0.412 OA
BRANCH  15  19
ATOM     16  C   UNL     1      -0.041   1.363   0.009  0.00  0.00    +0.000 A 
ATOM     17  C   UNL     1       0.399   0.691   1.135  0.00  0.00    +0.004 A 
ATOM     18  C   UNL     1       1.607   0.020   1.112  0.00  0.00    +0.046 A 
ATOM     19  C   UNL     1       2.378   0.021  -0.041  0.00  0.00    +0.133 A 
ATOM     20  C   UNL     1       1.934   0.696  -1.169  0.00  0.00    +0.046 A 
ATOM     21  C   UNL     1       0.726   1.366  -1.141  0.00  0.00    +0.004 A 
ENDBRANCH  15  19
ENDBRANCH  11  15
ENDBRANCH   1  13
BRANCH   9  22
ATOM     22  C   UNL     1       8.342  -9.262  -0.436  0.00  0.00    +0.141 C 
BRANCH  22  23
ATOM     23  C   UNL     1       9.368  -9.615   0.611  0.00  0.00    -0.030 A 
ATOM     24  C   UNL     1      10.600  -8.985   0.610  0.00  0.00    +0.005 A 
ATOM     25  C   UNL     1      11.546  -9.303   1.567  0.00  0.00    +0.001 A 
ATOM     26  C   UNL     1      11.268 -10.251   2.529  0.00  0.00    +0.013 A 
ATOM     27  C   UNL     1      10.027 -10.890   2.536  0.00  0.00    +0.037 A 
ATOM     28  C   UNL     1       9.074 -10.561   1.571  0.00  0.00    +0.018 A 
BRANCH  27  29
ATOM     29  C   UNL     1       9.722 -11.908   3.564  0.00  0.00    +0.242 C 
ATOM     30  O   UNL     1       8.641 -12.463   3.567  0.00  0.00    -0.270 OA
ATOM     31  N   UNL     1      10.643 -12.220   4.497  0.00  0.00    -0.325 N 
ATOM     32  H   UNL     1      11.506 -11.777   4.495  0.00  0.00    +0.145 HD
ATOM     33  H   UNL     1      10.442 -12.888   5.172  0.00  0.00    +0.145 HD
ENDBRANCH  27  29
ENDBRANCH  22  23
ENDBRANCH   9  22
TORSDOF 6
