REMARK  Name = ZINC39688602
REMARK  7 active torsions:
REMARK  status: ('A' for Active; 'I' for Inactive)
REMARK    1  A    between atoms: C_1  and  C_2
REMARK    2  A    between atoms: C_2  and  C_4
REMARK    3  A    between atoms: C_2  and  N_12
REMARK    4  A    between atoms: C_4  and  C_5
REMARK    5  A    between atoms: C_13  and  C_15
REMARK    6  A    between atoms: C_26  and  C_28
REMARK    7  A    between atoms: C_34  and  C_36
REMARK                            x       y       z     vdW  Elec       q    Type
REMARK                         _______ _______ _______ _____ _____    ______ ____
ROOT
ATOM      1  C   UNL     1      -3.468  -1.220  -1.235  0.00  0.00    +0.100 C 
ATOM      2  C   UNL     1      -3.494  -2.703  -0.801  0.00  0.00    +0.121 C 
ATOM      3  N   UNL     1      -4.570  -3.312  -1.618  0.00  0.00    -0.300 N 
ATOM      4  C   UNL     1      -4.423  -2.682  -2.952  0.00  0.00    +0.115 C 
ATOM      5  C   UNL     1      -4.077  -1.210  -2.647  0.00  0.00    -0.004 C 
ATOM      6  C   UNL     1      -3.061  -0.688  -3.658  0.00  0.00    -0.010 C 
ATOM      7  C   UNL     1      -3.709  -0.633  -5.045  0.00  0.00    -0.082 C 
ATOM      8  N   UNL     1      -4.884   0.246  -5.003  0.00  0.00    +0.379 N 
ATOM      9  C   UNL     1      -5.896  -0.313  -4.098  0.00  0.00    -0.082 C 
ATOM     10  C   UNL     1      -5.340  -0.355  -2.672  0.00  0.00    -0.010 C 
ATOM     11  C   UNL     1      -5.477  -4.232  -1.235  0.00  0.00    +0.219 C 
ATOM     12  O   UNL     1      -6.302  -4.637  -2.026  0.00  0.00    -0.275 OA
ATOM     13  H   UNL     1      -4.609   1.159  -4.674  0.00  0.00    -0.086 HD
ATOM     14  H   UNL     1      -5.274   0.329  -5.930  0.00  0.00    -0.086 HD
ENDROOT
BRANCH  11  15
ATOM     15  C   UNL     1      -5.468  -4.758   0.178  0.00  0.00    +0.078 C 
ATOM     16  C   UNL     1      -4.120  -5.423   0.465  0.00  0.00    +0.032 C 
ATOM     17  C   UNL     1      -4.100  -5.925   1.912  0.00  0.00    +0.108 C 
ATOM     18  N   UNL     1      -5.263  -6.799   2.125  0.00  0.00    -0.302 N 
ATOM     19  C   UNL     1      -6.600  -6.288   1.795  0.00  0.00    +0.108 C 
ATOM     20  C   UNL     1      -6.591  -5.782   0.349  0.00  0.00    +0.032 C 
ATOM     21  C   UNL     1      -5.105  -8.045   2.614  0.00  0.00    +0.212 C 
ATOM     22  O   UNL     1      -6.057  -8.792   2.689  0.00  0.00    -0.276 OA
ATOM     23  C   UNL     1      -3.745  -8.509   3.068  0.00  0.00    +0.109 C 
ENDBRANCH  11  15
BRANCH   1  25
ATOM     24  N   UNL     1      -1.809   0.615  -1.211  0.00  0.00    -0.312 N 
ATOM     25  C   UNL     1      -2.050  -0.709  -1.273  0.00  0.00    +0.218 C 
ATOM     26  O   UNL     1      -1.126  -1.490  -1.358  0.00  0.00    -0.275 OA
ATOM     27  H   UNL     1      -2.548   1.240  -1.142  0.00  0.00    +0.149 HD
BRANCH  24  29
ATOM     28  C   UNL     1       0.025   1.245  -2.701  0.00  0.00    +0.028 C 
ATOM     29  C   UNL     1      -0.431   1.112  -1.247  0.00  0.00    +0.074 C 
BRANCH  29  30
ATOM     30  C   UNL     1      -0.364   2.479  -0.564  0.00  0.00    +0.057 C 
BRANCH  30  31
ATOM     31  C   UNL     1      -0.695   2.327   0.899  0.00  0.00    -0.045 A 
ATOM     32  C   UNL     1      -2.006   2.430   1.325  0.00  0.00    +0.006 A 
ATOM     33  C   UNL     1      -2.310   2.290   2.666  0.00  0.00    +0.038 A 
ATOM     34  C   UNL     1      -1.301   2.046   3.582  0.00  0.00    +0.123 A 
ATOM     35  C   UNL     1       0.011   1.943   3.154  0.00  0.00    +0.038 A 
ATOM     36  C   UNL     1       0.313   2.078   1.812  0.00  0.00    +0.006 A 
ATOM     37  F   UNL     1      -1.598   1.910   4.893  0.00  0.00    -0.205 F 
ENDBRANCH  30  31
ENDBRANCH  29  30
ENDBRANCH  24  29
ENDBRANCH   1  25
TORSDOF 5
