REMARK  Name = ZINC33633391
REMARK  13 active torsions:
REMARK  status: ('A' for Active; 'I' for Inactive)
REMARK    1  A    between atoms: C_1  and  C_2
REMARK    2  A    between atoms: C_2  and  C_3
REMARK    3  A    between atoms: C_2  and  C_4
REMARK    4  A    between atoms: C_2  and  C_5
REMARK    5  A    between atoms: C_5  and  C_6
REMARK    6  A    between atoms: C_6  and  C_8
REMARK    7  A    between atoms: C_6  and  N_23
REMARK    8  A    between atoms: C_8  and  N_10
REMARK    9  A    between atoms: C_8  and  O_15
REMARK   10  A    between atoms: O_15  and  C_16
REMARK   11  A    between atoms: N_23  and  C_37
REMARK   12  A    between atoms: N_30  and  C_34
REMARK   13  A    between atoms: C_34  and  C_35
REMARK                            x       y       z     vdW  Elec       q    Type
REMARK                         _______ _______ _______ _____ _____    ______ ____
ROOT
ATOM      1  C   UNL     1      -2.783   0.919   0.820  0.00  0.00    +0.138 C 
ENDROOT
BRANCH   1   2
ATOM      2  N   UNL     1      -1.734   0.444   1.725  0.00  0.00    -0.315 N 
ATOM      3  C   UNL     1      -1.413   1.140   2.765  0.00  0.00    +0.092 C 
ATOM      4  C   UNL     1      -0.372   0.818   3.800  0.00  0.00    +0.089 C 
ATOM      5  C   UNL     1       1.021   0.653   3.175  0.00  0.00    +0.033 C 
ATOM      6  C   UNL     1       1.793  -0.210   4.198  0.00  0.00    +0.003 C 
ATOM      7  C   UNL     1       0.736  -0.962   5.027  0.00  0.00    +0.003 C 
ATOM      8  C   UNL     1      -0.644  -0.531   4.482  0.00  0.00    +0.033 C 
ATOM      9  N   UNL     1      -0.416   1.930   4.744  0.00  0.00    -0.287 N 
ATOM     10  C   UNL     1      -1.373   2.772   4.303  0.00  0.00    +0.139 C 
ATOM     11  S   UNL     1      -1.796   4.229   5.096  0.00  0.00    -0.018 S 
ATOM     12  N   UNL     1      -1.956   2.342   3.174  0.00  0.00    -0.287 N 
ATOM     13  C   UNL     1      -1.048  -0.822   1.451  0.00  0.00    +0.130 C 
ATOM     14  H   UNL     1      -2.759   2.812   2.587  0.00  0.00    +0.155 HD
BRANCH   9  15
ATOM     15  C   UNL     1       0.412   2.096   5.941  0.00  0.00    +0.226 C 
BRANCH  15  16
ATOM     16  C   UNL     1      -0.258   1.469   7.092  0.00  0.00    +0.082 C 
ATOM     17  N   UNL     1      -0.774   0.985   7.981  0.00  0.00    -0.195 NA
ENDBRANCH  15  16
ENDBRANCH   9  15
ENDBRANCH   1   2
BRANCH   1  18
ATOM     18  C   UNL     1      -3.807  -0.195   0.596  0.00  0.00    +0.034 C 
BRANCH  18  20
ATOM     19  C   UNL     1      -5.134   0.840   2.442  0.00  0.00    +0.010 C 
ATOM     20  C   UNL     1      -4.556  -0.469   1.901  0.00  0.00    -0.036 C 
ATOM     21  C   UNL     1      -5.693  -1.459   1.639  0.00  0.00    +0.010 C 
ATOM     22  C   UNL     1      -3.590  -1.063   2.929  0.00  0.00    +0.010 C 
ENDBRANCH  18  20
ENDBRANCH   1  18
BRANCH   1  23
ATOM     23  C   UNL     1      -2.159   1.315  -0.520  0.00  0.00    +0.314 C 
BRANCH  23  24
ATOM     24  N   UNL     1      -1.095   2.296  -0.292  0.00  0.00    -0.211 N 
ATOM     25  C   UNL     1      -1.240   3.590  -0.172  0.00  0.00    +0.223 A 
ATOM     26  N   UNL     1      -0.044   4.144   0.020  0.00  0.00    -0.223 NA
ATOM     27  C   UNL     1       0.878   3.215   0.031  0.00  0.00    +0.245 A 
ATOM     28  N   UNL     1       0.277   2.028  -0.158  0.00  0.00    -0.155 NA
ENDBRANCH  23  24
BRANCH  23  29
ATOM     29  O   UNL     1      -1.611   0.157  -1.152  0.00  0.00    -0.465 OA
BRANCH  29  30
ATOM     30  C   UNL     1      -1.557   0.161  -2.510  0.00  0.00    +0.124 A 
ATOM     31  C   UNL     1      -1.907   1.304  -3.215  0.00  0.00    +0.047 A 
ATOM     32  C   UNL     1      -1.848   1.308  -4.595  0.00  0.00    +0.023 A 
ATOM     33  C   UNL     1      -1.449   0.171  -5.275  0.00  0.00    +0.041 A 
ATOM     34  C   UNL     1      -1.104  -0.971  -4.574  0.00  0.00    +0.023 A 
ATOM     35  C   UNL     1      -1.158  -0.978  -3.193  0.00  0.00    +0.047 A 
ATOM     36 CL   UNL     1      -1.381   0.177  -7.009  0.00  0.00    -0.084 Cl
ENDBRANCH  29  30
ENDBRANCH  23  29
ENDBRANCH   1  23
TORSDOF 9
