REMARK  Name = ZINC44714606
REMARK  7 active torsions:
REMARK  status: ('A' for Active; 'I' for Inactive)
REMARK    1  A    between atoms: C_1  and  C_2
REMARK    2  A    between atoms: C_3  and  C_14
REMARK    3  A    between atoms: C_6  and  C_12
REMARK    4  A    between atoms: C_14  and  C_15
REMARK    5  A    between atoms: C_15  and  N_16
REMARK    6  A    between atoms: C_17  and  C_19
REMARK    7  A    between atoms: C_30  and  C_32
REMARK                            x       y       z     vdW  Elec       q    Type
REMARK                         _______ _______ _______ _____ _____    ______ ____
ROOT
ATOM      1  C   UNL     1       2.607   0.968  -6.442  0.00  0.00    +0.100 C 
ATOM      2  C   UNL     1       2.033  -0.086  -7.416  0.00  0.00    +0.121 C 
ATOM      3  N   UNL     1       2.852   0.053  -8.643  0.00  0.00    -0.297 N 
ATOM      4  C   UNL     1       4.229   0.282  -8.144  0.00  0.00    +0.115 C 
ATOM      5  C   UNL     1       4.048   1.207  -6.923  0.00  0.00    -0.004 C 
ATOM      6  C   UNL     1       4.234   2.664  -7.333  0.00  0.00    -0.010 C 
ATOM      7  C   UNL     1       5.689   2.890  -7.753  0.00  0.00    -0.082 C 
ATOM      8  N   UNL     1       6.580   2.558  -6.635  0.00  0.00    +0.379 N 
ATOM      9  C   UNL     1       6.463   1.132  -6.308  0.00  0.00    -0.082 C 
ATOM     10  C   UNL     1       5.040   0.832  -5.827  0.00  0.00    -0.010 C 
ATOM     11  C   UNL     1       2.438  -0.014  -9.924  0.00  0.00    +0.260 C 
ATOM     12  O   UNL     1       1.256  -0.117 -10.175  0.00  0.00    -0.271 OA
ATOM     13  H   UNL     1       7.533   2.765  -6.894  0.00  0.00    -0.086 HD
ATOM     14  H   UNL     1       6.326   3.108  -5.829  0.00  0.00    -0.086 HD
ENDROOT
BRANCH  11  15
ATOM     15  C   UNL     1       3.444   0.040 -11.045  0.00  0.00    +0.296 C 
ATOM     16  C   UNL     1       4.304  -1.231 -11.029  0.00  0.00    +0.283 C 
ATOM     17  O   UNL     1       5.237  -1.154 -12.113  0.00  0.00    -0.484 OA
ATOM     18  C   UNL     1       4.741  -0.771 -13.321  0.00  0.00    +0.162 A 
ATOM     19  C   UNL     1       5.480  -1.018 -14.469  0.00  0.00    +0.049 A 
ATOM     20  C   UNL     1       4.991  -0.632 -15.703  0.00  0.00    +0.004 A 
ATOM     21  C   UNL     1       3.765   0.001 -15.796  0.00  0.00    +0.004 A 
ATOM     22  C   UNL     1       3.024   0.248 -14.656  0.00  0.00    +0.049 A 
ATOM     23  C   UNL     1       3.508  -0.138 -13.415  0.00  0.00    +0.163 A 
ATOM     24  O   UNL     1       2.763   0.106 -12.302  0.00  0.00    -0.473 OA
ENDBRANCH  11  15
BRANCH   1  26
ATOM     25  N   UNL     1       2.628   1.289  -3.990  0.00  0.00    -0.315 N 
ATOM     26  C   UNL     1       2.605   0.435  -5.032  0.00  0.00    +0.218 C 
ATOM     27  O   UNL     1       2.584  -0.761  -4.836  0.00  0.00    -0.275 OA
ATOM     28  H   UNL     1       2.646   2.246  -4.147  0.00  0.00    +0.149 HD
BRANCH  25  29
ATOM     29  C   UNL     1       2.627   0.772  -2.619  0.00  0.00    +0.109 C 
BRANCH  29  30
ATOM     30  C   UNL     1       2.656   1.941  -1.633  0.00  0.00    +0.056 C 
BRANCH  30  33
ATOM     31  C   UNL     1       5.161   1.247   0.063  0.00  0.00    +0.063 C 
ATOM     32  C   UNL     1       3.732   1.106   0.518  0.00  0.00    +0.017 A 
ATOM     33  C   UNL     1       2.654   1.409  -0.223  0.00  0.00    -0.018 A 
ATOM     34  C   UNL     1       1.476   1.123   0.601  0.00  0.00    +0.004 A 
ATOM     35  C   UNL     1       0.103   1.231   0.394  0.00  0.00    +0.029 A 
ATOM     36  C   UNL     1      -0.772   0.865   1.413  0.00  0.00    +0.052 A 
ATOM     37  C   UNL     1      -0.270   0.394   2.635  0.00  0.00    +0.021 A 
ATOM     38  C   UNL     1       1.074   0.288   2.839  0.00  0.00    +0.027 A 
ATOM     39  C   UNL     1       1.968   0.648   1.832  0.00  0.00    +0.047 A 
ATOM     40  N   UNL     1       3.340   0.646   1.746  0.00  0.00    -0.358 N 
ATOM     41  H   UNL     1       3.942   0.361   2.451  0.00  0.00    +0.166 HD
BRANCH  36  42
ATOM     42  C   UNL     1      -2.186   0.971   1.214  0.00  0.00    +0.099 C 
ATOM     43  N   UNL     1      -3.308   1.055   1.057  0.00  0.00    -0.191 NA
ENDBRANCH  36  42
ENDBRANCH  30  33
ENDBRANCH  29  30
ENDBRANCH  25  29
ENDBRANCH   1  26
TORSDOF 6
