REMARK  Name = ZINC49290675
REMARK  8 active torsions:
REMARK  status: ('A' for Active; 'I' for Inactive)
REMARK    1  A    between atoms: C_1  and  C_2
REMARK    2  A    between atoms: C_2  and  C_4
REMARK    3  A    between atoms: C_2  and  N_7
REMARK    4  A    between atoms: C_4  and  O_5
REMARK    5  A    between atoms: O_5  and  C_6
REMARK    6  A    between atoms: C_8  and  C_10
REMARK    7  A    between atoms: C_10  and  N_11
REMARK    8  A    between atoms: N_11  and  C_12
REMARK                            x       y       z     vdW  Elec       q    Type
REMARK                         _______ _______ _______ _____ _____    ______ ____
ROOT
ATOM      1  N   UNL     1      -3.929  -1.240   2.572  0.00  0.00    -0.333 N 
ATOM      2  H   UNL     1      -3.340  -1.003   3.305  0.00  0.00    +0.147 HD
ENDROOT
BRANCH   1   3
ATOM      3  C   UNL     1      -5.257  -1.596   2.829  0.00  0.00    +0.065 A 
ATOM      4  C   UNL     1      -5.844  -1.263   4.044  0.00  0.00    +0.064 A 
ATOM      5  C   UNL     1      -7.156  -1.617   4.296  0.00  0.00    +0.037 A 
ATOM      6  C   UNL     1      -7.885  -2.301   3.340  0.00  0.00    +0.021 A 
ATOM      7  C   UNL     1      -7.304  -2.635   2.130  0.00  0.00    +0.037 A 
ATOM      8  C   UNL     1      -5.994  -2.279   1.869  0.00  0.00    +0.064 A 
ATOM      9 CL   UNL     1      -5.267  -2.691   0.347  0.00  0.00    -0.082 Cl
ATOM     10 BR   UNL     1      -9.681  -2.783   3.688  0.00  0.00    -0.050 Br
ATOM     11 CL   UNL     1      -4.930  -0.405   5.245  0.00  0.00    -0.082 Cl
ENDBRANCH   1   3
BRANCH   1  12
ATOM     12  C   UNL     1      -3.429  -1.226   1.195  0.00  0.00    +0.197 C 
BRANCH  12  14
ATOM     13  N   UNL     1      -1.394  -0.488  -0.002  0.00  0.00    -0.309 N 
ATOM     14  C   UNL     1      -2.055  -0.607   1.166  0.00  0.00    +0.230 C 
ATOM     15  O   UNL     1      -1.544  -0.217   2.195  0.00  0.00    -0.274 OA
ATOM     16  H   UNL     1      -1.802  -0.800  -0.825  0.00  0.00    +0.149 HD
BRANCH  13  18
ATOM     17  C   UNL     1      -0.186   1.636  -0.115  0.00  0.00    +0.030 C 
ATOM     18  C   UNL     1      -0.058   0.114  -0.030  0.00  0.00    +0.095 C 
BRANCH  18  19
ATOM     19  C   UNL     1       0.709  -0.403  -1.249  0.00  0.00    +0.181 C 
BRANCH  19  20
ATOM     20  O   UNL     1       0.066   0.049  -2.442  0.00  0.00    -0.381 OA
ATOM     21  C   UNL     1       0.706  -0.381  -3.646  0.00  0.00    +0.194 C 
ENDBRANCH  19  20
ENDBRANCH  18  19
ENDBRANCH  13  18
ENDBRANCH  12  14
ENDBRANCH   1  12
TORSDOF 6
