REMARK  Name = ZINC18198863
REMARK  6 active torsions:
REMARK  status: ('A' for Active; 'I' for Inactive)
REMARK    1  A    between atoms: C_1  and  C_2
REMARK    2  A    between atoms: C_5  and  C_9
REMARK    3  A    between atoms: C_7  and  C_8
REMARK    4  A    between atoms: C_14  and  N_23
REMARK    5  A    between atoms: C_18  and  N_22
REMARK    6  A    between atoms: C_19  and  C_20
REMARK                            x       y       z     vdW  Elec       q    Type
REMARK                         _______ _______ _______ _____ _____    ______ ____
ROOT
ATOM      1  C   UNL     1      -1.332   2.114   0.020  0.00  0.00    +0.098 C 
ATOM      2  C   UNL     1      -1.423   2.956   1.265  0.00  0.00    +0.008 A 
ATOM      3  C   UNL     1      -1.705   2.350   2.477  0.00  0.00    +0.010 A 
ATOM      4  C   UNL     1      -1.793   3.105   3.629  0.00  0.00    +0.023 A 
ATOM      5  C   UNL     1      -1.596   4.480   3.575  0.00  0.00    +0.028 A 
ATOM      6  C   UNL     1      -1.312   5.089   2.361  0.00  0.00    +0.069 A 
ATOM      7  C   UNL     1      -1.225   4.327   1.204  0.00  0.00    +0.136 A 
ATOM      8  O   UNL     1      -0.947   4.938   0.026  0.00  0.00    -0.441 OA
ATOM      9  C   UNL     1      -1.232   4.320  -1.133  0.00  0.00    +0.199 C 
ATOM     10  C   UNL     1      -1.426   2.982  -1.203  0.00  0.00    +0.098 C 
ENDROOT
BRANCH   1  15
ATOM     11  C   UNL     1       3.711  -0.707  -0.037  0.00  0.00    +0.044 C 
ATOM     12  C   UNL     1       2.396   0.028  -0.021  0.00  0.00    -0.048 A 
ATOM     13  C   UNL     1       2.377   1.411  -0.015  0.00  0.00    +0.004 A 
ATOM     14  C   UNL     1       1.171   2.085   0.002  0.00  0.00    +0.005 A 
ATOM     15  C   UNL     1      -0.017   1.378   0.010  0.00  0.00    -0.034 A 
ATOM     16  C   UNL     1       0.002  -0.004   0.002  0.00  0.00    +0.008 A 
ATOM     17  C   UNL     1       1.209  -0.679  -0.013  0.00  0.00    -0.047 A 
ATOM     18  C   UNL     1       1.229  -2.186  -0.021  0.00  0.00    +0.044 C 
ENDBRANCH   1  15
BRANCH   9  19
ATOM     19  N   UNL     1      -1.329   5.068  -2.280  0.00  0.00    -0.328 N 
ATOM     20  H   UNL     1      -1.534   4.637  -3.124  0.00  0.00    +0.145 HD
ATOM     21  H   UNL     1      -1.192   6.028  -2.246  0.00  0.00    +0.145 HD
ENDBRANCH   9  19
BRANCH   5  22
ATOM     22  N   UNL     1      -1.684   5.246   4.739  0.00  0.00    -0.358 N 
ATOM     23  H   UNL     1      -1.882   4.819   5.587  0.00  0.00    +0.142 HD
ATOM     24  H   UNL     1      -1.546   6.205   4.700  0.00  0.00    +0.142 HD
ENDBRANCH   5  22
BRANCH  10  25
ATOM     25  C   UNL     1      -1.727   2.382  -2.468  0.00  0.00    +0.101 C 
ATOM     26  N   UNL     1      -1.966   1.906  -3.471  0.00  0.00    -0.191 NA
ENDBRANCH  10  25
TORSDOF 4
