REMARK  Name = ZINC52334730
REMARK  5 active torsions:
REMARK  status: ('A' for Active; 'I' for Inactive)
REMARK    1  A    between atoms: C_1  and  C_2
REMARK    2  A    between atoms: C_2  and  C_4
REMARK    3  A    between atoms: C_2  and  N_10
REMARK    4  A    between atoms: N_10  and  C_11
REMARK    5  A    between atoms: C_16  and  N_17
REMARK                            x       y       z     vdW  Elec       q    Type
REMARK                         _______ _______ _______ _____ _____    ______ ____
ROOT
ATOM      1  C   UNL     1      -0.022  -0.614  -2.406  0.00  0.00    +0.050 A 
ATOM      2  C   UNL     1      -1.371  -0.296  -2.455  0.00  0.00    +0.051 A 
ATOM      3  C   UNL     1      -2.069  -0.432  -3.644  0.00  0.00    +0.078 A 
ATOM      4  C   UNL     1      -1.418  -0.888  -4.789  0.00  0.00    +0.144 A 
ATOM      5  C   UNL     1      -0.071  -1.204  -4.741  0.00  0.00    +0.072 A 
ATOM      6  C   UNL     1       0.631  -1.063  -3.552  0.00  0.00    +0.049 A 
ATOM      7  O   UNL     1      -2.118  -1.018  -5.949  0.00  0.00    -0.481 OA
ATOM      8  C   UNL     1      -3.494  -1.388  -5.832  0.00  0.00    +0.325 C 
ATOM      9  C   UNL     1      -4.156  -0.547  -4.770  0.00  0.00    +0.255 C 
ATOM     10  O   UNL     1      -5.330  -0.259  -4.865  0.00  0.00    -0.272 OA
ATOM     11  N   UNL     1      -3.435  -0.115  -3.712  0.00  0.00    -0.280 N 
ATOM     12  H   UNL     1      -3.855   0.407  -3.011  0.00  0.00    +0.155 HD
ENDROOT
BRANCH   6  13
ATOM     13  N   UNL     1       1.996  -1.378  -3.504  0.00  0.00    -0.356 N 
ATOM     14  H   UNL     1       2.486  -1.283  -2.672  0.00  0.00    +0.142 HD
ATOM     15  H   UNL     1       2.451  -1.691  -4.301  0.00  0.00    +0.142 HD
ENDBRANCH   6  13
BRANCH   1  16
ATOM     16  N   UNL     1       0.688  -0.476  -1.203  0.00  0.00    -0.340 N 
ATOM     17  H   UNL     1       1.632  -0.695  -1.170  0.00  0.00    +0.146 HD
BRANCH  16  19
ATOM     18  C   UNL     1      -0.019   1.526   0.010  0.00  0.00    +0.028 C 
ATOM     19  C   UNL     1       0.002  -0.004   0.002  0.00  0.00    +0.070 C 
BRANCH  19  20
ATOM     20  C   UNL     1       0.742  -0.511   1.242  0.00  0.00    +0.009 C 
ATOM     21  C   UNL     1       2.136   0.118   1.296  0.00  0.00    +0.005 C 
ATOM     22  C   UNL     1       2.876  -0.389   2.536  0.00  0.00    +0.000 C 
ATOM     23  C   UNL     1       2.092  -0.002   3.791  0.00  0.00    +0.000 C 
ATOM     24  C   UNL     1       0.698  -0.630   3.737  0.00  0.00    +0.000 C 
ATOM     25  C   UNL     1      -0.042  -0.124   2.497  0.00  0.00    +0.005 C 
ENDBRANCH  19  20
ENDBRANCH  16  19
ENDBRANCH   1  16
TORSDOF 4
