REMARK  Name = ZINC36574196
REMARK  14 active torsions:
REMARK  status: ('A' for Active; 'I' for Inactive)
REMARK    1  A    between atoms: C_1  and  C_2
REMARK    2  A    between atoms: C_2  and  C_3
REMARK    3  A    between atoms: C_3  and  N_4
REMARK    4  A    between atoms: N_4  and  C_5
REMARK    5  A    between atoms: C_5  and  C_7
REMARK    6  A    between atoms: C_5  and  C_16
REMARK    7  A    between atoms: C_8  and  O_15
REMARK    8  A    between atoms: C_10  and  O_14
REMARK    9  A    between atoms: C_12  and  O_13
REMARK   10  A    between atoms: N_18  and  C_19
REMARK   11  A    between atoms: C_19  and  S_20
REMARK   12  A    between atoms: S_20  and  C_23
REMARK   13  A    between atoms: C_26  and  C_29
REMARK   14  A    between atoms: C_30  and  C_32
REMARK                            x       y       z     vdW  Elec       q    Type
REMARK                         _______ _______ _______ _____ _____    ______ ____
ROOT
ATOM      1  C   UNL     1      -0.138  -2.760  -1.849  0.00  0.00    +0.199 C 
ENDROOT
BRANCH   1   2
ATOM      2  C   UNL     1      -1.520  -2.425  -1.351  0.00  0.00    +0.065 A 
ATOM      3  C   UNL     1      -2.549  -2.209  -2.255  0.00  0.00    +0.129 A 
ATOM      4  C   UNL     1      -3.821  -1.901  -1.797  0.00  0.00    +0.091 A 
ATOM      5  C   UNL     1      -4.065  -1.810  -0.435  0.00  0.00    +0.124 A 
ATOM      6  C   UNL     1      -3.036  -2.027   0.469  0.00  0.00    +0.091 A 
ATOM      7  C   UNL     1      -1.765  -2.339   0.011  0.00  0.00    +0.129 A 
BRANCH   7   8
ATOM      8  O   UNL     1      -0.758  -2.557   0.897  0.00  0.00    -0.506 OA
ATOM      9  H   UNL     1      -0.318  -1.750   1.199  0.00  0.00    +0.292 HD
ENDBRANCH   7   8
BRANCH   5  10
ATOM     10  O   UNL     1      -5.311  -1.507   0.014  0.00  0.00    -0.507 OA
ATOM     11  H   UNL     1      -5.873  -2.279   0.166  0.00  0.00    +0.292 HD
ENDBRANCH   5  10
BRANCH   3  12
ATOM     12  O   UNL     1      -2.311  -2.299  -3.590  0.00  0.00    -0.506 OA
ATOM     13  H   UNL     1      -2.536  -3.158  -3.973  0.00  0.00    +0.292 HD
ENDBRANCH   3  12
ENDBRANCH   1   2
BRANCH   1  14
ATOM     14  C   UNL     1      -0.112  -2.676  -3.353  0.00  0.00    +0.240 C 
ATOM     15  O   UNL     1       0.339  -1.691  -3.898  0.00  0.00    -0.273 OA
ATOM     16  N   UNL     1      -0.589  -3.697  -4.093  0.00  0.00    -0.294 N 
ATOM     17  H   UNL     1      -0.949  -4.485  -3.658  0.00  0.00    +0.150 HD
BRANCH  16  18
ATOM     18  C   UNL     1      -0.564  -3.615  -5.556  0.00  0.00    +0.278 C 
BRANCH  18  19
ATOM     19  S   UNL     1       0.931  -4.431  -6.181  0.00  0.00    +0.013 S 
ATOM     20  O   UNL     1       0.939  -4.415  -7.602  0.00  0.00    -0.168 OA
ATOM     21  O   UNL     1       2.068  -3.999  -5.446  0.00  0.00    -0.168 OA
BRANCH  19  22
ATOM     22  C   UNL     1       0.735  -6.128  -5.751  0.00  0.00    +0.090 A 
ATOM     23  C   UNL     1       1.200  -6.591  -4.534  0.00  0.00    +0.027 A 
ATOM     24  C   UNL     1       1.046  -7.922  -4.196  0.00  0.00    +0.005 A 
ATOM     25  C   UNL     1       0.426  -8.791  -5.075  0.00  0.00    -0.050 A 
ATOM     26  C   UNL     1      -0.040  -8.328  -6.292  0.00  0.00    +0.005 A 
ATOM     27  C   UNL     1       0.111  -6.995  -6.627  0.00  0.00    +0.027 A 
ATOM     28  C   UNL     1       0.259 -10.243  -4.707  0.00  0.00    +0.044 C 
ENDBRANCH  19  22
ENDBRANCH  18  19
ENDBRANCH  16  18
ENDBRANCH   1  14
BRANCH   1  29
ATOM     29  N   UNL     1       0.826  -1.809  -1.290  0.00  0.00    -0.285 N 
ATOM     30  C   UNL     1       1.865  -2.255  -0.556  0.00  0.00    +0.231 C 
ATOM     31  O   UNL     1       2.663  -1.468  -0.093  0.00  0.00    -0.274 OA
BRANCH  30  32
ATOM     32  C   UNL     1       2.034  -3.732  -0.309  0.00  0.00    +0.204 C 
ATOM     33 CL   UNL     1       3.503  -4.009   0.698  0.00  0.00    -0.116 Cl
ENDBRANCH  30  32
BRANCH  29  34
ATOM     34  C   UNL     1       0.661  -0.373  -1.529  0.00  0.00    +0.108 C 
BRANCH  34  36
ATOM     35  C   UNL     1      -0.123   1.778  -0.530  0.00  0.00    +0.005 C 
ATOM     36  C   UNL     1      -0.070   0.261  -0.344  0.00  0.00    +0.016 C 
ENDBRANCH  34  36
ENDBRANCH  29  34
ENDBRANCH   1  29
TORSDOF 12
