REMARK  Name = ZINC35746233
REMARK  12 active torsions:
REMARK  status: ('A' for Active; 'I' for Inactive)
REMARK    1  A    between atoms: C_1  and  C_2
REMARK    2  A    between atoms: C_2  and  C_3
REMARK    3  A    between atoms: C_2  and  C_4
REMARK    4  A    between atoms: C_4  and  C_6
REMARK    5  A    between atoms: C_4  and  O_34
REMARK    6  A    between atoms: C_6  and  N_7
REMARK    7  A    between atoms: N_7  and  C_8
REMARK    8  A    between atoms: N_7  and  C_28
REMARK    9  A    between atoms: C_8  and  C_9
REMARK   10  A    between atoms: C_15  and  C_20
REMARK   11  A    between atoms: C_24  and  O_26
REMARK   12  A    between atoms: O_26  and  C_27
REMARK                            x       y       z     vdW  Elec       q    Type
REMARK                         _______ _______ _______ _____ _____    ______ ____
ROOT
ATOM      1  C   UNL     1      -4.159  -4.566   0.051  0.00  0.00    +0.094 A 
ATOM      2  N   UNL     1      -4.361  -5.902   0.183  0.00  0.00    -0.312 N 
ATOM      3  H   UNL     1      -3.596  -6.492   0.270  0.00  0.00    +0.170 HD
ATOM      4  C   UNL     1      -5.601  -6.423   0.196  0.00  0.00    +0.260 A 
ATOM      5  O   UNL     1      -5.766  -7.625   0.316  0.00  0.00    -0.267 OA
ATOM      6  C   UNL     1      -6.724  -5.545   0.067  0.00  0.00    +0.080 A 
ATOM      7  C   UNL     1      -8.147  -5.863   0.054  0.00  0.00    +0.004 A 
ATOM      8  C   UNL     1      -9.040  -4.852  -0.081  0.00  0.00    +0.056 A 
ATOM      9  S   UNL     1      -8.007  -3.403  -0.197  0.00  0.00    -0.076 S 
ATOM     10  C   UNL     1      -6.418  -4.181  -0.064  0.00  0.00    +0.116 A 
ATOM     11  N   UNL     1      -5.163  -3.739  -0.063  0.00  0.00    -0.229 NA
ENDROOT
BRANCH   7  12
ATOM     12  C   UNL     1      -8.609  -7.265   0.184  0.00  0.00    -0.013 A 
ATOM     13  C   UNL     1      -8.057  -8.261  -0.621  0.00  0.00    +0.009 A 
ATOM     14  C   UNL     1      -8.489  -9.566  -0.498  0.00  0.00    +0.004 A 
ATOM     15  C   UNL     1      -9.469  -9.890   0.422  0.00  0.00    +0.045 A 
ATOM     16  C   UNL     1     -10.025  -8.905   1.226  0.00  0.00    +0.121 A 
ATOM     17  C   UNL     1      -9.593  -7.593   1.114  0.00  0.00    +0.054 A 
BRANCH  16  18
ATOM     18  O   UNL     1     -10.988  -9.228   2.128  0.00  0.00    -0.495 OA
ATOM     19  C   UNL     1     -11.381 -10.601   2.195  0.00  0.00    +0.277 C 
ENDBRANCH  16  18
ENDBRANCH   7  12
BRANCH   1  20
ATOM     20  C   UNL     1      -2.751  -4.027   0.042  0.00  0.00    -0.003 C 
BRANCH  20  21
ATOM     21  N   UNL     1      -2.789  -2.559   0.063  0.00  0.00    +0.388 N 
ATOM     22  H   UNL     1      -3.565  -2.235  -0.494  0.00  0.00    -0.081 HD
BRANCH  21  23
ATOM     23  C   UNL     1      -2.950  -2.092   1.446  0.00  0.00    -0.068 C 
ATOM     24  C   UNL     1      -4.209  -2.717   2.051  0.00  0.00    -0.015 C 
ATOM     25  C   UNL     1      -4.377  -2.231   3.492  0.00  0.00    -0.002 C 
ATOM     26  C   UNL     1      -3.156  -2.645   4.316  0.00  0.00    -0.000 C 
ATOM     27  C   UNL     1      -1.897  -2.020   3.711  0.00  0.00    -0.002 C 
ATOM     28  C   UNL     1      -1.729  -2.506   2.270  0.00  0.00    -0.015 C 
ENDBRANCH  21  23
BRANCH  21  29
ATOM     29  C   UNL     1      -1.535  -2.029  -0.490  0.00  0.00    -0.046 C 
BRANCH  29  30
ATOM     30  C   UNL     1      -1.648  -0.512  -0.648  0.00  0.00    +0.101 C 
BRANCH  30  32
ATOM     31  C   UNL     1      -0.550   1.530  -1.581  0.00  0.00    +0.010 C 
ATOM     32  C   UNL     1      -0.436   0.012  -1.422  0.00  0.00    +0.010 C 
ATOM     33  C   UNL     1       0.844  -0.327  -0.656  0.00  0.00    +0.010 C 
ENDBRANCH  30  32
BRANCH  30  34
ATOM     34  O   UNL     1      -1.689   0.100   0.643  0.00  0.00    -0.393 OA
ATOM     35  H   UNL     1      -0.876  -0.007   1.155  0.00  0.00    +0.210 HD
ENDBRANCH  30  34
ENDBRANCH  29  30
ENDBRANCH  21  29
ENDBRANCH  20  21
ENDBRANCH   1  20
TORSDOF 9
