REMARK  Name = ZINC39041228
REMARK  7 active torsions:
REMARK  status: ('A' for Active; 'I' for Inactive)
REMARK    1  A    between atoms: C_1  and  C_2
REMARK    2  A    between atoms: C_2  and  C_4
REMARK    3  A    between atoms: C_2  and  S_19
REMARK    4  A    between atoms: N_6  and  C_7
REMARK    5  A    between atoms: C_7  and  C_8
REMARK    6  A    between atoms: C_8  and  C_9
REMARK    7  A    between atoms: S_19  and  C_20
REMARK                            x       y       z     vdW  Elec       q    Type
REMARK                         _______ _______ _______ _____ _____    ______ ____
ROOT
ATOM      1  C   UNL     1      -0.842  -0.900  -2.403  0.00  0.00    +0.226 C 
ATOM      2  O   UNL     1      -2.001  -1.180  -2.623  0.00  0.00    -0.275 OA
ATOM      3  N   UNL     1       0.105  -1.184  -3.319  0.00  0.00    -0.314 N 
ATOM      4  H   UNL     1       1.032  -0.961  -3.144  0.00  0.00    +0.149 HD
ENDROOT
BRANCH   1   6
ATOM      5  C   UNL     1      -0.407   1.282  -1.308  0.00  0.00    +0.029 C 
ATOM      6  C   UNL     1      -0.460  -0.234  -1.106  0.00  0.00    +0.131 C 
BRANCH   6   7
ATOM      7  S   UNL     1      -1.692  -0.633   0.164  0.00  0.00    -0.122 S 
BRANCH   7   8
ATOM      8  C   UNL     1      -1.475  -2.412   0.443  0.00  0.00    +0.186 C 
ATOM      9  C   UNL     1      -2.461  -2.893   1.508  0.00  0.00    +0.206 C 
ATOM     10  C   UNL     1      -1.996  -4.288   1.911  0.00  0.00    +0.161 C 
ATOM     11  N   UNL     1      -3.031  -5.059   1.755  0.00  0.00    -0.219 NA
ATOM     12  C   UNL     1      -4.050  -4.405   1.182  0.00  0.00    +0.218 C 
ATOM     13  N   UNL     1      -3.805  -3.124   0.976  0.00  0.00    -0.258 NA
ATOM     14  N   UNL     1      -0.722  -4.546   2.208  0.00  0.00    -0.203 NA
ATOM     15  C   UNL     1       0.186  -3.709   1.739  0.00  0.00    +0.210 C 
ATOM     16  N   UNL     1      -0.116  -2.676   0.933  0.00  0.00    -0.206 NA
ATOM     17 CL   UNL     1       1.846  -3.954   2.183  0.00  0.00    -0.044 Cl
ENDBRANCH   7   8
ENDBRANCH   6   7
ENDBRANCH   1   6
BRANCH   3  18
ATOM     18  C   UNL     1      -0.266  -1.832  -4.580  0.00  0.00    +0.109 C 
BRANCH  18  19
ATOM     19  C   UNL     1       0.986  -2.041  -5.434  0.00  0.00    +0.056 C 
BRANCH  19  20
ATOM     20  C   UNL     1       0.604  -2.707  -6.731  0.00  0.00    -0.021 A 
ATOM     21  C   UNL     1       0.124  -2.041  -7.944  0.00  0.00    +0.004 A 
ATOM     22  C   UNL     1      -0.120  -0.710  -8.288  0.00  0.00    +0.030 A 
ATOM     23  C   UNL     1      -0.581  -0.405  -9.549  0.00  0.00    +0.042 A 
ATOM     24  C   UNL     1      -0.805  -1.414 -10.477  0.00  0.00    +0.022 A 
ATOM     25  C   UNL     1      -0.569  -2.732 -10.153  0.00  0.00    +0.027 A 
ATOM     26  C   UNL     1      -0.102  -3.062  -8.885  0.00  0.00    +0.047 A 
ATOM     27  N   UNL     1       0.221  -4.254  -8.275  0.00  0.00    -0.360 N 
ATOM     28  C   UNL     1       0.644  -4.022  -6.995  0.00  0.00    +0.087 A 
ATOM     29 CL   UNL     1      -0.886   1.248  -9.981  0.00  0.00    -0.084 Cl
ATOM     30  H   UNL     1       0.160  -5.128  -8.692  0.00  0.00    +0.165 HD
ENDBRANCH  19  20
ENDBRANCH  18  19
ENDBRANCH   3  18
TORSDOF 6
