REMARK  Name = ZINC12889010
REMARK  7 active torsions:
REMARK  status: ('A' for Active; 'I' for Inactive)
REMARK    1  A    between atoms: C_1  and  C_2
REMARK    2  A    between atoms: C_2  and  N_56
REMARK    3  A    between atoms: C_15  and  C_17
REMARK    4  A    between atoms: C_18  and  O_34
REMARK    5  A    between atoms: N_23  and  C_26
REMARK    6  A    between atoms: C_29  and  O_32
REMARK    7  A    between atoms: O_32  and  C_33
REMARK                            x       y       z     vdW  Elec       q    Type
REMARK                         _______ _______ _______ _____ _____    ______ ____
ROOT
ATOM      1  C   UNL     1       0.252  -2.150  -0.926  0.00  0.00    +0.069 A 
ATOM      2  C   UNL     1       0.008  -2.864  -2.061  0.00  0.00    +0.201 A 
ATOM      3  N   UNL     1       0.616  -4.081  -2.236  0.00  0.00    -0.278 N 
ATOM      4  H   UNL     1       0.448  -4.592  -3.044  0.00  0.00    +0.173 HD
ATOM      5  C   UNL     1       1.439  -4.574  -1.293  0.00  0.00    +0.336 A 
ATOM      6  O   UNL     1       1.966  -5.657  -1.464  0.00  0.00    -0.246 OA
ATOM      7  N   UNL     1       1.689  -3.886  -0.164  0.00  0.00    -0.229 N 
ATOM      8  C   UNL     1       1.116  -2.685   0.046  0.00  0.00    +0.267 A 
ATOM      9  O   UNL     1       1.345  -2.066   1.071  0.00  0.00    -0.267 OA
ENDROOT
BRANCH   1  22
ATOM     10  C   UNL     1      -1.609   0.535   0.912  0.00  0.00    -0.073 C 
ATOM     11  C   UNL     1      -0.416   1.413   1.315  0.00  0.00    +0.019 C 
ATOM     12  C   UNL     1       0.649   1.264   0.258  0.00  0.00    -0.022 A 
ATOM     13  C   UNL     1       1.808   2.090   0.002  0.00  0.00    +0.003 A 
ATOM     14  C   UNL     1       2.309   3.242   0.617  0.00  0.00    +0.010 A 
ATOM     15  C   UNL     1       3.463   3.773   0.095  0.00  0.00    +0.001 A 
ATOM     16  C   UNL     1       4.111   3.203  -0.989  0.00  0.00    +0.002 A 
ATOM     17  C   UNL     1       3.638   2.064  -1.616  0.00  0.00    +0.026 A 
ATOM     18  C   UNL     1       2.468   1.502  -1.108  0.00  0.00    +0.047 A 
ATOM     19  N   UNL     1       1.745   0.404  -1.478  0.00  0.00    -0.359 N 
ATOM     20  H   UNL     1       1.967  -0.189  -2.212  0.00  0.00    +0.166 HD
ATOM     21  C   UNL     1       0.659   0.268  -0.657  0.00  0.00    +0.011 A 
ATOM     22  C   UNL     1      -0.400  -0.808  -0.713  0.00  0.00    +0.021 C 
ATOM     23  N   UNL     1      -1.112  -0.820   0.587  0.00  0.00    +0.388 N 
ATOM     24  H   UNL     1      -0.459  -1.119   1.321  0.00  0.00    -0.080 HD
BRANCH  23  26
ATOM     25  C   UNL     1      -2.809  -1.940   1.944  0.00  0.00    -0.017 C 
ATOM     26  C   UNL     1      -2.241  -1.772   0.533  0.00  0.00    -0.081 C 
ENDBRANCH  23  26
ENDBRANCH   1  22
BRANCH   7  27
ATOM     27  C   UNL     1       2.551  -4.425   0.803  0.00  0.00    +0.055 A 
ATOM     28  C   UNL     1       3.912  -4.155   0.746  0.00  0.00    +0.030 A 
ATOM     29  C   UNL     1       4.760  -4.681   1.700  0.00  0.00    +0.047 A 
ATOM     30  C   UNL     1       4.254  -5.487   2.710  0.00  0.00    +0.120 A 
ATOM     31  C   UNL     1       2.895  -5.761   2.764  0.00  0.00    +0.047 A 
ATOM     32  C   UNL     1       2.045  -5.231   1.813  0.00  0.00    +0.030 A 
BRANCH  30  33
ATOM     33  O   UNL     1       5.090  -6.009   3.647  0.00  0.00    -0.495 OA
ATOM     34  C   UNL     1       6.477  -5.686   3.530  0.00  0.00    +0.277 C 
ENDBRANCH  30  33
ENDBRANCH   7  27
BRANCH   2  35
ATOM     35  O   UNL     1      -0.822  -2.376  -3.007  0.00  0.00    -0.493 OA
ATOM     36  H   UNL     1      -0.930  -2.956  -3.773  0.00  0.00    +0.294 HD
ENDBRANCH   2  35
TORSDOF 5
