REMARK  Name = ZINC15029649
REMARK  13 active torsions:
REMARK  status: ('A' for Active; 'I' for Inactive)
REMARK    1  A    between atoms: C_1  and  C_2
REMARK    2  A    between atoms: C_2  and  C_4
REMARK    3  A    between atoms: C_2  and  N_61
REMARK    4  A    between atoms: N_6  and  C_7
REMARK    5  A    between atoms: C_7  and  C_8
REMARK    6  A    between atoms: C_8  and  C_9
REMARK    7  A    between atoms: C_12  and  S_15
REMARK    8  A    between atoms: S_15  and  N_18
REMARK    9  A    between atoms: C_19  and  N_61
REMARK   10  A    between atoms: C_20  and  C_21
REMARK   11  A    between atoms: C_20  and  N_61
REMARK   12  A    between atoms: C_26  and  O_31
REMARK   13  A    between atoms: O_31  and  C_32
REMARK                            x       y       z     vdW  Elec       q    Type
REMARK                         _______ _______ _______ _____ _____    ______ ____
ROOT
ATOM      1  C   UNL     1      -2.432   1.228  -3.619  0.00  0.00    -0.004 C 
ATOM      2  C   UNL     1      -0.997   1.758  -3.630  0.00  0.00    +0.016 C 
ENDROOT
BRANCH   2   3
ATOM      3  C   UNL     1      -0.268   1.258  -2.409  0.00  0.00    +0.199 C 
ATOM      4  O   UNL     1       0.726   0.575  -2.534  0.00  0.00    -0.278 OA
ATOM      5  N   UNL     1      -0.721   1.571  -1.179  0.00  0.00    -0.316 N 
ATOM      6  H   UNL     1      -1.516   2.118  -1.079  0.00  0.00    +0.149 HD
BRANCH   5   7
ATOM      7  C   UNL     1      -0.013   1.086   0.008  0.00  0.00    +0.109 C 
BRANCH   7   8
ATOM      8  C   UNL     1      -0.729   1.579   1.267  0.00  0.00    +0.054 C 
BRANCH   8   9
ATOM      9  C   UNL     1       0.000   1.080   2.488  0.00  0.00    -0.046 A 
ATOM     10  C   UNL     1      -0.347  -0.133   3.052  0.00  0.00    +0.005 A 
ATOM     11  C   UNL     1       0.324  -0.593   4.170  0.00  0.00    +0.029 A 
ATOM     12  C   UNL     1       1.337   0.164   4.728  0.00  0.00    +0.105 A 
ATOM     13  C   UNL     1       1.681   1.380   4.166  0.00  0.00    +0.029 A 
ATOM     14  C   UNL     1       1.012   1.838   3.046  0.00  0.00    +0.005 A 
BRANCH  12  15
ATOM     15  S   UNL     1       2.190  -0.420   6.154  0.00  0.00    +0.056 S 
ATOM     16  O   UNL     1       2.048  -1.834   6.162  0.00  0.00    -0.153 OA
ATOM     17  O   UNL     1       3.459   0.218   6.158  0.00  0.00    -0.153 OA
BRANCH  15  18
ATOM     18  N   UNL     1       1.372   0.145   7.479  0.00  0.00    -0.204 NA
ATOM     19  H   UNL     1       0.579   0.690   7.363  0.00  0.00    +0.144 HD
ATOM     20  H   UNL     1       1.687  -0.070   8.371  0.00  0.00    +0.144 HD
ENDBRANCH  15  18
ENDBRANCH  12  15
ENDBRANCH   8   9
ENDBRANCH   7   8
ENDBRANCH   5   7
ENDBRANCH   2   3
BRANCH   2  22
ATOM     21  C   UNL     1      -0.395  -0.178  -4.954  0.00  0.00    -0.095 C 
ATOM     22  N   UNL     1      -0.282   1.291  -4.836  0.00  0.00    +0.388 N 
ATOM     23  H   UNL     1       0.710   1.544  -4.755  0.00  0.00    -0.081 HD
BRANCH  22  24
ATOM     24  C   UNL     1      -0.845   1.939  -6.040  0.00  0.00    -0.042 C 
BRANCH  24  25
ATOM     25  C   UNL     1       0.036   1.620  -7.220  0.00  0.00    -0.063 A 
ATOM     26  C   UNL     1       1.106   2.461  -7.525  0.00  0.00    +0.002 A 
ATOM     27  C   UNL     1       1.923   2.199  -8.581  0.00  0.00    +0.009 A 
ATOM     28  C   UNL     1       1.682   1.071  -9.385  0.00  0.00    -0.014 A 
ATOM     29  C   UNL     1       2.501   0.773 -10.486  0.00  0.00    +0.054 A 
ATOM     30  C   UNL     1       2.236  -0.331 -11.245  0.00  0.00    +0.121 A 
ATOM     31  C   UNL     1       1.159  -1.170 -10.940  0.00  0.00    +0.046 A 
ATOM     32  C   UNL     1       0.347  -0.908  -9.881  0.00  0.00    +0.012 A 
ATOM     33  C   UNL     1       0.591   0.220  -9.078  0.00  0.00    -0.017 A 
ATOM     34  C   UNL     1      -0.228   0.520  -7.976  0.00  0.00    +0.010 A 
BRANCH  30  35
ATOM     35  O   UNL     1       3.029  -0.619 -12.310  0.00  0.00    -0.495 OA
ATOM     36  C   UNL     1       2.702  -1.787 -13.066  0.00  0.00    +0.277 C 
ENDBRANCH  30  35
ENDBRANCH  24  25
ENDBRANCH  22  24
ENDBRANCH   2  22
TORSDOF 10
