REMARK  Name = ZINC18197165
REMARK  8 active torsions:
REMARK  status: ('A' for Active; 'I' for Inactive)
REMARK    1  A    between atoms: C_1  and  O_2
REMARK    2  A    between atoms: O_2  and  C_3
REMARK    3  A    between atoms: C_6  and  C_10
REMARK    4  A    between atoms: C_8  and  O_9
REMARK    5  A    between atoms: C_14  and  O_28
REMARK    6  A    between atoms: C_15  and  O_26
REMARK    7  A    between atoms: O_26  and  C_27
REMARK    8  A    between atoms: O_28  and  C_29
REMARK                            x       y       z     vdW  Elec       q    Type
REMARK                         _______ _______ _______ _____ _____    ______ ____
ROOT
ATOM      1  C   UNL     1      -2.818   2.250  -2.425  0.00  0.00    +0.086 C 
ATOM      2  C   UNL     1      -1.890   2.894  -3.414  0.00  0.00    -0.011 A 
ATOM      3  C   UNL     1      -2.400   3.716  -4.403  0.00  0.00    +0.055 A 
ATOM      4  C   UNL     1      -1.551   4.313  -5.319  0.00  0.00    +0.162 A 
ATOM      5  C   UNL     1      -0.179   4.086  -5.249  0.00  0.00    +0.163 A 
ATOM      6  C   UNL     1       0.333   3.263  -4.261  0.00  0.00    +0.073 A 
ATOM      7  C   UNL     1      -0.522   2.668  -3.342  0.00  0.00    +0.039 A 
ATOM      8  N   UNL     1      -0.011   1.842  -2.340  0.00  0.00    -0.317 N 
ATOM      9  C   UNL     1      -0.742   1.585  -1.216  0.00  0.00    +0.016 C 
ATOM     10  C   UNL     1      -2.079   1.779  -1.199  0.00  0.00    +0.024 C 
ATOM     11  C   UNL     1      -2.828   1.542  -0.034  0.00  0.00    +0.162 C 
ATOM     12  O   UNL     1      -4.030   1.720  -0.053  0.00  0.00    -0.292 OA
ATOM     13  C   UNL     1      -2.173   1.071   1.235  0.00  0.00    +0.080 C 
ATOM     14  C   UNL     1      -0.728   1.579   1.268  0.00  0.00    +0.014 C 
ATOM     15  C   UNL     1      -0.013   1.086   0.008  0.00  0.00    +0.051 C 
ATOM     16  H   UNL     1       0.869   1.448  -2.443  0.00  0.00    +0.152 HD
ENDROOT
BRANCH   1  20
ATOM     17  C   UNL     1      -4.724  -1.102  -4.276  0.00  0.00    +0.161 A 
ATOM     18  C   UNL     1      -3.346  -1.081  -4.124  0.00  0.00    +0.050 A 
ATOM     19  C   UNL     1      -2.734   0.004  -3.525  0.00  0.00    +0.008 A 
ATOM     20  C   UNL     1      -3.492   1.070  -3.078  0.00  0.00    -0.032 A 
ATOM     21  C   UNL     1      -4.867   1.053  -3.222  0.00  0.00    +0.053 A 
ATOM     22  C   UNL     1      -5.487  -0.029  -3.826  0.00  0.00    +0.159 A 
BRANCH  17  24
ATOM     23  C   UNL     1      -4.482  -3.233  -5.304  0.00  0.00    +0.277 C 
ATOM     24  O   UNL     1      -5.328  -2.168  -4.865  0.00  0.00    -0.491 OA
ENDBRANCH  17  24
BRANCH  22  25
ATOM     25  O   UNL     1      -6.838  -0.044  -3.973  0.00  0.00    -0.503 OA
ATOM     26  H   UNL     1      -7.311  -0.438  -3.227  0.00  0.00    +0.292 HD
ENDBRANCH  22  25
ENDBRANCH   1  20
BRANCH   5  27
ATOM     27  O   UNL     1       0.655   4.671  -6.150  0.00  0.00    -0.491 OA
ATOM     28  C   UNL     1       2.051   4.394  -6.016  0.00  0.00    +0.277 C 
ENDBRANCH   5  27
BRANCH   4  29
ATOM     29  O   UNL     1      -2.058   5.121  -6.290  0.00  0.00    -0.491 OA
ATOM     30  C   UNL     1      -3.474   5.309  -6.303  0.00  0.00    +0.277 C 
ENDBRANCH   4  29
TORSDOF 5
