REMARK  Name = ZINC21084512
REMARK  6 active torsions:
REMARK  status: ('A' for Active; 'I' for Inactive)
REMARK    1  A    between atoms: C_4  and  N_8
REMARK    2  A    between atoms: C_9  and  C_11
REMARK    3  A    between atoms: C_11  and  C_12
REMARK    4  A    between atoms: C_12  and  S_13
REMARK    5  A    between atoms: S_13  and  C_14
REMARK    6  A    between atoms: N_20  and  N_21
REMARK                            x       y       z     vdW  Elec       q    Type
REMARK                         _______ _______ _______ _____ _____    ______ ____
ROOT
ATOM      1  S   UNL     1       6.295  -5.102   0.368  0.00  0.00    -0.086 S 
ENDROOT
BRANCH   1   2
ATOM      2  C   UNL     1       5.839  -6.801   0.471  0.00  0.00    +0.190 A 
ATOM      3  N   UNL     1       6.697  -7.857   0.578  0.00  0.00    -0.303 N 
ATOM      4  H   UNL     1       7.665  -7.804   0.612  0.00  0.00    +0.171 HD
ATOM      5  C   UNL     1       5.953  -9.003   0.630  0.00  0.00    +0.235 A 
ATOM      6  N   UNL     1       4.688  -8.668   0.558  0.00  0.00    -0.111 NA
ATOM      7  N   UNL     1       4.615  -7.272   0.462  0.00  0.00    -0.121 NA
ATOM      8  N   UNL     1       6.450 -10.295   0.740  0.00  0.00    -0.205 N 
ATOM      9  H   UNL     1       7.407 -10.444   0.788  0.00  0.00    +0.177 HD
BRANCH   8  10
ATOM     10  N   UNL     1       5.569 -11.383   0.783  0.00  0.00    -0.189 NA
ATOM     11  C   UNL     1       6.020 -12.565   0.982  0.00  0.00    +0.037 C 
ATOM     12  C   UNL     1       7.508 -12.822   1.068  0.00  0.00    +0.052 C 
ATOM     13  C   UNL     1       7.792 -13.613   2.349  0.00  0.00    +0.006 C 
ATOM     14  C   UNL     1       6.931 -14.877   2.368  0.00  0.00    +0.001 C 
ATOM     15  C   UNL     1       5.451 -14.495   2.416  0.00  0.00    +0.006 C 
ATOM     16  C   UNL     1       5.078 -13.737   1.143  0.00  0.00    +0.052 C 
ENDBRANCH   8  10
ENDBRANCH   1   2
BRANCH   1  17
ATOM     17  C   UNL     1       4.710  -4.228   0.255  0.00  0.00    +0.086 C 
BRANCH  17  18
ATOM     18  C   UNL     1       4.963  -2.722   0.159  0.00  0.00    +0.107 C 
BRANCH  18  20
ATOM     19  N   UNL     1       3.623  -0.651  -0.029  0.00  0.00    -0.284 N 
ATOM     20  C   UNL     1       3.646  -1.996   0.064  0.00  0.00    +0.218 C 
ATOM     21  O   UNL     1       2.607  -2.621   0.072  0.00  0.00    -0.275 OA
ATOM     22  H   UNL     1       4.453  -0.157  -0.117  0.00  0.00    +0.155 HD
BRANCH  19  26
ATOM     23  C   UNL     1      -0.015   1.382   0.054  0.00  0.00    +0.021 A 
ATOM     24  C   UNL     1       1.083   1.957  -0.561  0.00  0.00    +0.023 A 
ATOM     25  C   UNL     1       2.290   1.285  -0.590  0.00  0.00    +0.062 A 
ATOM     26  C   UNL     1       2.401   0.031  -0.001  0.00  0.00    +0.053 A 
ATOM     27  C   UNL     1       1.298  -0.542   0.616  0.00  0.00    +0.044 A 
ATOM     28  C   UNL     1       0.093   0.134   0.642  0.00  0.00    +0.043 A 
ATOM     29 CL   UNL     1      -1.287  -0.583   1.414  0.00  0.00    -0.083 Cl
ATOM     30 CL   UNL     1       3.667   2.007  -1.363  0.00  0.00    -0.082 Cl
ENDBRANCH  19  26
ENDBRANCH  18  20
ENDBRANCH  17  18
ENDBRANCH   1  17
TORSDOF 6
