REMARK  Name = ZINC36612892
REMARK  13 active torsions:
REMARK  status: ('A' for Active; 'I' for Inactive)
REMARK    1  A    between atoms: C_1  and  C_2
REMARK    2  A    between atoms: C_2  and  CA_3
REMARK    3  A    between atoms: CA_3  and  C_5
REMARK    4  A    between atoms: CA_3  and  N_7
REMARK    5  A    between atoms: C_5  and  O_6
REMARK    6  A    between atoms: N_7  and  C_8
REMARK    7  A    between atoms: C_8  and  C_9
REMARK    8  A    between atoms: C_11  and  O_22
REMARK    9  A    between atoms: C_12  and  O_17
REMARK   10  A    between atoms: O_17  and  C_18
REMARK   11  A    between atoms: C_18  and  C_19
REMARK   12  A    between atoms: O_22  and  C_23
REMARK   13  A    between atoms: C_23  and  C_24
REMARK                            x       y       z     vdW  Elec       q    Type
REMARK                         _______ _______ _______ _____ _____    ______ ____
ROOT
ATOM      1  C   UNL     1      -3.155   1.419   2.807  0.00  0.00    -0.046 A 
ATOM      2  C   UNL     1      -2.489   2.041   3.846  0.00  0.00    +0.052 A 
ATOM      3  C   UNL     1      -3.144   2.286   5.042  0.00  0.00    +0.163 A 
ATOM      4  C   UNL     1      -4.473   1.905   5.195  0.00  0.00    +0.178 A 
ATOM      5  C   UNL     1      -5.137   1.282   4.150  0.00  0.00    +0.077 A 
ATOM      6  C   UNL     1      -4.478   1.045   2.956  0.00  0.00    +0.037 A 
ATOM      7 BR   UNL     1      -5.387   0.201   1.528  0.00  0.00    -0.049 Br
ATOM      8 BR   UNL     1      -6.944   0.762   4.353  0.00  0.00    -0.045 Br
ENDROOT
BRANCH   1   9
ATOM      9  C   UNL     1      -2.441   1.154   1.507  0.00  0.00    -0.045 C 
BRANCH   9  10
ATOM     10  N   UNL     1      -2.117  -0.276   1.409  0.00  0.00    +0.385 N 
ATOM     11  H1  UNL     1      -2.970  -0.811   1.351  0.00  0.00    -0.085 HD
ATOM     12  H2  UNL     1      -1.596  -0.559   2.226  0.00  0.00    -0.085 HD
BRANCH  10  13
ATOM     13  CA  UNL     1      -1.308  -0.513   0.206  0.00  0.00    -0.046 C 
BRANCH  13  15
ATOM     14  C   UNL     1       0.078  -2.248   1.352  0.00  0.00    +0.002 C 
ATOM     15  C   UNL     1      -0.859  -1.976   0.174  0.00  0.00    -0.017 C 
ENDBRANCH  13  15
BRANCH  13  16
ATOM     16  C   UNL     1      -2.143  -0.208  -1.039  0.00  0.00    +0.140 C 
BRANCH  16  17
ATOM     17  O   UNL     1      -3.228  -1.135  -1.123  0.00  0.00    -0.397 OA
ATOM     18  H   UNL     1      -3.801  -1.001  -1.891  0.00  0.00    +0.209 HD
ENDBRANCH  16  17
ENDBRANCH  13  16
ENDBRANCH  10  13
ENDBRANCH   9  10
ENDBRANCH   1   9
BRANCH   4  19
ATOM     19  O   UNL     1      -5.120   2.144   6.367  0.00  0.00    -0.478 OA
BRANCH  19  20
ATOM     20  C   UNL     1      -5.804   3.393   6.489  0.00  0.00    +0.324 C 
BRANCH  20  21
ATOM     21  C   UNL     1      -6.457   3.478   7.845  0.00  0.00    +0.248 C 
ATOM     22  O   UNL     1      -6.346   2.561   8.630  0.00  0.00    -0.272 OA
ATOM     23  N   UNL     1      -7.162   4.575   8.185  0.00  0.00    -0.327 N 
ATOM     24  H   UNL     1      -7.250   5.309   7.557  0.00  0.00    +0.145 HD
ATOM     25  H   UNL     1      -7.582   4.630   9.057  0.00  0.00    +0.145 HD
ENDBRANCH  20  21
ENDBRANCH  19  20
ENDBRANCH   4  19
BRANCH   3  26
ATOM     26  O   UNL     1      -2.489   2.898   6.065  0.00  0.00    -0.489 OA
BRANCH  26  27
ATOM     27  C   UNL     1      -1.125   3.261   5.837  0.00  0.00    +0.226 C 
ATOM     28  C   UNL     1      -0.560   3.932   7.091  0.00  0.00    +0.048 C 
ENDBRANCH  26  27
ENDBRANCH   3  26
TORSDOF 11
