REMARK  Name = ZINC38984344
REMARK  10 active torsions:
REMARK  status: ('A' for Active; 'I' for Inactive)
REMARK    1  A    between atoms: C_1  and  C_2
REMARK    2  A    between atoms: C_2  and  N_3
REMARK    3  A    between atoms: N_3  and  C_4
REMARK    4  A    between atoms: N_3  and  C_6
REMARK    5  A    between atoms: C_4  and  C_5
REMARK    6  A    between atoms: C_9  and  C_13
REMARK    7  A    between atoms: C_10  and  O_12
REMARK    8  A    between atoms: N_14  and  N_15
REMARK    9  A    between atoms: C_16  and  C_22
REMARK   10  A    between atoms: C_26  and  C_28
REMARK                            x       y       z     vdW  Elec       q    Type
REMARK                         _______ _______ _______ _____ _____    ______ ____
ROOT
ATOM      1  C   UNL     1       6.332  -1.154   1.053  0.00  0.00    +0.142 C 
ATOM      2  N   UNL     1       6.914  -1.785   2.029  0.00  0.00    -0.183 NA
ENDROOT
BRANCH   2   3
ATOM      3  N   UNL     1       8.277  -2.098   1.947  0.00  0.00    -0.172 N 
ATOM      4  C   UNL     1       9.129  -2.701   2.989  0.00  0.00    +0.264 C 
ATOM      5  N   UNL     1      10.451  -2.797   2.350  0.00  0.00    -0.189 NA
ATOM      6  N   UNL     1      10.358  -2.347   1.205  0.00  0.00    -0.219 N 
ATOM      7  C   UNL     1       9.104  -1.921   0.893  0.00  0.00    +0.174 C 
ATOM      8  S   UNL     1       8.643  -1.255  -0.615  0.00  0.00    -0.015 S 
ATOM      9  H   UNL     1      11.104  -2.306   0.587  0.00  0.00    +0.176 HD
BRANCH   4  10
ATOM     10  C   UNL     1       8.619  -4.068   3.364  0.00  0.00    -0.002 A 
ATOM     11  C   UNL     1       7.269  -4.352   3.269  0.00  0.00    +0.007 A 
ATOM     12  C   UNL     1       6.801  -5.606   3.614  0.00  0.00    +0.001 A 
ATOM     13  C   UNL     1       7.683  -6.577   4.053  0.00  0.00    +0.003 A 
ATOM     14  C   UNL     1       9.032  -6.293   4.147  0.00  0.00    -0.050 A 
ATOM     15  C   UNL     1       9.501  -5.040   3.798  0.00  0.00    +0.010 A 
ATOM     16  C   UNL     1       9.993  -7.350   4.626  0.00  0.00    +0.044 C 
ENDBRANCH   4  10
ENDBRANCH   2   3
BRANCH   1  20
ATOM     17  C   UNL     1       2.132  -0.525   1.135  0.00  0.00    +0.033 A 
ATOM     18  C   UNL     1       2.886  -0.056   0.063  0.00  0.00    +0.024 A 
ATOM     19  C   UNL     1       4.248  -0.258   0.033  0.00  0.00    +0.015 A 
ATOM     20  C   UNL     1       4.877  -0.936   1.082  0.00  0.00    +0.036 A 
ATOM     21  C   UNL     1       4.115  -1.407   2.162  0.00  0.00    +0.127 A 
ATOM     22  C   UNL     1       2.749  -1.194   2.184  0.00  0.00    +0.069 A 
BRANCH  21  23
ATOM     23  O   UNL     1       4.719  -2.067   3.184  0.00  0.00    -0.506 OA
ATOM     24  H   UNL     1       5.017  -1.491   3.902  0.00  0.00    +0.292 HD
ENDBRANCH  21  23
BRANCH  17  25
ATOM     25  N   UNL     1       0.754  -0.316   1.158  0.00  0.00    -0.330 N 
BRANCH  25  27
ATOM     26  C   UNL     1       0.075   1.891   0.351  0.00  0.00    +0.024 C 
ATOM     27  C   UNL     1       0.101   0.390   0.053  0.00  0.00    +0.102 C 
ENDBRANCH  25  27
BRANCH  25  28
ATOM     28  C   UNL     1      -0.042  -0.803   2.288  0.00  0.00    +0.102 C 
ATOM     29  C   UNL     1      -0.520  -2.227   1.998  0.00  0.00    +0.024 C 
ENDBRANCH  25  28
ENDBRANCH  17  25
ENDBRANCH   1  20
TORSDOF 7
