REMARK  Name = ZINC02235472
REMARK  5 active torsions:
REMARK  status: ('A' for Active; 'I' for Inactive)
REMARK    1  A    between atoms: C_1  and  C_2
REMARK    2  A    between atoms: C_2  and  C_30
REMARK    3  A    between atoms: C_4  and  N_9
REMARK    4  A    between atoms: C_12  and  O_14
REMARK    5  A    between atoms: C_15  and  C_22
REMARK                            x       y       z     vdW  Elec       q    Type
REMARK                         _______ _______ _______ _____ _____    ______ ____
ROOT
ATOM      1  N   UNL     1       2.120   1.233   3.741  0.00  0.00    -0.243 N 
ATOM      2  C   UNL     1       3.280   0.498   3.796  0.00  0.00    +0.132 A 
ATOM      3  C   UNL     1       3.582   0.330   5.102  0.00  0.00    +0.072 A 
ATOM      4  C   UNL     1       2.580   0.976   5.863  0.00  0.00    +0.238 A 
ATOM      5  N   UNL     1       1.717   1.515   5.046  0.00  0.00    -0.131 NA
ATOM      6  C   UNL     1       4.730  -0.385   5.744  0.00  0.00    +0.117 C 
ATOM      7  S   UNL     1       6.253  -0.273   4.801  0.00  0.00    -0.138 S 
ATOM      8  C   UNL     1       5.974  -1.215   3.295  0.00  0.00    +0.166 C 
ATOM      9  C   UNL     1       5.001  -0.574   2.386  0.00  0.00    +0.228 C 
ATOM     10  O   UNL     1       5.268  -0.667   1.206  0.00  0.00    -0.275 OA
ATOM     11  N   UNL     1       3.906   0.073   2.648  0.00  0.00    -0.270 N 
ATOM     12  H   UNL     1       3.414   0.311   1.847  0.00  0.00    +0.156 HD
ENDROOT
BRANCH   1  16
ATOM     13  C   UNL     1      -0.013   1.086   0.008  0.00  0.00    +0.041 C 
ATOM     14  C   UNL     1      -0.729   1.579   1.267  0.00  0.00    +0.066 C 
ATOM     15  C   UNL     1       0.011   1.072   2.507  0.00  0.00    +0.061 C 
ATOM     16  C   UNL     1       1.428   1.654   2.520  0.00  0.00    +0.114 C 
ATOM     17  C   UNL     1       1.341   3.183   2.480  0.00  0.00    +0.055 C 
ATOM     18  C   UNL     1       0.549   3.608   1.240  0.00  0.00    +0.162 C 
ATOM     19  O   UNL     1      -0.747   3.008   1.276  0.00  0.00    -0.374 OA
ATOM     20  C   UNL     1      -2.164   1.050   1.278  0.00  0.00    +0.041 C 
ENDBRANCH   1  16
BRANCH   6  21
ATOM     21  C   UNL     1       4.963   0.206   7.111  0.00  0.00    -0.011 A 
ATOM     22  C   UNL     1       4.387  -0.378   8.224  0.00  0.00    +0.008 A 
ATOM     23  C   UNL     1       4.605   0.159   9.478  0.00  0.00    +0.020 A 
ATOM     24  C   UNL     1       5.391   1.290   9.619  0.00  0.00    +0.042 A 
ATOM     25  C   UNL     1       5.962   1.878   8.506  0.00  0.00    +0.040 A 
ATOM     26  C   UNL     1       5.748   1.336   7.251  0.00  0.00    +0.047 A 
ATOM     27 CL   UNL     1       6.464   2.075   5.853  0.00  0.00    -0.083 Cl
ATOM     28 CL   UNL     1       5.659   1.969  11.194  0.00  0.00    -0.083 Cl
ENDBRANCH   6  21
BRANCH   4  29
ATOM     29  O   UNL     1       2.528   1.031   7.221  0.00  0.00    -0.491 OA
ATOM     30  H   UNL     1       2.985   1.794   7.601  0.00  0.00    +0.294 HD
ENDBRANCH   4  29
TORSDOF 3
