REMARK  Name = ZINC30981992
REMARK  6 active torsions:
REMARK  status: ('A' for Active; 'I' for Inactive)
REMARK    1  A    between atoms: C_1  and  C_2
REMARK    2  A    between atoms: C_7  and  C_8
REMARK    3  A    between atoms: C_8  and  C_9
REMARK    4  A    between atoms: C_9  and  N_10
REMARK    5  A    between atoms: N_16  and  C_19
REMARK    6  A    between atoms: C_24  and  O_25
REMARK                            x       y       z     vdW  Elec       q    Type
REMARK                         _______ _______ _______ _____ _____    ______ ____
ROOT
ATOM      1  N   UNL     1      -2.352   1.429   0.021  0.00  0.00    -0.299 N 
ATOM      2  C   UNL     1      -1.194   2.119   0.019  0.00  0.00    +0.302 C 
ATOM      3  O   UNL     1      -0.135   1.528   0.103  0.00  0.00    -0.253 OA
ATOM      4  N   UNL     1      -1.210   3.463  -0.075  0.00  0.00    -0.283 N 
ATOM      5  C   UNL     1       0.041   4.228  -0.183  0.00  0.00    +0.128 C 
ATOM      6  C   UNL     1      -0.075   5.176  -1.387  0.00  0.00    +0.124 C 
ATOM      7  N   UNL     1      -1.289   5.990  -1.247  0.00  0.00    -0.324 N 
ATOM      8  C   UNL     1      -2.497   5.154  -1.270  0.00  0.00    +0.124 C 
ATOM      9  C   UNL     1      -2.481   4.205  -0.067  0.00  0.00    +0.128 C 
ATOM     10  H   UNL     1      -3.312   1.966   0.030  0.00  0.00    +0.150 HD
ENDROOT
BRANCH   7  11
ATOM     11  C   UNL     1      -1.346   6.981  -2.234  0.00  0.00    +0.072 A 
ATOM     12  C   UNL     1      -1.446   6.625  -3.571  0.00  0.00    +0.027 A 
ATOM     13  C   UNL     1      -1.507   7.605  -4.544  0.00  0.00    +0.002 A 
ATOM     14  C   UNL     1      -1.457   8.940  -4.189  0.00  0.00    +0.004 A 
ATOM     15  C   UNL     1      -1.351   9.302  -2.858  0.00  0.00    +0.047 A 
ATOM     16  C   UNL     1      -1.295   8.326  -1.877  0.00  0.00    +0.138 A 
BRANCH  16  17
ATOM     17  O   UNL     1      -1.190   8.681  -0.568  0.00  0.00    -0.505 OA
ATOM     18  H   UNL     1      -1.151   9.744  -0.287  0.00  0.00    +0.292 HD
ENDBRANCH  16  17
ENDBRANCH   7  11
BRANCH   1  19
ATOM     19  C   UNL     1      -2.332  -0.036   0.011  0.00  0.00    +0.110 C 
BRANCH  19  20
ATOM     20  C   UNL     1      -3.768  -0.565   0.023  0.00  0.00    +0.054 C 
BRANCH  20  27
ATOM     21  C   UNL     1      -3.504  -2.023   2.503  0.00  0.00    +0.044 C 
ATOM     22  C   UNL     1      -3.621  -2.770   1.199  0.00  0.00    -0.047 A 
ATOM     23  C   UNL     1      -3.603  -4.152   1.190  0.00  0.00    +0.003 A 
ATOM     24  C   UNL     1      -3.710  -4.837  -0.006  0.00  0.00    +0.000 A 
ATOM     25  C   UNL     1      -3.837  -4.139  -1.193  0.00  0.00    +0.000 A 
ATOM     26  C   UNL     1      -3.860  -2.757  -1.183  0.00  0.00    +0.004 A 
ATOM     27  C   UNL     1      -3.747  -2.072   0.013  0.00  0.00    -0.043 A 
ENDBRANCH  20  27
ENDBRANCH  19  20
ENDBRANCH   1  19
TORSDOF 5
