REMARK  Name = ZINC39584149
REMARK  10 active torsions:
REMARK  status: ('A' for Active; 'I' for Inactive)
REMARK    1  A    between atoms: C_1  and  C_2
REMARK    2  A    between atoms: C_5  and  O_8
REMARK    3  A    between atoms: O_8  and  C_9
REMARK    4  A    between atoms: C_9  and  C_10
REMARK    5  A    between atoms: C_14  and  S_25
REMARK    6  A    between atoms: N_16  and  C_17
REMARK    7  A    between atoms: C_20  and  O_23
REMARK    8  A    between atoms: O_23  and  C_24
REMARK    9  A    between atoms: S_25  and  C_26
REMARK   10  A    between atoms: C_26  and  C_27
REMARK                            x       y       z     vdW  Elec       q    Type
REMARK                         _______ _______ _______ _____ _____    ______ ____
ROOT
ATOM      1  C   UNL     1      -0.030  -6.324   1.223  0.00  0.00    +0.195 C 
ATOM      2  N   UNL     1       1.139  -6.816   0.447  0.00  0.00    -0.231 NA
ATOM      3  N   UNL     1       0.721  -6.604  -0.948  0.00  0.00    -0.226 NA
ATOM      4  C   UNL     1      -0.723  -6.930  -0.954  0.00  0.00    +0.217 C 
ATOM      5  N   UNL     1      -1.202  -6.751   0.432  0.00  0.00    -0.285 N 
ATOM      6  H   UNL     1       1.308  -7.793   0.629  0.00  0.00    +0.143 HD
ATOM      7  H   UNL     1       1.231  -7.210  -1.574  0.00  0.00    +0.143 HD
ENDROOT
BRANCH   5   8
ATOM      8  C   UNL     1      -2.505  -6.947   0.904  0.00  0.00    +0.033 A 
ATOM      9  C   UNL     1      -2.798  -6.731   2.244  0.00  0.00    +0.027 A 
ATOM     10  C   UNL     1      -4.084  -6.924   2.708  0.00  0.00    +0.047 A 
ATOM     11  C   UNL     1      -5.082  -7.335   1.837  0.00  0.00    +0.120 A 
ATOM     12  C   UNL     1      -4.790  -7.551   0.499  0.00  0.00    +0.047 A 
ATOM     13  C   UNL     1      -3.506  -7.353   0.031  0.00  0.00    +0.027 A 
BRANCH  11  14
ATOM     14  O   UNL     1      -6.348  -7.525   2.296  0.00  0.00    -0.495 OA
ATOM     15  C   UNL     1      -7.327  -7.948   1.344  0.00  0.00    +0.277 C 
ENDBRANCH  11  14
ENDBRANCH   5   8
BRANCH   1  16
ATOM     16  C   UNL     1       0.009  -4.799   1.340  0.00  0.00    +0.268 C 
BRANCH  16  17
ATOM     17  O   UNL     1       1.068  -4.415   2.220  0.00  0.00    -0.489 OA
BRANCH  17  22
ATOM     18  C   UNL     1       1.518   1.063   3.447  0.00  0.00    +0.044 C 
ATOM     19  C   UNL     1       1.397  -0.403   3.119  0.00  0.00    -0.050 A 
ATOM     20  C   UNL     1       2.219  -1.320   3.747  0.00  0.00    +0.007 A 
ATOM     21  C   UNL     1       2.111  -2.664   3.448  0.00  0.00    +0.046 A 
ATOM     22  C   UNL     1       1.176  -3.094   2.516  0.00  0.00    +0.121 A 
ATOM     23  C   UNL     1       0.353  -2.171   1.888  0.00  0.00    +0.046 A 
ATOM     24  C   UNL     1       0.461  -0.828   2.194  0.00  0.00    +0.007 A 
ENDBRANCH  17  22
ENDBRANCH  16  17
ENDBRANCH   1  16
BRANCH   4  25
ATOM     25  S   UNL     1      -1.610  -5.807  -2.068  0.00  0.00    -0.114 S 
BRANCH  25  26
ATOM     26  C   UNL     1      -1.380  -4.172  -1.317  0.00  0.00    +0.146 C 
BRANCH  26  27
ATOM     27  C   UNL     1      -2.178  -3.150  -2.086  0.00  0.00    +0.118 A 
ATOM     28  N   UNL     1      -3.377  -2.752  -1.774  0.00  0.00    -0.232 NA
ATOM     29  C   UNL     1      -3.800  -1.827  -2.674  0.00  0.00    +0.089 A 
ATOM     30  C   UNL     1      -4.977  -1.089  -2.816  0.00  0.00    +0.030 A 
ATOM     31  C   UNL     1      -5.109  -0.211  -3.855  0.00  0.00    +0.002 A 
ATOM     32  C   UNL     1      -4.084  -0.044  -4.775  0.00  0.00    +0.002 A 
ATOM     33  C   UNL     1      -2.914  -0.763  -4.655  0.00  0.00    +0.028 A 
ATOM     34  C   UNL     1      -2.761  -1.659  -3.606  0.00  0.00    +0.066 A 
ATOM     35  N   UNL     1      -1.747  -2.505  -3.203  0.00  0.00    -0.341 N 
ATOM     36  H   UNL     1      -0.888  -2.619  -3.638  0.00  0.00    +0.167 HD
ENDBRANCH  26  27
ENDBRANCH  25  26
ENDBRANCH   4  25
TORSDOF 8
