REMARK  Name = ZINC21983808
REMARK  7 active torsions:
REMARK  status: ('A' for Active; 'I' for Inactive)
REMARK    1  A    between atoms: C_1  and  C_2
REMARK    2  A    between atoms: C_2  and  C_3
REMARK    3  A    between atoms: C_6  and  C_9
REMARK    4  A    between atoms: N_11  and  N_12
REMARK    5  A    between atoms: C_13  and  C_15
REMARK    6  A    between atoms: C_20  and  C_21
REMARK    7  A    between atoms: C_23  and  C_26
REMARK                            x       y       z     vdW  Elec       q    Type
REMARK                         _______ _______ _______ _____ _____    ______ ____
ROOT
ATOM      1  N   UNL     1      -3.469   4.991   6.081  0.00  0.00    -0.230 N 
ATOM      2  C   UNL     1      -2.989   6.054   6.757  0.00  0.00    +0.261 C 
ATOM      3  O   UNL     1      -2.122   6.748   6.262  0.00  0.00    -0.269 OA
ATOM      4  H   UNL     1      -4.253   4.363   6.528  0.00  0.00    +0.173 HD
ENDROOT
BRANCH   2   5
ATOM      5  C   UNL     1      -3.517   6.375   8.100  0.00  0.00    +0.045 A 
ATOM      6  C   UNL     1      -4.601   5.661   8.613  0.00  0.00    +0.014 A 
ATOM      7  C   UNL     1      -5.083   5.962   9.871  0.00  0.00    +0.008 A 
ATOM      8  C   UNL     1      -4.502   6.968  10.613  0.00  0.00    -0.002 A 
ATOM      9  C   UNL     1      -3.429   7.697  10.115  0.00  0.00    +0.128 A 
ATOM     10  C   UNL     1      -2.936   7.394   8.851  0.00  0.00    +0.004 A 
ATOM     11  C   UNL     1      -1.770   8.169   8.292  0.00  0.00    +0.048 C 
ATOM     12  O   UNL     1      -3.023   8.647  11.003  0.00  0.00    -0.488 OA
ATOM     13  C   UNL     1      -3.519   8.316  12.311  0.00  0.00    +0.175 C 
ATOM     14  C   UNL     1      -4.802   7.511  11.998  0.00  0.00    +0.083 C 
ATOM     15  C   UNL     1      -2.509   7.452  13.070  0.00  0.00    +0.052 C 
ENDBRANCH   2   5
BRANCH   1  18
ATOM     16  C   UNL     1      -3.448   3.624   4.132  0.00  0.00    +0.260 C 
ATOM     17  O   UNL     1      -4.315   2.930   4.626  0.00  0.00    -0.269 OA
ATOM     18  N   UNL     1      -2.968   4.687   4.808  0.00  0.00    -0.230 N 
ATOM     19  H   UNL     1      -2.184   5.315   4.361  0.00  0.00    +0.173 HD
BRANCH  16  23
ATOM     20  C   UNL     1      -1.932   2.702   0.273  0.00  0.00    -0.048 A 
ATOM     21  C   UNL     1      -1.434   3.790   0.966  0.00  0.00    +0.004 A 
ATOM     22  C   UNL     1      -1.925   4.098   2.218  0.00  0.00    +0.013 A 
ATOM     23  C   UNL     1      -2.920   3.303   2.789  0.00  0.00    +0.038 A 
ATOM     24  C   UNL     1      -3.415   2.203   2.086  0.00  0.00    +0.013 A 
ATOM     25  C   UNL     1      -2.918   1.909   0.833  0.00  0.00    +0.004 A 
BRANCH  20  27
ATOM     26  C   UNL     1      -2.224   3.100  -2.158  0.00  0.00    +0.009 C 
ATOM     27  C   UNL     1      -1.394   2.374  -1.096  0.00  0.00    +0.032 C 
ENDBRANCH  20  27
ENDBRANCH  16  23
ENDBRANCH   1  18
TORSDOF 4
