REMARK  Name = ZINC39359626
REMARK  8 active torsions:
REMARK  status: ('A' for Active; 'I' for Inactive)
REMARK    1  A    between atoms: C_1  and  C_2
REMARK    2  A    between atoms: C_2  and  O_3
REMARK    3  A    between atoms: O_3  and  C_4
REMARK    4  A    between atoms: C_4  and  C_6
REMARK    5  A    between atoms: C_8  and  N_17
REMARK    6  A    between atoms: C_19  and  C_30
REMARK    7  A    between atoms: C_23  and  O_28
REMARK    8  A    between atoms: O_28  and  C_29
REMARK                            x       y       z     vdW  Elec       q    Type
REMARK                         _______ _______ _______ _____ _____    ______ ____
ROOT
ATOM      1  N   UNL     1      -2.737  -1.643  -2.344  0.00  0.00    -0.342 N 
ATOM      2  C   UNL     1      -3.016  -2.060  -3.550  0.00  0.00    +0.207 A 
ATOM      3  C   UNL     1      -2.108  -1.776  -4.683  0.00  0.00    +0.078 A 
ATOM      4  C   UNL     1      -2.127  -2.656  -5.739  0.00  0.00    +0.028 A 
ATOM      5  C   UNL     1      -3.043  -3.798  -5.653  0.00  0.00    +0.022 A 
ATOM      6  C   UNL     1      -2.935  -4.870  -6.546  0.00  0.00    +0.057 A 
ATOM      7  C   UNL     1      -3.808  -5.935  -6.442  0.00  0.00    +0.121 A 
ATOM      8  C   UNL     1      -4.790  -5.943  -5.456  0.00  0.00    +0.049 A 
ATOM      9  C   UNL     1      -4.906  -4.890  -4.572  0.00  0.00    +0.050 A 
ATOM     10  C   UNL     1      -4.040  -3.811  -4.661  0.00  0.00    +0.138 A 
ATOM     11  O   UNL     1      -4.145  -2.772  -3.800  0.00  0.00    -0.439 OA
ATOM     12  H   UNL     1      -1.926  -1.135  -2.181  0.00  0.00    +0.164 HD
ENDROOT
BRANCH   3  13
ATOM     13  C   UNL     1      -1.220  -0.600  -4.680  0.00  0.00    +0.144 A 
ATOM     14  N   UNL     1      -1.141   0.285  -3.714  0.00  0.00    -0.228 NA
ATOM     15  C   UNL     1      -0.228   1.232  -4.037  0.00  0.00    +0.089 A 
ATOM     16  C   UNL     1       0.239   2.377  -3.383  0.00  0.00    +0.030 A 
ATOM     17  C   UNL     1       1.199   3.162  -3.981  0.00  0.00    +0.002 A 
ATOM     18  C   UNL     1       1.707   2.826  -5.228  0.00  0.00    +0.002 A 
ATOM     19  C   UNL     1       1.258   1.701  -5.887  0.00  0.00    +0.028 A 
ATOM     20  C   UNL     1       0.291   0.897  -5.300  0.00  0.00    +0.066 A 
ATOM     21  N   UNL     1      -0.347  -0.268  -5.683  0.00  0.00    -0.338 N 
ATOM     22  H   UNL     1      -0.206  -0.757  -6.509  0.00  0.00    +0.167 HD
ENDBRANCH   3  13
BRANCH   1  24
ATOM     23  C   UNL     1      -2.881  -2.427   0.017  0.00  0.00    +0.157 C 
ATOM     24  C   UNL     1      -3.649  -1.941  -1.236  0.00  0.00    +0.162 C 
ATOM     25  S   UNL     1      -4.638  -3.460  -1.564  0.00  0.00    -0.104 S 
ATOM     26  C   UNL     1      -3.614  -4.627  -0.699  0.00  0.00    -0.012 C 
ATOM     27  C   UNL     1      -2.771  -3.930   0.050  0.00  0.00    -0.044 C 
ATOM     28  C   UNL     1      -1.727  -4.632   0.916  0.00  0.00    +0.032 C 
ATOM     29  C   UNL     1      -2.142  -6.088   1.122  0.00  0.00    +0.005 C 
ATOM     30  C   UNL     1      -2.421  -6.737  -0.238  0.00  0.00    +0.005 C 
ATOM     31  C   UNL     1      -3.701  -6.123  -0.811  0.00  0.00    +0.042 C 
BRANCH  23  32
ATOM     32  C   UNL     1      -1.496  -1.832   0.006  0.00  0.00    +0.317 C 
ATOM     33  O   UNL     1      -0.528  -2.555  -0.007  0.00  0.00    -0.250 OA
BRANCH  32  34
ATOM     34  O   UNL     1      -1.339  -0.499   0.012  0.00  0.00    -0.464 OA
BRANCH  34  36
ATOM     35  C   UNL     1      -0.019   1.526   0.010  0.00  0.00    +0.048 C 
ATOM     36  C   UNL     1       0.002  -0.004   0.002  0.00  0.00    +0.229 C 
ENDBRANCH  34  36
ENDBRANCH  32  34
ENDBRANCH  23  32
ENDBRANCH   1  24
BRANCH   7  37
ATOM     37  O   UNL     1      -3.709  -6.979  -7.307  0.00  0.00    -0.495 OA
ATOM     38  C   UNL     1      -4.643  -8.047  -7.145  0.00  0.00    +0.277 C 
ENDBRANCH   7  37
TORSDOF 6
