REMARK  Name = ZINC06496911
REMARK  3 active torsions:
REMARK  status: ('A' for Active; 'I' for Inactive)
REMARK    1  A    between atoms: C_3  and  S_28
REMARK    2  A    between atoms: C_6  and  C_7
REMARK    3  A    between atoms: S_28  and  N_31
REMARK                            x       y       z     vdW  Elec       q    Type
REMARK                         _______ _______ _______ _____ _____    ______ ____
ROOT
ATOM      1  C   UNL     1       6.473  -0.150  -0.014  0.00  0.00    +0.249 C 
ATOM      2  O   UNL     1       6.732   0.000  -1.196  0.00  0.00    -0.270 OA
ATOM      3  N   UNL     1       5.372   0.401   0.502  0.00  0.00    -0.267 N 
ATOM      4  C   UNL     1       5.144   1.706   0.349  0.00  0.00    +0.117 A 
ATOM      5  C   UNL     1       3.811   2.211   0.303  0.00  0.00    +0.050 A 
ATOM      6  C   UNL     1       2.546   1.490   0.429  0.00  0.00    -0.025 A 
ATOM      7  C   UNL     1       1.415   2.222   0.337  0.00  0.00    -0.004 A 
ATOM      8  S   UNL     1       1.965   3.890   0.090  0.00  0.00    -0.073 S 
ATOM      9  C   UNL     1       3.718   3.601   0.106  0.00  0.00    +0.114 A 
ATOM     10  N   UNL     1       4.787   4.361  -0.021  0.00  0.00    -0.226 NA
ATOM     11  C   UNL     1       6.039   3.881   0.021  0.00  0.00    +0.112 A 
ATOM     12  N   UNL     1       6.191   2.592   0.233  0.00  0.00    -0.317 N 
ATOM     13  C   UNL     1       7.532   2.020   0.383  0.00  0.00    +0.125 C 
ATOM     14  C   UNL     1       8.643   3.045   0.297  0.00  0.00    +0.022 C 
ATOM     15  C   UNL     1       8.487   3.972   1.494  0.00  0.00    +0.002 C 
ATOM     16  C   UNL     1       7.862   5.328   1.030  0.00  0.00    +0.008 C 
ATOM     17  C   UNL     1       7.041   4.959  -0.213  0.00  0.00    +0.074 C 
ATOM     18  C   UNL     1       0.008   1.730   0.428  0.00  0.00    +0.043 C 
ATOM     19  C   UNL     1      -0.031   0.211   0.369  0.00  0.00    +0.005 C 
ATOM     20  C   UNL     1       1.108  -0.436   1.122  0.00  0.00    +0.005 C 
ATOM     21  C   UNL     1       2.483  -0.013   0.652  0.00  0.00    +0.037 C 
ATOM     22  H   UNL     1       4.652  -0.223   1.054  0.00  0.00    +0.157 HD
ENDROOT
BRANCH   1  28
ATOM     23  C   UNL     1       7.088  -1.111   2.202  0.00  0.00    +0.015 A 
ATOM     24  C   UNL     1       7.934  -1.853   3.000  0.00  0.00    +0.029 A 
ATOM     25  C   UNL     1       9.074  -2.423   2.462  0.00  0.00    +0.106 A 
ATOM     26  C   UNL     1       9.371  -2.255   1.121  0.00  0.00    +0.029 A 
ATOM     27  C   UNL     1       8.530  -1.518   0.312  0.00  0.00    +0.015 A 
ATOM     28  C   UNL     1       7.379  -0.942   0.849  0.00  0.00    +0.037 A 
BRANCH  25  29
ATOM     29  S   UNL     1      10.153  -3.365   3.488  0.00  0.00    +0.061 S 
ATOM     30  O   UNL     1       9.371  -3.830   4.580  0.00  0.00    -0.153 OA
ATOM     31  O   UNL     1      10.863  -4.247   2.630  0.00  0.00    -0.153 OA
BRANCH  29  32
ATOM     32  N   UNL     1      11.269  -2.317   4.118  0.00  0.00    -0.172 NA
ATOM     33  C   UNL     1      12.538  -2.053   3.422  0.00  0.00    +0.137 C 
ATOM     34  C   UNL     1      12.716  -0.530   3.311  0.00  0.00    +0.177 C 
ATOM     35  O   UNL     1      12.571   0.055   4.607  0.00  0.00    -0.377 OA
ATOM     36  C   UNL     1      11.278  -0.128   5.190  0.00  0.00    +0.177 C 
ATOM     37  C   UNL     1      11.024  -1.626   5.394  0.00  0.00    +0.137 C 
ENDBRANCH  29  32
ENDBRANCH  25  29
ENDBRANCH   1  28
TORSDOF 3
