REMARK  Name = ZINC35730891
REMARK  8 active torsions:
REMARK  status: ('A' for Active; 'I' for Inactive)
REMARK    1  A    between atoms: C_1  and  C_2
REMARK    2  A    between atoms: C_2  and  C_4
REMARK    3  A    between atoms: C_2  and  N_10
REMARK    4  A    between atoms: C_11  and  C_13
REMARK    5  A    between atoms: C_16  and  N_19
REMARK    6  A    between atoms: N_19  and  C_20
REMARK    7  A    between atoms: N_30  and  C_31
REMARK    8  A    between atoms: C_31  and  C_32
REMARK                            x       y       z     vdW  Elec       q    Type
REMARK                         _______ _______ _______ _____ _____    ______ ____
ROOT
ATOM      1  N   UNL     1      -7.339  -2.593  -1.105  0.00  0.00    -0.322 N 
ATOM      2  H   UNL     1      -7.757  -2.840  -0.264  0.00  0.00    +0.148 HD
ENDROOT
BRANCH   1   3
ATOM      3  C   UNL     1      -8.113  -2.639  -2.348  0.00  0.00    +0.194 C 
ATOM      4  C   UNL     1      -8.964  -3.884  -2.383  0.00  0.00    +0.003 A 
ATOM      5  C   UNL     1      -8.670  -5.228  -2.358  0.00  0.00    +0.008 A 
ATOM      6  C   UNL     1      -9.693  -6.160  -2.405  0.00  0.00    +0.000 A 
ATOM      7  C   UNL     1     -11.011  -5.744  -2.478  0.00  0.00    +0.001 A 
ATOM      8  C   UNL     1     -11.316  -4.399  -2.504  0.00  0.00    +0.013 A 
ATOM      9  C   UNL     1     -10.290  -3.453  -2.457  0.00  0.00    +0.043 A 
ATOM     10  C   UNL     1     -10.298  -1.978  -2.469  0.00  0.00    +0.249 C 
ATOM     11  O   UNL     1     -11.297  -1.288  -2.528  0.00  0.00    -0.270 OA
ATOM     12  N   UNL     1      -9.040  -1.504  -2.407  0.00  0.00    -0.271 N 
BRANCH  12  13
ATOM     13  C   UNL     1      -8.659  -0.089  -2.399  0.00  0.00    +0.145 C 
BRANCH  13  14
ATOM     14  C   UNL     1      -8.453   0.384  -3.815  0.00  0.00    -0.026 A 
ATOM     15  C   UNL     1      -7.205   0.283  -4.401  0.00  0.00    +0.009 A 
ATOM     16  C   UNL     1      -7.011   0.715  -5.699  0.00  0.00    +0.050 A 
ATOM     17  C   UNL     1      -8.068   1.251  -6.417  0.00  0.00    +0.166 A 
ATOM     18  C   UNL     1      -9.325   1.352  -5.827  0.00  0.00    +0.167 A 
ATOM     19  C   UNL     1      -9.514   0.912  -4.527  0.00  0.00    +0.054 A 
ATOM     20  O   UNL     1     -10.188   1.906  -6.729  0.00  0.00    -0.453 OA
ATOM     21  C   UNL     1      -9.354   2.518  -7.731  0.00  0.00    +0.466 C 
ATOM     22  O   UNL     1      -8.143   1.742  -7.689  0.00  0.00    -0.453 OA
ENDBRANCH  13  14
ENDBRANCH  12  13
ENDBRANCH   1   3
BRANCH   1  26
ATOM     23  C   UNL     1      -3.351  -1.406  -1.177  0.00  0.00    +0.037 A 
ATOM     24  C   UNL     1      -4.052  -1.580  -2.374  0.00  0.00    +0.015 A 
ATOM     25  C   UNL     1      -5.371  -1.973  -2.347  0.00  0.00    +0.024 A 
ATOM     26  C   UNL     1      -6.007  -2.197  -1.129  0.00  0.00    +0.029 A 
ATOM     27  C   UNL     1      -5.312  -2.024   0.065  0.00  0.00    +0.024 A 
ATOM     28  C   UNL     1      -3.991  -1.637   0.044  0.00  0.00    +0.015 A 
BRANCH  23  30
ATOM     29  N   UNL     1      -1.322  -0.762  -2.381  0.00  0.00    -0.305 N 
ATOM     30  C   UNL     1      -1.938  -0.985  -1.203  0.00  0.00    +0.245 C 
ATOM     31  O   UNL     1      -1.328  -0.839  -0.161  0.00  0.00    -0.270 OA
ATOM     32  H   UNL     1      -1.809  -0.879  -3.212  0.00  0.00    +0.150 HD
BRANCH  29  34
ATOM     33  C   UNL     1       0.983  -1.579  -2.336  0.00  0.00    +0.033 C 
ATOM     34  C   UNL     1       0.082  -0.345  -2.406  0.00  0.00    +0.100 C 
BRANCH  34  35
ATOM     35  C   UNL     1       0.359   0.407  -3.682  0.00  0.00    -0.027 A 
ATOM     36  C   UNL     1      -0.201  -0.020  -4.872  0.00  0.00    +0.005 A 
ATOM     37  C   UNL     1       0.053   0.670  -6.042  0.00  0.00    +0.000 A 
ATOM     38  C   UNL     1       0.867   1.788  -6.023  0.00  0.00    +0.000 A 
ATOM     39  C   UNL     1       1.426   2.215  -4.834  0.00  0.00    +0.000 A 
ATOM     40  C   UNL     1       1.169   1.528  -3.662  0.00  0.00    +0.005 A 
ENDBRANCH  34  35
ENDBRANCH  29  34
ENDBRANCH  23  30
ENDBRANCH   1  26
TORSDOF 7
