REMARK  Name = ZINC39694375
REMARK  10 active torsions:
REMARK  status: ('A' for Active; 'I' for Inactive)
REMARK    1  A    between atoms: C_1  and  C_2
REMARK    2  A    between atoms: C_2  and  C_3
REMARK    3  A    between atoms: C_3  and  C_4
REMARK    4  A    between atoms: C_4  and  C_5
REMARK    5  A    between atoms: C_5  and  C_7
REMARK    6  A    between atoms: C_5  and  C_8
REMARK    7  A    between atoms: C_12  and  C_21
REMARK    8  A    between atoms: N_23  and  C_24
REMARK    9  A    between atoms: C_24  and  C_25
REMARK   10  A    between atoms: C_30  and  N_31
REMARK                            x       y       z     vdW  Elec       q    Type
REMARK                         _______ _______ _______ _____ _____    ______ ____
ROOT
ATOM      1  C   UNL     1       1.371  -3.817  -2.575  0.00  0.00    +0.218 C 
ATOM      2  O   UNL     1       0.824  -4.482  -1.722  0.00  0.00    -0.275 OA
ATOM      3  N   UNL     1       1.912  -4.417  -3.654  0.00  0.00    -0.300 N 
ATOM      4  C   UNL     1       2.526  -3.772  -4.839  0.00  0.00    +0.121 C 
ATOM      5  C   UNL     1       3.747  -4.657  -5.176  0.00  0.00    +0.100 C 
ATOM      6  C   UNL     1       3.413  -6.033  -4.574  0.00  0.00    -0.004 C 
ATOM      7  C   UNL     1       2.033  -5.870  -3.920  0.00  0.00    +0.115 C 
ATOM      8  C   UNL     1       4.447  -6.413  -3.519  0.00  0.00    -0.010 C 
ATOM      9  C   UNL     1       4.126  -7.809  -2.976  0.00  0.00    -0.082 C 
ATOM     10  N   UNL     1       4.140  -8.779  -4.078  0.00  0.00    +0.379 N 
ATOM     11  C   UNL     1       3.081  -8.459  -5.041  0.00  0.00    -0.082 C 
ATOM     12  C   UNL     1       3.357  -7.091  -5.671  0.00  0.00    -0.010 C 
ATOM     13  H   UNL     1       5.036  -8.747  -4.541  0.00  0.00    -0.086 HD
ATOM     14  H   UNL     1       3.989  -9.706  -3.709  0.00  0.00    -0.086 HD
ENDROOT
BRANCH   5  15
ATOM     15  C   UNL     1       4.993  -4.094  -4.543  0.00  0.00    +0.218 C 
ATOM     16  O   UNL     1       4.929  -3.537  -3.468  0.00  0.00    -0.275 OA
ATOM     17  N   UNL     1       6.179  -4.210  -5.172  0.00  0.00    -0.311 N 
ATOM     18  H   UNL     1       6.221  -4.590  -6.064  0.00  0.00    +0.149 HD
BRANCH  17  19
ATOM     19  C   UNL     1       7.407  -3.761  -4.510  0.00  0.00    +0.141 C 
BRANCH  19  20
ATOM     20  C   UNL     1       8.567  -3.886  -5.464  0.00  0.00    -0.009 A 
ATOM     21  C   UNL     1       9.431  -4.959  -5.365  0.00  0.00    +0.007 A 
ATOM     22  C   UNL     1      10.496  -5.074  -6.239  0.00  0.00    +0.000 A 
ATOM     23  C   UNL     1      10.699  -4.116  -7.216  0.00  0.00    +0.002 A 
ATOM     24  C   UNL     1       9.839  -3.042  -7.321  0.00  0.00    +0.023 A 
ATOM     25  C   UNL     1       8.765  -2.925  -6.447  0.00  0.00    +0.035 A 
BRANCH  25  26
ATOM     26  N   UNL     1       7.890  -1.842  -6.554  0.00  0.00    -0.325 N 
ATOM     27  C   UNL     1       8.192  -0.557  -5.905  0.00  0.00    +0.133 C 
ATOM     28  C   UNL     1       8.039   0.559  -6.945  0.00  0.00    +0.178 C 
ATOM     29  O   UNL     1       6.756   0.448  -7.567  0.00  0.00    -0.377 OA
ATOM     30  C   UNL     1       6.560  -0.768  -8.292  0.00  0.00    +0.178 C 
ATOM     31  C   UNL     1       6.641  -1.950  -7.325  0.00  0.00    +0.133 C 
ENDBRANCH  25  26
ENDBRANCH  19  20
ENDBRANCH  17  19
ENDBRANCH   5  15
BRANCH   1  32
ATOM     32  C   UNL     1       1.447  -2.319  -2.429  0.00  0.00    +0.072 C 
ATOM     33  C   UNL     1       0.572  -1.657  -3.495  0.00  0.00    +0.017 C 
BRANCH  32  34
ATOM     34  C   UNL     1       0.949  -1.916  -1.039  0.00  0.00    +0.012 C 
BRANCH  34  35
ATOM     35  C   UNL     1       1.170  -0.416  -0.833  0.00  0.00    +0.000 C 
BRANCH  35  37
ATOM     36  C   UNL     1       0.794   1.507   0.717  0.00  0.00    +0.004 C 
ATOM     37  C   UNL     1       0.574   0.007   0.511  0.00  0.00    -0.003 C 
ENDBRANCH  35  37
ENDBRANCH  34  35
ENDBRANCH  32  34
ENDBRANCH   1  32
TORSDOF 8
