REMARK  Name = ZINC44342067
REMARK  11 active torsions:
REMARK  status: ('A' for Active; 'I' for Inactive)
REMARK    1  A    between atoms: C_1  and  C_2
REMARK    2  A    between atoms: C_2  and  O_3
REMARK    3  A    between atoms: O_3  and  C_4
REMARK    4  A    between atoms: C_4  and  C_6
REMARK    5  A    between atoms: C_6  and  C_8
REMARK    6  A    between atoms: C_6  and  N_27
REMARK    7  A    between atoms: C_8  and  C_9
REMARK    8  A    between atoms: N_16  and  C_26
REMARK    9  A    between atoms: C_17  and  O_18
REMARK   10  A    between atoms: O_18  and  C_19
REMARK   11  A    between atoms: C_22  and  C_25
REMARK                            x       y       z     vdW  Elec       q    Type
REMARK                         _______ _______ _______ _____ _____    ______ ____
ROOT
ATOM      1  C   UNL     1       1.099  -2.752  -5.076  0.00  0.00    +0.021 A 
ATOM      2  C   UNL     1       1.886  -1.897  -5.966  0.00  0.00    +0.007 A 
ATOM      3  C   UNL     1       2.058  -0.516  -6.082  0.00  0.00    +0.010 A 
ATOM      4  C   UNL     1       2.887  -0.013  -7.045  0.00  0.00    +0.001 A 
ATOM      5  C   UNL     1       3.561  -0.865  -7.909  0.00  0.00    +0.002 A 
ATOM      6  C   UNL     1       3.405  -2.231  -7.813  0.00  0.00    +0.026 A 
ATOM      7  C   UNL     1       2.567  -2.764  -6.841  0.00  0.00    +0.052 A 
ATOM      8  N   UNL     1       2.211  -4.053  -6.498  0.00  0.00    -0.314 N 
ATOM      9  C   UNL     1       1.340  -4.029  -5.441  0.00  0.00    +0.205 A 
ATOM     10  C   UNL     1       2.696  -5.265  -7.162  0.00  0.00    +0.152 C 
ENDROOT
BRANCH   1  11
ATOM     11  C   UNL     1       0.195  -2.294  -3.961  0.00  0.00    +0.036 C 
BRANCH  11  12
ATOM     12  C   UNL     1       0.998  -2.193  -2.663  0.00  0.00    +0.040 C 
BRANCH  12  13
ATOM     13  N   UNL     1       1.458  -3.530  -2.266  0.00  0.00    +0.387 N 
ATOM     14  H   UNL     1       0.660  -4.131  -2.122  0.00  0.00    -0.089 HD
ATOM     15  H   UNL     1       2.042  -3.915  -2.994  0.00  0.00    -0.089 HD
ATOM     16  H   UNL     1       1.988  -3.464  -1.410  0.00  0.00    -0.089 HD
ENDBRANCH  12  13
BRANCH  12  17
ATOM     17  C   UNL     1       0.126  -1.619  -1.576  0.00  0.00    +0.293 C 
ATOM     18  O   UNL     1      -0.386  -2.350  -0.762  0.00  0.00    -0.253 OA
BRANCH  17  19
ATOM     19  O   UNL     1      -0.081  -0.294  -1.512  0.00  0.00    -0.466 OA
BRANCH  19  21
ATOM     20  C   UNL     1      -1.037   1.704  -0.544  0.00  0.00    +0.048 C 
ATOM     21  C   UNL     1      -0.918   0.181  -0.456  0.00  0.00    +0.228 C 
ENDBRANCH  19  21
ENDBRANCH  17  19
ENDBRANCH  12  17
ENDBRANCH  11  12
ENDBRANCH   1  11
BRANCH   9  22
ATOM     22  O   UNL     1       0.799  -5.125  -4.852  0.00  0.00    -0.439 OA
BRANCH  22  23
ATOM     23  C   UNL     1      -0.365  -5.611  -5.357  0.00  0.00    +0.130 A 
ATOM     24  C   UNL     1      -0.905  -5.062  -6.511  0.00  0.00    +0.046 A 
ATOM     25  C   UNL     1      -2.088  -5.559  -7.023  0.00  0.00    +0.007 A 
ATOM     26  C   UNL     1      -2.735  -6.602  -6.386  0.00  0.00    -0.050 A 
ATOM     27  C   UNL     1      -2.199  -7.151  -5.235  0.00  0.00    +0.007 A 
ATOM     28  C   UNL     1      -1.013  -6.662  -4.723  0.00  0.00    +0.046 A 
ATOM     29  C   UNL     1      -4.025  -7.141  -6.946  0.00  0.00    +0.044 C 
ENDBRANCH  22  23
ENDBRANCH   9  22
TORSDOF 8
