REMARK  Name = ZINC36206771
REMARK  16 active torsions:
REMARK  status: ('A' for Active; 'I' for Inactive)
REMARK    1  A    between atoms: C_1  and  C_2
REMARK    2  A    between atoms: C_8  and  C_19
REMARK    3  A    between atoms: C_12  and  C_13
REMARK    4  A    between atoms: C_13  and  O_15
REMARK    5  A    between atoms: O_15  and  C_16
REMARK    6  A    between atoms: C_16  and  C_17
REMARK    7  A    between atoms: C_19  and  N_20
REMARK    8  A    between atoms: N_20  and  C_21
REMARK    9  A    between atoms: N_20  and  C_25
REMARK   10  A    between atoms: C_21  and  C_22
REMARK   11  A    between atoms: C_22  and  O_23
REMARK   12  A    between atoms: O_23  and  C_24
REMARK   13  A    between atoms: C_25  and  C_26
REMARK   14  A    between atoms: C_26  and  C_28
REMARK   15  A    between atoms: C_26  and  O_35
REMARK   16  A    between atoms: C_28  and  C_29
REMARK                            x       y       z     vdW  Elec       q    Type
REMARK                         _______ _______ _______ _____ _____    ______ ____
ROOT
ATOM      1  C   UNL     1      -6.425  -3.152  -7.978  0.00  0.00    +0.046 C 
ATOM      2  C   UNL     1      -5.651  -4.261  -7.313  0.00  0.00    -0.015 A 
ATOM      3  C   UNL     1      -4.507  -3.968  -6.569  0.00  0.00    +0.076 A 
ATOM      4  C   UNL     1      -3.876  -2.655  -6.302  0.00  0.00    +0.260 A 
ATOM      5  O   UNL     1      -4.352  -1.629  -6.753  0.00  0.00    -0.267 OA
ATOM      6  N   UNL     1      -2.761  -2.626  -5.545  0.00  0.00    -0.312 N 
ATOM      7  H   UNL     1      -2.335  -1.774  -5.360  0.00  0.00    +0.170 HD
ATOM      8  C   UNL     1      -2.222  -3.761  -5.037  0.00  0.00    +0.094 A 
ATOM      9  N   UNL     1      -2.753  -4.934  -5.254  0.00  0.00    -0.229 NA
ATOM     10  C   UNL     1      -3.851  -5.076  -5.985  0.00  0.00    +0.116 A 
ATOM     11  S   UNL     1      -4.848  -6.454  -6.494  0.00  0.00    -0.062 S 
ATOM     12  C   UNL     1      -6.071  -5.555  -7.432  0.00  0.00    +0.102 A 
ENDROOT
BRANCH  12  13
ATOM     13  C   UNL     1      -7.235  -6.075  -8.152  0.00  0.00    +0.347 C 
ATOM     14  O   UNL     1      -7.972  -5.313  -8.748  0.00  0.00    -0.244 OA
BRANCH  13  15
ATOM     15  O   UNL     1      -7.489  -7.400  -8.155  0.00  0.00    -0.457 OA
BRANCH  15  16
ATOM     16  C   UNL     1      -8.642  -7.838  -8.878  0.00  0.00    +0.259 C 
BRANCH  16  17
ATOM     17  C   UNL     1      -8.764  -9.336  -8.769  0.00  0.00    +0.006 C 
ATOM     18  C   UNL     1      -9.927  -9.882  -8.512  0.00  0.00    +0.007 C 
ENDBRANCH  16  17
ENDBRANCH  15  16
ENDBRANCH  13  15
ENDBRANCH  12  13
BRANCH   8  19
ATOM     19  C   UNL     1      -0.974  -3.667  -4.198  0.00  0.00    -0.003 C 
BRANCH  19  20
ATOM     20  N   UNL     1      -0.493  -5.019  -3.883  0.00  0.00    +0.388 N 
ATOM     21  H   UNL     1      -1.243  -5.555  -3.472  0.00  0.00    -0.081 HD
BRANCH  20  22
ATOM     22  C   UNL     1       0.624  -4.932  -2.933  0.00  0.00    -0.050 C 
BRANCH  22  23
ATOM     23  C   UNL     1       0.139  -4.287  -1.633  0.00  0.00    +0.141 C 
BRANCH  23  24
ATOM     24  O   UNL     1      -0.859  -5.115  -1.033  0.00  0.00    -0.385 OA
ATOM     25  C   UNL     1      -1.460  -4.550   0.133  0.00  0.00    +0.193 C 
ENDBRANCH  23  24
ENDBRANCH  22  23
ENDBRANCH  20  22
BRANCH  20  26
ATOM     26  C   UNL     1      -0.038  -5.677  -5.115  0.00  0.00    -0.046 C 
BRANCH  26  27
ATOM     27  C   UNL     1       0.267  -7.148  -4.825  0.00  0.00    +0.102 C 
BRANCH  27  28
ATOM     28  O   UNL     1       1.406  -7.239  -3.967  0.00  0.00    -0.393 OA
ATOM     29  H   UNL     1       2.209  -6.849  -4.338  0.00  0.00    +0.210 HD
ENDBRANCH  27  28
BRANCH  27  30
ATOM     30  C   UNL     1       0.557  -7.877  -6.138  0.00  0.00    +0.064 C 
BRANCH  30  31
ATOM     31  C   UNL     1       0.736  -9.348  -5.867  0.00  0.00    -0.045 A 
ATOM     32  C   UNL     1       1.990  -9.850  -5.573  0.00  0.00    +0.004 A 
ATOM     33  C   UNL     1       2.154 -11.200  -5.324  0.00  0.00    +0.000 A 
ATOM     34  C   UNL     1       1.064 -12.048  -5.369  0.00  0.00    +0.000 A 
ATOM     35  C   UNL     1      -0.191 -11.547  -5.662  0.00  0.00    +0.000 A 
ATOM     36  C   UNL     1      -0.355 -10.196  -5.907  0.00  0.00    +0.004 A 
ENDBRANCH  30  31
ENDBRANCH  27  30
ENDBRANCH  26  27
ENDBRANCH  20  26
ENDBRANCH  19  20
ENDBRANCH   8  19
TORSDOF 14
