REMARK  Name = ZINC09373267
REMARK  4 active torsions:
REMARK  status: ('A' for Active; 'I' for Inactive)
REMARK    1  A    between atoms: C_6  and  S_7
REMARK    2  A    between atoms: S_7  and  C_8
REMARK    3  A    between atoms: C_15  and  C_17
REMARK    4  A    between atoms: C_22  and  N_23
REMARK                            x       y       z     vdW  Elec       q    Type
REMARK                         _______ _______ _______ _____ _____    ______ ____
ROOT
ATOM      1  C   UNL     1      -0.066   1.560  -0.106  0.00  0.00    +0.017 A 
ATOM      2  C   UNL     1       1.097   2.266  -0.093  0.00  0.00    +0.030 A 
ATOM      3  C   UNL     1       2.348   1.607  -0.106  0.00  0.00    +0.080 A 
ATOM      4  C   UNL     1       2.311   0.194  -0.132  0.00  0.00    +0.042 A 
ATOM      5  C   UNL     1       1.137  -0.516  -0.145  0.00  0.00    +0.032 A 
ATOM      6  C   UNL     1      -0.073   0.167  -0.132  0.00  0.00    +0.014 A 
ATOM      7  S   UNL     1       4.037  -0.229  -0.140  0.00  0.00    -0.052 S 
ATOM      8  C   UNL     1       4.678   1.439  -0.109  0.00  0.00    +0.166 A 
ATOM      9  N   UNL     1       3.581   2.160  -0.096  0.00  0.00    -0.225 NA
ATOM     10  N   UNL     1       5.996   1.863  -0.101  0.00  0.00    -0.261 N 
ATOM     11  C   UNL     1       6.280   3.180  -0.076  0.00  0.00    +0.252 C 
ATOM     12  O   UNL     1       5.380   3.996  -0.061  0.00  0.00    -0.270 OA
ATOM     13  H   UNL     1       6.715   1.212  -0.113  0.00  0.00    +0.157 HD
ENDROOT
BRANCH  11  14
ATOM     14  C   UNL     1       7.687   3.632  -0.068  0.00  0.00    +0.069 A 
ATOM     15  C   UNL     1       8.566   3.209  -1.067  0.00  0.00    +0.035 A 
ATOM     16  C   UNL     1       9.877   3.640  -1.055  0.00  0.00    +0.042 A 
ATOM     17  C   UNL     1      10.324   4.481  -0.050  0.00  0.00    +0.022 A 
ATOM     18  C   UNL     1       9.459   4.899   0.946  0.00  0.00    +0.035 A 
ATOM     19  C   UNL     1       8.145   4.480   0.943  0.00  0.00    +0.138 A 
ATOM     20 CL   UNL     1      10.971   3.121  -2.300  0.00  0.00    -0.084 Cl
BRANCH  19  21
ATOM     21  N   UNL     1       7.221   4.928   2.010  0.00  0.00    +0.057 N 
ATOM     22  O   UNL     1       7.587   5.759   2.822  0.00  0.00    -0.126 OA
ATOM     23  O   UNL     1       6.096   4.466   2.075  0.00  0.00    -0.126 OA
ENDBRANCH  19  21
ENDBRANCH  11  14
BRANCH   6  24
ATOM     24  S   UNL     1      -1.597  -0.717  -0.147  0.00  0.00    -0.056 S 
BRANCH  24  25
ATOM     25  C   UNL     1      -2.860   0.584  -0.122  0.00  0.00    +0.404 C 
ATOM     26  F   UNL     1      -2.710   1.357   1.035  0.00  0.00    -0.197 F 
ATOM     27  F   UNL     1      -2.712   1.400  -1.249  0.00  0.00    -0.197 F 
ENDBRANCH  24  25
ENDBRANCH   6  24
TORSDOF 4
