REMARK  Name = ZINC39481055
REMARK  9 active torsions:
REMARK  status: ('A' for Active; 'I' for Inactive)
REMARK    1  A    between atoms: C_1  and  C_2
REMARK    2  A    between atoms: C_2  and  C_3
REMARK    3  A    between atoms: C_6  and  N_23
REMARK    4  A    between atoms: C_7  and  N_9
REMARK    5  A    between atoms: C_13  and  C_16
REMARK    6  A    between atoms: C_16  and  C_17
REMARK    7  A    between atoms: N_23  and  S_24
REMARK    8  A    between atoms: S_24  and  C_27
REMARK    9  A    between atoms: C_32  and  O_33
REMARK                            x       y       z     vdW  Elec       q    Type
REMARK                         _______ _______ _______ _____ _____    ______ ____
ROOT
ATOM      1  C   UNL     1       1.274   0.555  -1.743  0.00  0.00    -0.046 A 
ATOM      2  C   UNL     1       0.414   0.130  -2.739  0.00  0.00    +0.005 A 
ATOM      3  C   UNL     1       0.895  -0.610  -3.804  0.00  0.00    +0.026 A 
ATOM      4  C   UNL     1       2.243  -0.926  -3.876  0.00  0.00    +0.069 A 
ATOM      5  C   UNL     1       3.110  -0.496  -2.872  0.00  0.00    +0.052 A 
ATOM      6  C   UNL     1       2.620   0.249  -1.810  0.00  0.00    +0.028 A 
ENDROOT
BRANCH   5   7
ATOM      7  N   UNL     1       4.473  -0.812  -2.938  0.00  0.00    -0.332 N 
ATOM      8  C   UNL     1       5.426   0.085  -3.610  0.00  0.00    +0.086 C 
ATOM      9  C   UNL     1       6.259  -0.742  -4.595  0.00  0.00    -0.063 C 
ATOM     10  N   UNL     1       6.883  -1.865  -3.883  0.00  0.00    +0.383 N 
ATOM     11  C   UNL     1       5.846  -2.776  -3.381  0.00  0.00    -0.050 C 
ATOM     12  C   UNL     1       4.993  -2.047  -2.331  0.00  0.00    +0.089 C 
ATOM     13  H   UNL     1       7.491  -2.365  -4.514  0.00  0.00    -0.085 HD
ATOM     14  H   UNL     1       7.423  -1.512  -3.108  0.00  0.00    -0.085 HD
BRANCH  11  15
ATOM     15  C   UNL     1       6.508  -3.997  -2.739  0.00  0.00    +0.021 C 
BRANCH  15  16
ATOM     16  C   UNL     1       7.249  -4.779  -3.793  0.00  0.00    -0.049 A 
ATOM     17  C   UNL     1       6.602  -5.779  -4.494  0.00  0.00    +0.003 A 
ATOM     18  C   UNL     1       7.281  -6.497  -5.461  0.00  0.00    +0.000 A 
ATOM     19  C   UNL     1       8.607  -6.213  -5.728  0.00  0.00    +0.000 A 
ATOM     20  C   UNL     1       9.254  -5.212  -5.027  0.00  0.00    +0.000 A 
ATOM     21  C   UNL     1       8.574  -4.492  -4.064  0.00  0.00    +0.003 A 
ENDBRANCH  15  16
ENDBRANCH  11  15
ENDBRANCH   5   7
BRANCH   1  23
ATOM     22  C   UNL     1       0.803   2.850  -0.930  0.00  0.00    +0.009 C 
ATOM     23  C   UNL     1       0.742   1.361  -0.586  0.00  0.00    +0.032 C 
ENDBRANCH   1  23
BRANCH   4  24
ATOM     24  N   UNL     1       2.732  -1.675  -4.953  0.00  0.00    -0.214 N 
ATOM     25  H   UNL     1       3.451  -2.311  -4.814  0.00  0.00    +0.174 HD
BRANCH  24  26
ATOM     26  S   UNL     1       2.084  -1.474  -6.463  0.00  0.00    +0.076 S 
ATOM     27  O   UNL     1       1.991  -0.073  -6.682  0.00  0.00    -0.150 OA
ATOM     28  O   UNL     1       2.806  -2.334  -7.333  0.00  0.00    -0.150 OA
BRANCH  26  29
ATOM     29  C   UNL     1       0.432  -2.086  -6.407  0.00  0.00    +0.150 A 
ATOM     30  C   UNL     1      -0.630  -1.229  -6.622  0.00  0.00    +0.032 A 
ATOM     31  C   UNL     1      -1.926  -1.708  -6.577  0.00  0.00    +0.002 A 
ATOM     32  C   UNL     1      -2.162  -3.046  -6.318  0.00  0.00    +0.004 A 
ATOM     33  C   UNL     1      -1.103  -3.907  -6.103  0.00  0.00    +0.047 A 
ATOM     34  C   UNL     1       0.198  -3.429  -6.152  0.00  0.00    +0.143 A 
BRANCH  34  35
ATOM     35  O   UNL     1       1.242  -4.275  -5.947  0.00  0.00    -0.505 OA
ATOM     36  H   UNL     1       1.499  -4.364  -5.019  0.00  0.00    +0.292 HD
ENDBRANCH  34  35
ENDBRANCH  26  29
ENDBRANCH  24  26
ENDBRANCH   4  24
TORSDOF 8
