REMARK  Name = ZINC40196430
REMARK  8 active torsions:
REMARK  status: ('A' for Active; 'I' for Inactive)
REMARK    1  A    between atoms: C_1  and  C_2
REMARK    2  A    between atoms: C_2  and  C_4
REMARK    3  A    between atoms: C_2  and  N_24
REMARK    4  A    between atoms: N_12  and  C_13
REMARK    5  A    between atoms: C_13  and  C_14
REMARK    6  A    between atoms: N_16  and  C_17
REMARK    7  A    between atoms: N_16  and  C_18
REMARK    8  A    between atoms: C_25  and  C_27
REMARK                            x       y       z     vdW  Elec       q    Type
REMARK                         _______ _______ _______ _____ _____    ______ ____
ROOT
ATOM      1  C   UNL     1       0.707  -0.490  -1.238  0.00  0.00    +0.131 A 
ATOM      2  N   UNL     1       1.995  -0.465  -1.421  0.00  0.00    -0.230 NA
ATOM      3  C   UNL     1       2.293  -0.977  -2.643  0.00  0.00    +0.089 A 
ATOM      4  C   UNL     1       3.488  -1.182  -3.337  0.00  0.00    +0.030 A 
ATOM      5  C   UNL     1       3.464  -1.732  -4.587  0.00  0.00    +0.002 A 
ATOM      6  C   UNL     1       2.261  -2.090  -5.179  0.00  0.00    +0.002 A 
ATOM      7  C   UNL     1       1.069  -1.896  -4.514  0.00  0.00    +0.028 A 
ATOM      8  C   UNL     1       1.075  -1.339  -3.242  0.00  0.00    +0.069 A 
ATOM      9  N   UNL     1       0.091  -1.024  -2.326  0.00  0.00    -0.317 N 
ENDROOT
BRANCH   1  11
ATOM     10  C   UNL     1      -0.019   1.526   0.010  0.00  0.00    +0.036 C 
ATOM     11  C   UNL     1       0.002  -0.004   0.002  0.00  0.00    +0.136 C 
BRANCH  11  12
ATOM     12  N   UNL     1       0.711  -0.489   1.189  0.00  0.00    -0.304 N 
ATOM     13  C   UNL     1       0.051  -0.633   2.355  0.00  0.00    +0.242 C 
ATOM     14  O   UNL     1      -1.129  -0.361   2.423  0.00  0.00    -0.273 OA
ATOM     15  H   UNL     1       1.654  -0.707   1.135  0.00  0.00    +0.149 HD
BRANCH  13  16
ATOM     16  C   UNL     1       0.780  -1.133   3.576  0.00  0.00    +0.204 C 
ATOM     17  C   UNL     1       1.839  -0.097   4.031  0.00  0.00    +0.043 C 
ATOM     18  C   UNL     1       1.972  -0.454   5.537  0.00  0.00    +0.031 C 
ATOM     19  C   UNL     1       0.534  -0.884   5.900  0.00  0.00    +0.161 C 
ATOM     20  O   UNL     1      -0.127  -1.255   4.683  0.00  0.00    -0.367 OA
ENDBRANCH  13  16
ENDBRANCH  11  12
ENDBRANCH   1  11
BRANCH   9  21
ATOM     21  C   UNL     1      -1.350  -1.225  -2.497  0.00  0.00    +0.219 C 
BRANCH  21  22
ATOM     22  C   UNL     1      -1.958   0.001  -3.127  0.00  0.00    +0.235 C 
ATOM     23  O   UNL     1      -1.256   0.950  -3.406  0.00  0.00    -0.274 OA
ATOM     24  N   UNL     1      -3.281   0.044  -3.380  0.00  0.00    -0.300 N 
ATOM     25  C   UNL     1      -4.128  -1.102  -3.042  0.00  0.00    +0.132 C 
BRANCH  24  26
ATOM     26  C   UNL     1      -3.871   1.237  -3.992  0.00  0.00    +0.076 C 
ATOM     27  C   UNL     1      -4.928   1.822  -3.053  0.00  0.00    +0.022 C 
ATOM     28  C   UNL     1      -5.545   3.068  -3.693  0.00  0.00    +0.002 C 
ATOM     29  C   UNL     1      -6.199   2.687  -5.023  0.00  0.00    +0.000 C 
ATOM     30  C   UNL     1      -5.142   2.102  -5.962  0.00  0.00    +0.002 C 
ATOM     31  C   UNL     1      -4.525   0.856  -5.322  0.00  0.00    +0.022 C 
ENDBRANCH  24  26
ENDBRANCH  21  22
ENDBRANCH   9  21
TORSDOF 6
