REMARK  Name = ZINC65074885
REMARK  6 active torsions:
REMARK  status: ('A' for Active; 'I' for Inactive)
REMARK    1  A    between atoms: C_1  and  C_2
REMARK    2  A    between atoms: C_4  and  C_30
REMARK    3  A    between atoms: C_5  and  S_9
REMARK    4  A    between atoms: C_7  and  C_8
REMARK    5  A    between atoms: S_9  and  N_12
REMARK    6  A    between atoms: N_23  and  C_24
REMARK                            x       y       z     vdW  Elec       q    Type
REMARK                         _______ _______ _______ _____ _____    ______ ____
ROOT
ATOM      1  N   UNL     1      -1.860  -4.751  -1.000  0.00  0.00    -0.176 NA
ATOM      2  C   UNL     1      -3.051  -4.816  -0.142  0.00  0.00    +0.111 C 
ATOM      3  C   UNL     1      -4.090  -3.819  -0.664  0.00  0.00    +0.047 C 
ATOM      4  C   UNL     1      -4.366  -4.103  -2.143  0.00  0.00    +0.075 C 
ATOM      5  C   UNL     1      -3.075  -3.921  -2.946  0.00  0.00    +0.047 C 
ATOM      6  C   UNL     1      -2.025  -4.913  -2.450  0.00  0.00    +0.111 C 
ATOM      7  C   UNL     1      -5.412  -3.151  -2.650  0.00  0.00    +0.089 C 
ATOM      8  N   UNL     1      -6.389  -3.505  -3.396  0.00  0.00    -0.374 N 
ATOM      9  C   UNL     1      -6.616  -4.876  -3.840  0.00  0.00    +0.129 C 
ATOM     10  C   UNL     1      -5.341  -5.704  -3.657  0.00  0.00    +0.102 C 
ATOM     11  N   UNL     1      -4.837  -5.488  -2.290  0.00  0.00    -0.303 NA
ATOM     12  N   UNL     1      -5.314  -1.832  -2.294  0.00  0.00    -0.330 N 
ATOM     13  H   UNL     1      -4.104  -6.145  -2.068  0.00  0.00    +0.123 HD
ATOM     14  H   UNL     1      -4.583  -1.535  -1.728  0.00  0.00    +0.147 HD
ATOM     15  H   UNL     1      -7.016  -2.822  -3.683  0.00  0.00    +0.161 HD
ENDROOT
BRANCH  12  16
ATOM     16  C   UNL     1      -6.312  -0.869  -2.766  0.00  0.00    +0.071 C 
ATOM     17  C   UNL     1      -5.921  -0.370  -4.158  0.00  0.00    +0.022 C 
ATOM     18  C   UNL     1      -6.963   0.635  -4.652  0.00  0.00    +0.002 C 
ATOM     19  C   UNL     1      -7.027   1.819  -3.685  0.00  0.00    +0.000 C 
ATOM     20  C   UNL     1      -7.419   1.321  -2.293  0.00  0.00    +0.002 C 
ATOM     21  C   UNL     1      -6.376   0.315  -1.799  0.00  0.00    +0.022 C 
ENDBRANCH  12  16
BRANCH   1  22
ATOM     22  S   UNL     1      -0.361  -4.493  -0.345  0.00  0.00    +0.061 S 
ATOM     23  O   UNL     1       0.577  -5.099  -1.224  0.00  0.00    -0.153 OA
ATOM     24  O   UNL     1      -0.452  -4.842   1.030  0.00  0.00    -0.153 OA
BRANCH  22  29
ATOM     25  C   UNL     1       0.678   1.447  -0.546  0.00  0.00    +0.044 C 
ATOM     26  C   UNL     1       0.419  -0.036  -0.496  0.00  0.00    -0.047 A 
ATOM     27  C   UNL     1      -0.553  -0.540   0.349  0.00  0.00    +0.009 A 
ATOM     28  C   UNL     1      -0.791  -1.901   0.395  0.00  0.00    -0.024 A 
ATOM     29  C   UNL     1      -0.058  -2.758  -0.404  0.00  0.00    +0.109 A 
ATOM     30  C   UNL     1       0.912  -2.255  -1.250  0.00  0.00    +0.032 A 
ATOM     31  C   UNL     1       1.148  -0.893  -1.299  0.00  0.00    -0.046 A 
ATOM     32  C   UNL     1       2.202  -0.343  -2.225  0.00  0.00    +0.044 C 
ATOM     33  C   UNL     1      -1.849  -2.450   1.317  0.00  0.00    +0.046 C 
ENDBRANCH  22  29
ENDBRANCH   1  22
TORSDOF 3
