REMARK  Name = ZINC63846867
REMARK  8 active torsions:
REMARK  status: ('A' for Active; 'I' for Inactive)
REMARK    1  A    between atoms: C_1  and  C_2
REMARK    2  A    between atoms: C_2  and  C_3
REMARK    3  A    between atoms: N_6  and  C_13
REMARK    4  A    between atoms: N_9  and  C_10
REMARK    5  A    between atoms: C_10  and  C_11
REMARK    6  A    between atoms: C_10  and  C_12
REMARK    7  A    between atoms: N_16  and  C_19
REMARK    8  A    between atoms: C_23  and  N_25
REMARK                            x       y       z     vdW  Elec       q    Type
REMARK                         _______ _______ _______ _____ _____    ______ ____
ROOT
ATOM      1  C   UNL     1       1.531  -4.154   1.855  0.00  0.00    -0.066 C 
ATOM      2  C   UNL     1       2.347  -4.418   0.588  0.00  0.00    +0.004 C 
ATOM      3  C   UNL     1       2.512  -5.929   0.397  0.00  0.00    +0.103 C 
ATOM      4  N   UNL     1       3.095  -6.499   1.619  0.00  0.00    -0.330 N 
ATOM      5  C   UNL     1       2.439  -6.231   2.906  0.00  0.00    +0.103 C 
ATOM      6  C   UNL     1       2.275  -4.716   3.069  0.00  0.00    +0.004 C 
ENDROOT
BRANCH   1   9
ATOM      7  C   UNL     1       0.447  -0.658   1.025  0.00  0.00    +0.040 C 
ATOM      8  C   UNL     1       0.628  -2.168   0.859  0.00  0.00    -0.059 C 
ATOM      9  N   UNL     1       1.342  -2.708   2.024  0.00  0.00    +0.383 N 
ATOM     10  C   UNL     1       0.558  -2.455   3.240  0.00  0.00    -0.063 C 
ATOM     11  C   UNL     1       0.377  -0.947   3.426  0.00  0.00    +0.066 C 
ATOM     12  N   UNL     1      -0.313  -0.390   2.254  0.00  0.00    -0.301 NA
ATOM     13  H   UNL     1       2.242  -2.258   2.104  0.00  0.00    -0.081 HD
BRANCH  12  14
ATOM     14  C   UNL     1      -0.556   1.049   2.420  0.00  0.00    +0.051 C 
ATOM     15  C   UNL     1      -1.424   1.281   3.659  0.00  0.00    +0.024 C 
ATOM     16  C   UNL     1       0.780   1.776   2.590  0.00  0.00    +0.024 C 
ENDBRANCH  12  14
BRANCH   7  18
ATOM     17  C   UNL     1       0.522  -0.290  -1.445  0.00  0.00    +0.005 C 
ATOM     18  C   UNL     1      -0.315  -0.099  -0.178  0.00  0.00    +0.013 C 
ENDBRANCH   7  18
ENDBRANCH   1   9
BRANCH   4  19
ATOM     19  C   UNL     1       4.250  -7.282   1.558  0.00  0.00    +0.031 A 
ATOM     20  C   UNL     1       4.852  -7.725   2.730  0.00  0.00    +0.023 A 
ATOM     21  C   UNL     1       5.994  -8.500   2.670  0.00  0.00    +0.004 A 
ATOM     22  C   UNL     1       6.542  -8.836   1.447  0.00  0.00    +0.024 A 
ATOM     23  C   UNL     1       5.945  -8.396   0.273  0.00  0.00    +0.040 A 
ATOM     24  C   UNL     1       4.794  -7.623   0.328  0.00  0.00    +0.046 A 
BRANCH  23  25
ATOM     25  N   UNL     1       6.501  -8.737  -0.966  0.00  0.00    -0.254 N 
ATOM     26  C   UNL     1       6.043  -8.239  -2.271  0.00  0.00    +0.134 C 
ATOM     27  C   UNL     1       6.988  -8.921  -3.279  0.00  0.00    +0.125 C 
ATOM     28  N   UNL     1       7.878  -9.731  -2.434  0.00  0.00    -0.297 N 
ATOM     29  C   UNL     1       7.538  -9.564  -1.150  0.00  0.00    +0.307 C 
ATOM     30  O   UNL     1       8.116 -10.117  -0.234  0.00  0.00    -0.252 OA
ATOM     31  H   UNL     1       8.600 -10.294  -2.756  0.00  0.00    +0.150 HD
ENDBRANCH  23  25
ENDBRANCH   4  19
TORSDOF 5
