REMARK  Name = ZINC09598631
REMARK  8 active torsions:
REMARK  status: ('A' for Active; 'I' for Inactive)
REMARK    1  A    between atoms: C_4  and  N_7
REMARK    2  A    between atoms: N_15  and  C_18
REMARK    3  A    between atoms: C_18  and  C_19
REMARK    4  A    between atoms: N_21  and  C_22
REMARK    5  A    between atoms: C_22  and  C_23
REMARK    6  A    between atoms: C_23  and  C_24
REMARK    7  A    between atoms: C_27  and  S_30
REMARK    8  A    between atoms: S_30  and  N_33
REMARK                            x       y       z     vdW  Elec       q    Type
REMARK                         _______ _______ _______ _____ _____    ______ ____
ROOT
ATOM      1  C   UNL     1       0.711   0.453  -5.688  0.00  0.00    +0.222 C 
ENDROOT
BRANCH   1  10
ATOM      2  N   UNL     1      -0.816   3.129  -7.707  0.00  0.00    -0.228 N 
ATOM      3  C   UNL     1      -2.069   2.674  -7.936  0.00  0.00    +0.275 A 
ATOM      4  O   UNL     1      -2.856   3.335  -8.590  0.00  0.00    -0.266 OA
ATOM      5  C   UNL     1      -2.447   1.434  -7.412  0.00  0.00    +0.101 A 
ATOM      6  C   UNL     1      -1.560   0.655  -6.664  0.00  0.00    +0.066 A 
ATOM      7  C   UNL     1      -2.084  -0.551  -6.207  0.00  0.00    +0.034 A 
ATOM      8  C   UNL     1      -3.359  -0.891  -6.507  0.00  0.00    +0.048 A 
ATOM      9  S   UNL     1      -3.924   0.454  -7.445  0.00  0.00    -0.090 S 
ATOM     10  N   UNL     1      -0.281   1.200  -6.466  0.00  0.00    -0.284 N 
ATOM     11  C   UNL     1       0.045   2.393  -6.984  0.00  0.00    +0.337 A 
ATOM     12  O   UNL     1       1.166   2.826  -6.793  0.00  0.00    -0.246 OA
BRANCH   2  16
ATOM     13  C   UNL     1       0.373   6.817  -9.241  0.00  0.00    +0.000 A 
ATOM     14  C   UNL     1       0.553   5.668  -9.989  0.00  0.00    +0.002 A 
ATOM     15  C   UNL     1       0.160   4.444  -9.483  0.00  0.00    +0.026 A 
ATOM     16  C   UNL     1      -0.416   4.369  -8.223  0.00  0.00    +0.054 A 
ATOM     17  C   UNL     1      -0.600   5.525  -7.476  0.00  0.00    +0.026 A 
ATOM     18  C   UNL     1      -0.201   6.745  -7.985  0.00  0.00    +0.002 A 
ENDBRANCH   2  16
ENDBRANCH   1  10
BRANCH   1  19
ATOM     19  C   UNL     1       0.601   0.836  -4.234  0.00  0.00    +0.233 C 
ATOM     20  O   UNL     1      -0.224   1.652  -3.883  0.00  0.00    -0.274 OA
ATOM     21  N   UNL     1       1.420   0.271  -3.325  0.00  0.00    -0.314 N 
ATOM     22  H   UNL     1       2.080  -0.382  -3.606  0.00  0.00    +0.149 HD
BRANCH  21  23
ATOM     23  C   UNL     1       1.313   0.643  -1.912  0.00  0.00    +0.109 C 
BRANCH  23  24
ATOM     24  C   UNL     1       2.349  -0.137  -1.100  0.00  0.00    +0.054 C 
BRANCH  24  25
ATOM     25  C   UNL     1       2.239   0.246   0.354  0.00  0.00    -0.046 A 
ATOM     26  C   UNL     1       2.989   1.296   0.851  0.00  0.00    +0.005 A 
ATOM     27  C   UNL     1       2.885   1.650   2.183  0.00  0.00    +0.029 A 
ATOM     28  C   UNL     1       2.038   0.948   3.020  0.00  0.00    +0.105 A 
ATOM     29  C   UNL     1       1.293  -0.106   2.525  0.00  0.00    +0.029 A 
ATOM     30  C   UNL     1       1.393  -0.457   1.192  0.00  0.00    +0.005 A 
BRANCH  28  31
ATOM     31  S   UNL     1       1.909   1.396   4.720  0.00  0.00    +0.056 S 
ATOM     32  O   UNL     1       2.298   2.760   4.811  0.00  0.00    -0.153 OA
ATOM     33  O   UNL     1       0.641   0.934   5.166  0.00  0.00    -0.153 OA
BRANCH  31  34
ATOM     34  N   UNL     1       3.048   0.523   5.544  0.00  0.00    -0.204 NA
ATOM     35  H   UNL     1       3.626  -0.094   5.068  0.00  0.00    +0.144 HD
ATOM     36  H   UNL     1       3.139   0.628   6.505  0.00  0.00    +0.144 HD
ENDBRANCH  31  34
ENDBRANCH  28  31
ENDBRANCH  24  25
ENDBRANCH  23  24
ENDBRANCH  21  23
ENDBRANCH   1  19
TORSDOF 8
