REMARK  Name = ZINC63384976
REMARK  2 active torsions:
REMARK  status: ('A' for Active; 'I' for Inactive)
REMARK    1  A    between atoms: C_1  and  C_2
REMARK    2  A    between atoms: C_2  and  C_3
REMARK                            x       y       z     vdW  Elec       q    Type
REMARK                         _______ _______ _______ _____ _____    ______ ____
ROOT
ATOM      1  C   UNL     1       0.707  -0.490  -1.238  0.00  0.00    +0.216 C 
ATOM      2  O   UNL     1       1.173   0.309  -2.023  0.00  0.00    -0.276 OA
ATOM      3  N   UNL     1       0.847  -1.812  -1.460  0.00  0.00    -0.281 N 
ATOM      4  C   UNL     1       0.401  -2.768  -0.439  0.00  0.00    +0.113 C 
ATOM      5  C   UNL     1      -0.618  -3.743  -1.058  0.00  0.00    +0.052 C 
ATOM      6  C   UNL     1      -0.045  -4.189  -2.381  0.00  0.00    -0.034 C 
ATOM      7  C   UNL     1       0.163  -5.397  -2.887  0.00  0.00    -0.001 A 
ATOM      8  C   UNL     1      -0.190  -6.739  -2.396  0.00  0.00    +0.010 A 
ATOM      9  C   UNL     1       0.202  -7.784  -3.172  0.00  0.00    +0.001 A 
ATOM     10  C   UNL     1       0.901  -7.630  -4.373  0.00  0.00    +0.002 A 
ATOM     11  C   UNL     1       1.259  -6.434  -4.905  0.00  0.00    +0.026 A 
ATOM     12  C   UNL     1       0.895  -5.260  -4.183  0.00  0.00    +0.043 A 
ATOM     13  N   UNL     1       1.087  -4.006  -4.466  0.00  0.00    -0.375 N 
ATOM     14  C   UNL     1       0.451  -3.196  -3.427  0.00  0.00    +0.143 C 
ATOM     15  C   UNL     1       1.435  -2.276  -2.719  0.00  0.00    +0.165 C 
ATOM     16  C   UNL     1       2.743  -2.961  -2.486  0.00  0.00    +0.009 A 
ATOM     17  C   UNL     1       3.071  -4.088  -1.764  0.00  0.00    +0.023 A 
ATOM     18  C   UNL     1       4.410  -4.464  -1.754  0.00  0.00    +0.018 A 
ATOM     19  C   UNL     1       5.366  -3.739  -2.437  0.00  0.00    +0.017 A 
ATOM     20  C   UNL     1       5.043  -2.604  -3.165  0.00  0.00    +0.025 A 
ATOM     21  C   UNL     1       3.703  -2.216  -3.183  0.00  0.00    +0.039 A 
ATOM     22  N   UNL     1       3.108  -1.140  -3.819  0.00  0.00    -0.283 N 
ATOM     23  C   UNL     1       1.777  -1.096  -3.601  0.00  0.00    +0.248 C 
ATOM     24  O   UNL     1       1.002  -0.268  -4.031  0.00  0.00    -0.273 OA
ATOM     25 BR   UNL     1       4.934  -6.000  -0.783  0.00  0.00    -0.050 Br
ATOM     26  H   UNL     1       3.591  -0.494  -4.358  0.00  0.00    +0.155 HD
ATOM     27  H   UNL     1       1.569  -3.665  -5.236  0.00  0.00    +0.160 HD
ENDROOT
BRANCH   1  29
ATOM     28  C   UNL     1      -0.041   1.526  -0.002  0.00  0.00    +0.013 C 
ATOM     29  C   UNL     1      -0.026  -0.004  -0.014  0.00  0.00    +0.092 C 
ENDBRANCH   1  29
TORSDOF 1
