REMARK  Name = ZINC09292711
REMARK  11 active torsions:
REMARK  status: ('A' for Active; 'I' for Inactive)
REMARK    1  A    between atoms: C_1  and  C_2
REMARK    2  A    between atoms: C_2  and  C_3
REMARK    3  A    between atoms: C_2  and  O_4
REMARK    4  A    between atoms: O_4  and  C_5
REMARK    5  A    between atoms: C_8  and  C_11
REMARK    6  A    between atoms: C_14  and  C_25
REMARK    7  A    between atoms: C_20  and  N_24
REMARK    8  A    between atoms: C_21  and  C_22
REMARK    9  A    between atoms: C_28  and  O_31
REMARK   10  A    between atoms: O_31  and  C_32
REMARK   11  A    between atoms: C_32  and  C_33
REMARK                            x       y       z     vdW  Elec       q    Type
REMARK                         _______ _______ _______ _____ _____    ______ ____
ROOT
ATOM      1  C   UNL     1      -2.167  -5.641  -2.132  0.00  0.00    +0.102 C 
ATOM      2  C   UNL     1      -2.776  -6.537  -1.084  0.00  0.00    +0.054 A 
ATOM      3  C   UNL     1      -2.211  -7.080   0.021  0.00  0.00    +0.074 A 
ATOM      4  N   UNL     1      -3.176  -7.816   0.649  0.00  0.00    -0.273 N 
ATOM      5  H   UNL     1      -3.065  -8.321   1.469  0.00  0.00    +0.189 HD
ATOM      6  N   UNL     1      -4.356  -7.710  -0.104  0.00  0.00    -0.135 NA
ATOM      7  C   UNL     1      -4.121  -6.951  -1.136  0.00  0.00    +0.245 A 
ATOM      8  O   UNL     1      -4.955  -6.567  -2.140  0.00  0.00    -0.421 OA
ATOM      9  C   UNL     1      -4.397  -6.004  -3.230  0.00  0.00    +0.201 C 
ATOM     10  C   UNL     1      -3.123  -5.559  -3.295  0.00  0.00    +0.098 C 
ENDROOT
BRANCH   1  14
ATOM     11  C   UNL     1      -1.538  -1.739  -0.505  0.00  0.00    +0.121 A 
ATOM     12  C   UNL     1      -0.465  -2.468  -0.997  0.00  0.00    +0.046 A 
ATOM     13  C   UNL     1      -0.671  -3.729  -1.522  0.00  0.00    +0.008 A 
ATOM     14  C   UNL     1      -1.945  -4.265  -1.558  0.00  0.00    -0.034 A 
ATOM     15  C   UNL     1      -3.017  -3.540  -1.070  0.00  0.00    +0.008 A 
ATOM     16  C   UNL     1      -2.815  -2.281  -0.538  0.00  0.00    +0.046 A 
BRANCH  11  17
ATOM     17  O   UNL     1      -1.339  -0.499   0.012  0.00  0.00    -0.489 OA
BRANCH  17  19
ATOM     18  C   UNL     1      -1.982   1.168   1.640  0.00  0.00    +0.051 C 
ATOM     19  C   UNL     1      -2.466   0.143   0.612  0.00  0.00    +0.167 C 
ATOM     20  C   UNL     1      -3.283   0.853  -0.469  0.00  0.00    +0.051 C 
ENDBRANCH  17  19
ENDBRANCH  11  17
ENDBRANCH   1  14
BRANCH   3  21
ATOM     21  C   UNL     1      -0.810  -6.909   0.465  0.00  0.00    +0.000 A 
ATOM     22  C   UNL     1       0.233  -7.011  -0.457  0.00  0.00    +0.013 A 
ATOM     23  C   UNL     1       1.538  -6.851  -0.039  0.00  0.00    +0.046 A 
ATOM     24  C   UNL     1       1.814  -6.588   1.296  0.00  0.00    +0.121 A 
ATOM     25  C   UNL     1       0.779  -6.486   2.216  0.00  0.00    +0.046 A 
ATOM     26  C   UNL     1      -0.528  -6.640   1.805  0.00  0.00    +0.013 A 
BRANCH  24  27
ATOM     27  O   UNL     1       3.100  -6.431   1.704  0.00  0.00    -0.487 OA
BRANCH  27  28
ATOM     28  C   UNL     1       3.313  -6.163   3.091  0.00  0.00    +0.264 C 
BRANCH  28  29
ATOM     29  C   UNL     1       4.790  -6.020   3.354  0.00  0.00    -0.010 A 
ATOM     30  C   UNL     1       5.544  -7.131   3.685  0.00  0.00    +0.007 A 
ATOM     31  C   UNL     1       6.898  -7.000   3.927  0.00  0.00    +0.000 A 
ATOM     32  C   UNL     1       7.500  -5.759   3.837  0.00  0.00    +0.000 A 
ATOM     33  C   UNL     1       6.747  -4.648   3.505  0.00  0.00    +0.000 A 
ATOM     34  C   UNL     1       5.393  -4.780   3.259  0.00  0.00    +0.007 A 
ENDBRANCH  28  29
ENDBRANCH  27  28
ENDBRANCH  24  27
ENDBRANCH   3  21
BRANCH   9  35
ATOM     35  N   UNL     1      -5.177  -5.873  -4.352  0.00  0.00    -0.328 N 
ATOM     36  H   UNL     1      -6.096  -6.181  -4.342  0.00  0.00    +0.145 HD
ATOM     37  H   UNL     1      -4.808  -5.472  -5.154  0.00  0.00    +0.145 HD
ENDBRANCH   9  35
BRANCH  10  38
ATOM     38  C   UNL     1      -2.660  -4.985  -4.522  0.00  0.00    +0.101 C 
ATOM     39  N   UNL     1      -2.293  -4.529  -5.496  0.00  0.00    -0.191 NA
ENDBRANCH  10  38
TORSDOF 9
