REMARK  Name = ZINC00688001
REMARK  10 active torsions:
REMARK  status: ('A' for Active; 'I' for Inactive)
REMARK    1  A    between atoms: C_1  and  C_2
REMARK    2  A    between atoms: C_2  and  O_3
REMARK    3  A    between atoms: O_3  and  C_4
REMARK    4  A    between atoms: C_6  and  C_20
REMARK    5  A    between atoms: C_9  and  O_10
REMARK    6  A    between atoms: O_10  and  C_11
REMARK    7  A    between atoms: C_11  and  C_12
REMARK    8  A    between atoms: N_21  and  N_22
REMARK    9  A    between atoms: C_23  and  C_25
REMARK   10  A    between atoms: C_25  and  C_26
REMARK                            x       y       z     vdW  Elec       q    Type
REMARK                         _______ _______ _______ _____ _____    ______ ____
ROOT
ATOM      1  C   UNL     1      -2.438  -2.858   0.011  0.00  0.00    +0.164 A 
ATOM      2  C   UNL     1      -1.248  -2.156   0.002  0.00  0.00    +0.059 A 
ATOM      3  C   UNL     1      -1.264  -0.758   0.010  0.00  0.00    -0.001 A 
ATOM      4  C   UNL     1      -2.485  -0.078   0.031  0.00  0.00    +0.028 A 
ATOM      5  C   UNL     1      -3.669  -0.786   0.033  0.00  0.00    +0.064 A 
ATOM      6  C   UNL     1      -3.651  -2.174   0.026  0.00  0.00    +0.176 A 
ATOM      7 BR   UNL     1      -5.320   0.136   0.053  0.00  0.00    -0.046 Br
ENDROOT
BRANCH   3   8
ATOM      8  C   UNL     1       0.002  -0.004   0.002  0.00  0.00    +0.138 C 
ATOM      9  N   UNL     1      -0.015   1.294   0.009  0.00  0.00    -0.188 NA
BRANCH   9  10
ATOM     10  N   UNL     1       1.188   2.011   0.002  0.00  0.00    -0.207 N 
ATOM     11  C   UNL     1       1.170   3.358   0.009  0.00  0.00    +0.239 C 
ATOM     12  O   UNL     1       0.111   3.950   0.022  0.00  0.00    -0.274 OA
ATOM     13  H   UNL     1       2.035   1.537  -0.009  0.00  0.00    +0.177 HD
BRANCH  11  14
ATOM     14  C   UNL     1       2.465   4.129   0.001  0.00  0.00    +0.162 C 
BRANCH  14  15
ATOM     15  C   UNL     1       2.169   5.607   0.011  0.00  0.00    +0.112 A 
ATOM     16  N   UNL     1       2.013   6.432   1.027  0.00  0.00    -0.144 NA
ATOM     17  N   UNL     1       1.767   7.658   0.865  0.00  0.00    -0.126 NA
ATOM     18  C   UNL     1       1.649   8.194  -0.342  0.00  0.00    +0.179 A 
ATOM     19  S   UNL     1       1.938   6.744  -1.352  0.00  0.00    -0.035 S 
ATOM     20  N   UNL     1       1.385   9.504  -0.716  0.00  0.00    -0.336 N 
ATOM     21  H   UNL     1       1.255  10.185  -0.037  0.00  0.00    +0.144 HD
ATOM     22  H   UNL     1       1.330   9.739  -1.655  0.00  0.00    +0.144 HD
ENDBRANCH  14  15
ENDBRANCH  11  14
ENDBRANCH   9  10
ENDBRANCH   3   8
BRANCH   1  23
ATOM     23  O   UNL     1      -2.425  -4.218   0.003  0.00  0.00    -0.489 OA
BRANCH  23  25
ATOM     24  C   UNL     1      -1.331  -6.373  -0.019  0.00  0.00    +0.048 C 
ATOM     25  C   UNL     1      -1.145  -4.854  -0.013  0.00  0.00    +0.226 C 
ENDBRANCH  23  25
ENDBRANCH   1  23
BRANCH   6  26
ATOM     26  O   UNL     1      -4.821  -2.867   0.033  0.00  0.00    -0.483 OA
BRANCH  26  27
ATOM     27  C   UNL     1      -5.367  -3.205   1.309  0.00  0.00    +0.267 C 
BRANCH  27  28
ATOM     28  C   UNL     1      -6.654  -3.966   1.119  0.00  0.00    +0.025 A 
ATOM     29  C   UNL     1      -7.123  -4.223  -0.155  0.00  0.00    +0.010 A 
ATOM     30  C   UNL     1      -8.301  -4.926  -0.329  0.00  0.00    +0.001 A 
ATOM     31  C   UNL     1      -9.016  -5.362   0.771  0.00  0.00    +0.003 A 
ATOM     32  C   UNL     1      -8.552  -5.101   2.046  0.00  0.00    +0.039 A 
ATOM     33  C   UNL     1      -7.369  -4.402   2.221  0.00  0.00    +0.130 A 
ATOM     34  F   UNL     1      -6.914  -4.146   3.468  0.00  0.00    -0.205 F 
ENDBRANCH  27  28
ENDBRANCH  26  27
ENDBRANCH   6  26
TORSDOF 9
