REMARK  Name = ZINC09548359
REMARK  5 active torsions:
REMARK  status: ('A' for Active; 'I' for Inactive)
REMARK    1  A    between atoms: C_4  and  C_7
REMARK    2  A    between atoms: C_7  and  C_29
REMARK    3  A    between atoms: N_10  and  C_14
REMARK    4  A    between atoms: C_14  and  N_61
REMARK    5  A    between atoms: C_17  and  C_20
REMARK                            x       y       z     vdW  Elec       q    Type
REMARK                         _______ _______ _______ _____ _____    ______ ____
ROOT
ATOM      1  C   UNL     1       5.551   7.377  -3.419  0.00  0.00    +0.164 C 
ATOM      2  C   UNL     1       6.042   6.103  -2.761  0.00  0.00    +0.254 C 
ATOM      3  O   UNL     1       6.859   5.321  -3.198  0.00  0.00    -0.272 OA
ATOM      4  N   UNL     1       5.380   6.019  -1.591  0.00  0.00    -0.241 N 
ATOM      5  C   UNL     1       4.553   7.056  -1.416  0.00  0.00    +0.308 C 
ATOM      6  O   UNL     1       3.852   7.204  -0.434  0.00  0.00    -0.252 OA
ATOM      7  N   UNL     1       4.584   7.918  -2.449  0.00  0.00    -0.278 N 
ATOM      8  H   UNL     1       4.070   8.736  -2.537  0.00  0.00    +0.152 HD
ENDROOT
BRANCH   1  12
ATOM      9  C   UNL     1       3.631   6.519  -7.137  0.00  0.00    +0.000 A 
ATOM     10  C   UNL     1       4.869   5.973  -6.857  0.00  0.00    +0.000 A 
ATOM     11  C   UNL     1       5.491   6.250  -5.654  0.00  0.00    +0.006 A 
ATOM     12  C   UNL     1       4.874   7.074  -4.731  0.00  0.00    -0.011 A 
ATOM     13  C   UNL     1       3.633   7.616  -5.009  0.00  0.00    +0.006 A 
ATOM     14  C   UNL     1       3.013   7.342  -6.214  0.00  0.00    +0.000 A 
ENDBRANCH   1  12
BRANCH   1  15
ATOM     15  C   UNL     1       6.692   8.341  -3.623  0.00  0.00    -0.011 A 
ATOM     16  C   UNL     1       7.834   7.929  -4.285  0.00  0.00    +0.006 A 
ATOM     17  C   UNL     1       8.879   8.814  -4.476  0.00  0.00    +0.000 A 
ATOM     18  C   UNL     1       8.785  10.108  -3.998  0.00  0.00    +0.000 A 
ATOM     19  C   UNL     1       7.645  10.518  -3.332  0.00  0.00    +0.000 A 
ATOM     20  C   UNL     1       6.599   9.634  -3.145  0.00  0.00    +0.006 A 
ENDBRANCH   1  15
BRANCH   4  21
ATOM     21  C   UNL     1       5.549   4.930  -0.625  0.00  0.00    +0.043 C 
BRANCH  21  27
ATOM     22  C   UNL     1       4.296   3.066   0.278  0.00  0.00    -0.076 C 
ATOM     23  C   UNL     1       3.410   1.876  -0.098  0.00  0.00    -0.006 C 
ATOM     24  C   UNL     1       2.109   2.391  -0.721  0.00  0.00    +0.072 C 
ATOM     25  C   UNL     1       2.444   3.253  -1.941  0.00  0.00    -0.006 C 
ATOM     26  C   UNL     1       3.358   4.403  -1.512  0.00  0.00    -0.076 C 
ATOM     27  N   UNL     1       4.601   3.841  -0.943  0.00  0.00    +0.391 N 
ATOM     28  H   UNL     1       5.032   3.216  -1.635  0.00  0.00    -0.079 HD
BRANCH  24  29
ATOM     29  C   UNL     1       1.258   1.223  -1.148  0.00  0.00    +0.200 A 
ATOM     30  N   UNL     1       1.615   0.322  -2.013  0.00  0.00    -0.213 NA
ATOM     31  C   UNL     1       0.602  -0.577  -2.153  0.00  0.00    +0.110 A 
ATOM     32  C   UNL     1       0.431  -1.727  -2.925  0.00  0.00    +0.031 A 
ATOM     33  C   UNL     1      -0.745  -2.438  -2.837  0.00  0.00    +0.002 A 
ATOM     34  C   UNL     1      -1.758  -2.020  -1.988  0.00  0.00    +0.004 A 
ATOM     35  C   UNL     1      -1.603  -0.885  -1.220  0.00  0.00    +0.048 A 
ATOM     36  C   UNL     1      -0.425  -0.156  -1.295  0.00  0.00    +0.155 A 
ATOM     37  O   UNL     1       0.023   0.966  -0.690  0.00  0.00    -0.439 OA
ENDBRANCH  24  29
ENDBRANCH  21  27
ENDBRANCH   4  21
TORSDOF 5
