REMARK  Name = ZINC48466107
REMARK  7 active torsions:
REMARK  status: ('A' for Active; 'I' for Inactive)
REMARK    1  A    between atoms: C_1  and  C_2
REMARK    2  A    between atoms: C_2  and  N_3
REMARK    3  A    between atoms: N_3  and  C_4
REMARK    4  A    between atoms: N_3  and  S_10
REMARK    5  A    between atoms: C_4  and  C_5
REMARK    6  A    between atoms: S_10  and  C_13
REMARK    7  A    between atoms: C_14  and  N_21
REMARK                            x       y       z     vdW  Elec       q    Type
REMARK                         _______ _______ _______ _____ _____    ______ ____
ROOT
ATOM      1  S   UNL     1      -2.353  -1.216   2.014  0.00  0.00    +0.064 S 
ATOM      2  O   UNL     1      -3.464  -2.079   1.808  0.00  0.00    -0.153 OA
ATOM      3  O   UNL     1      -1.385  -1.450   3.027  0.00  0.00    -0.153 OA
ENDROOT
BRANCH   1   4
ATOM      4  C   UNL     1      -3.013   0.391   2.308  0.00  0.00    +0.144 A 
ATOM      5  C   UNL     1      -2.249   1.346   2.967  0.00  0.00    +0.054 A 
ATOM      6  C   UNL     1      -2.771   2.612   3.197  0.00  0.00    +0.044 A 
ATOM      7  C   UNL     1      -4.050   2.919   2.769  0.00  0.00    +0.044 A 
ATOM      8  C   UNL     1      -4.808   1.966   2.112  0.00  0.00    +0.042 A 
ATOM      9  C   UNL     1      -4.288   0.705   1.877  0.00  0.00    +0.070 A 
ATOM     10 CL   UNL     1      -5.240  -0.486   1.047  0.00  0.00    -0.081 Cl
ATOM     11 CL   UNL     1      -4.704   4.501   3.055  0.00  0.00    -0.083 Cl
BRANCH   5  12
ATOM     12  N   UNL     1      -0.958   1.033   3.399  0.00  0.00    -0.356 N 
ATOM     13  H   UNL     1      -0.486   0.280   3.010  0.00  0.00    +0.142 HD
ATOM     14  H   UNL     1      -0.534   1.568   4.087  0.00  0.00    +0.142 HD
ENDBRANCH   5  12
ENDBRANCH   1   4
BRANCH   1  15
ATOM     15  N   UNL     1      -1.531  -1.153   0.578  0.00  0.00    -0.172 NA
BRANCH  15  17
ATOM     16  C   UNL     1       0.047   0.694   0.299  0.00  0.00    +0.022 C 
ATOM     17  C   UNL     1      -0.108  -0.805   0.564  0.00  0.00    +0.106 C 
ENDBRANCH  15  17
BRANCH  15  18
ATOM     18  C   UNL     1      -2.226  -1.446  -0.678  0.00  0.00    +0.151 C 
BRANCH  18  19
ATOM     19  C   UNL     1      -2.022  -2.895  -1.038  0.00  0.00    +0.005 A 
ATOM     20  C   UNL     1      -2.777  -3.971  -0.708  0.00  0.00    +0.012 A 
ATOM     21  C   UNL     1      -2.395  -5.222  -1.156  0.00  0.00    +0.008 A 
ATOM     22  C   UNL     1      -1.277  -5.335  -1.913  0.00  0.00    +0.045 A 
ATOM     23  S   UNL     1      -0.729  -3.639  -2.018  0.00  0.00    -0.100 S 
ENDBRANCH  18  19
ENDBRANCH  15  18
ENDBRANCH   1  15
TORSDOF 6
