REMARK  Name = ZINC35312623
REMARK  9 active torsions:
REMARK  status: ('A' for Active; 'I' for Inactive)
REMARK    1  A    between atoms: C_1  and  C_2
REMARK    2  A    between atoms: C_2  and  C_3
REMARK    3  A    between atoms: C_12  and  C_25
REMARK    4  A    between atoms: C_12  and  C_26
REMARK    5  A    between atoms: N_13  and  C_16
REMARK    6  A    between atoms: C_16  and  C_17
REMARK    7  A    between atoms: N_22  and  C_23
REMARK    8  A    between atoms: C_23  and  C_24
REMARK    9  A    between atoms: N_28  and  C_29
REMARK                            x       y       z     vdW  Elec       q    Type
REMARK                         _______ _______ _______ _____ _____    ______ ____
ROOT
ATOM      1  C   UNL     1       0.746  -1.680  -1.131  0.00  0.00    -0.008 A 
ATOM      2  C   UNL     1       2.081  -1.658  -1.327  0.00  0.00    +0.037 A 
ATOM      3  C   UNL     1       2.621  -2.058  -2.557  0.00  0.00    +0.057 A 
ATOM      4  C   UNL     1       1.690  -2.470  -3.523  0.00  0.00    +0.038 A 
ATOM      5  S   UNL     1       0.132  -2.287  -2.693  0.00  0.00    -0.092 S 
ATOM      6  C   UNL     1       2.357  -2.842  -4.684  0.00  0.00    +0.048 A 
ATOM      7  C   UNL     1       3.690  -2.675  -4.452  0.00  0.00    +0.106 A 
ATOM      8  N   UNL     1       3.858  -2.182  -3.162  0.00  0.00    -0.333 N 
ATOM      9  C   UNL     1       5.182  -1.862  -2.623  0.00  0.00    +0.157 C 
ATOM     10  C   UNL     1       6.221  -2.770  -3.281  0.00  0.00    +0.128 C 
ATOM     11  N   UNL     1       6.067  -2.841  -4.729  0.00  0.00    -0.282 N 
ATOM     12  C   UNL     1       4.850  -2.913  -5.320  0.00  0.00    +0.264 C 
ATOM     13  O   UNL     1       4.726  -3.162  -6.505  0.00  0.00    -0.268 OA
ATOM     14  C   UNL     1       6.085  -4.179  -2.700  0.00  0.00    +0.043 C 
ENDROOT
BRANCH  10  15
ATOM     15  C   UNL     1       7.598  -2.246  -2.963  0.00  0.00    +0.238 C 
ATOM     16  O   UNL     1       7.748  -1.080  -2.663  0.00  0.00    -0.273 OA
ATOM     17  N   UNL     1       8.661  -3.072  -3.012  0.00  0.00    -0.311 N 
ATOM     18  H   UNL     1       8.552  -3.987  -3.316  0.00  0.00    +0.149 HD
BRANCH  17  19
ATOM     19  C   UNL     1       9.984  -2.589  -2.607  0.00  0.00    +0.073 C 
ATOM     20  C   UNL     1      10.576  -1.737  -3.748  0.00  0.00    +0.022 C 
ATOM     21  C   UNL     1      11.645  -0.846  -3.175  0.00  0.00    +0.002 C 
ATOM     22  C   UNL     1      13.051  -1.464  -3.291  0.00  0.00    +0.000 C 
ATOM     23  C   UNL     1      13.072  -2.969  -2.962  0.00  0.00    +0.000 C 
ATOM     24  C   UNL     1      12.218  -3.310  -1.772  0.00  0.00    +0.002 C 
ATOM     25  C   UNL     1      10.822  -3.731  -2.275  0.00  0.00    +0.022 C 
ENDBRANCH  17  19
ENDBRANCH  10  15
BRANCH   1  27
ATOM     26  C   UNL     1      -0.395   0.190   0.031  0.00  0.00    +0.009 C 
ATOM     27  C   UNL     1      -0.032  -1.295   0.100  0.00  0.00    +0.039 C 
ENDBRANCH   1  27
BRANCH  11  28
ATOM     28  C   UNL     1       7.265  -2.834  -5.572  0.00  0.00    +0.094 C 
BRANCH  28  29
ATOM     29  C   UNL     1       7.686  -1.389  -5.847  0.00  0.00    -0.051 C 
ATOM     30  C   UNL     1       8.896  -1.368  -6.805  0.00  0.00    -0.016 C 
ATOM     31  C   UNL     1       8.241  -1.128  -8.190  0.00  0.00    -0.020 C 
ATOM     32  C   UNL     1       7.073  -0.179  -7.824  0.00  0.00    -0.078 C 
ATOM     33  N   UNL     1       6.588  -0.663  -6.510  0.00  0.00    +0.382 N 
ATOM     34  H   UNL     1       5.803  -1.284  -6.645  0.00  0.00    -0.081 HD
BRANCH  33  35
ATOM     35  C   UNL     1       6.176   0.477  -5.681  0.00  0.00    -0.082 C 
ATOM     36  C   UNL     1       4.960   1.156  -6.314  0.00  0.00    -0.017 C 
ENDBRANCH  33  35
ENDBRANCH  28  29
ENDBRANCH  11  28
TORSDOF 6
