REMARK  Name = ZINC45145582
REMARK  6 active torsions:
REMARK  status: ('A' for Active; 'I' for Inactive)
REMARK    1  A    between atoms: C_1  and  C_2
REMARK    2  A    between atoms: C_2  and  C_4
REMARK    3  A    between atoms: C_2  and  N_8
REMARK    4  A    between atoms: N_5  and  O_6
REMARK    5  A    between atoms: N_8  and  C_9
REMARK    6  A    between atoms: N_12  and  C_13
REMARK                            x       y       z     vdW  Elec       q    Type
REMARK                         _______ _______ _______ _____ _____    ______ ____
ROOT
ATOM      1  N   UNL     1       0.780  -0.372   1.190  0.00  0.00    -0.279 N 
ATOM      2  C   UNL     1       2.107   0.212   1.404  0.00  0.00    +0.134 C 
ATOM      3  C   UNL     1       0.260  -1.215   2.104  0.00  0.00    +0.303 C 
ATOM      4  O   UNL     1      -0.841  -1.700   1.926  0.00  0.00    -0.253 OA
ATOM      5  N   UNL     1       0.959  -1.520   3.215  0.00  0.00    -0.294 N 
ATOM      6  H   UNL     1       1.838  -1.134   3.356  0.00  0.00    +0.151 HD
ENDROOT
BRANCH   5   7
ATOM      7  C   UNL     1       0.394  -2.437   4.208  0.00  0.00    +0.037 C 
ATOM      8  C   UNL     1      -0.918  -1.860   4.744  0.00  0.00    +0.029 C 
ATOM      9  C   UNL     1      -1.509  -2.817   5.782  0.00  0.00    -0.008 C 
ATOM     10  C   UNL     1      -0.520  -2.993   6.936  0.00  0.00    +0.007 C 
ATOM     11  C   UNL     1       0.792  -3.569   6.399  0.00  0.00    -0.008 C 
ATOM     12  C   UNL     1       1.383  -2.612   5.362  0.00  0.00    +0.029 C 
ATOM     13  C   UNL     1       0.523  -4.926   5.746  0.00  0.00    +0.007 C 
ATOM     14  C   UNL     1      -0.466  -4.751   4.593  0.00  0.00    -0.008 C 
ATOM     15  C   UNL     1      -1.778  -4.174   5.129  0.00  0.00    +0.007 C 
ATOM     16  C   UNL     1       0.125  -3.794   3.555  0.00  0.00    +0.029 C 
ENDBRANCH   5   7
BRANCH   1  18
ATOM     17  C   UNL     1      -0.097   1.480  -0.144  0.00  0.00    +0.036 C 
ATOM     18  C   UNL     1       0.019  -0.040  -0.017  0.00  0.00    +0.141 C 
BRANCH  18  19
ATOM     19  C   UNL     1       0.730  -0.592  -1.226  0.00  0.00    +0.152 C 
ATOM     20  N   UNL     1       1.776  -1.335  -1.077  0.00  0.00    -0.075 NA
ATOM     21  N   UNL     1       0.263  -0.306  -2.490  0.00  0.00    -0.342 N 
ATOM     22  H   UNL     1      -0.479   0.309  -2.605  0.00  0.00    +0.144 HD
ATOM     23  H   UNL     1       0.675  -0.719  -3.264  0.00  0.00    +0.144 HD
BRANCH  20  24
ATOM     24  O   UNL     1       2.443  -1.854  -2.213  0.00  0.00    -0.408 OA
ATOM     25  H   UNL     1       3.215  -2.397  -2.002  0.00  0.00    +0.328 HD
ENDBRANCH  20  24
ENDBRANCH  18  19
ENDBRANCH   1  18
TORSDOF 4
