REMARK  Name = ZINC39655955
REMARK  10 active torsions:
REMARK  status: ('A' for Active; 'I' for Inactive)
REMARK    1  A    between atoms: C_1  and  C_2
REMARK    2  A    between atoms: C_2  and  C_3
REMARK    3  A    between atoms: C_3  and  C_4
REMARK    4  A    between atoms: C_3  and  C_6
REMARK    5  A    between atoms: C_4  and  C_5
REMARK    6  A    between atoms: C_10  and  C_19
REMARK    7  A    between atoms: N_21  and  C_22
REMARK    8  A    between atoms: C_22  and  C_23
REMARK    9  A    between atoms: C_23  and  C_24
REMARK   10  A    between atoms: C_27  and  C_33
REMARK                            x       y       z     vdW  Elec       q    Type
REMARK                         _______ _______ _______ _____ _____    ______ ____
ROOT
ATOM      1  C   UNL     1       1.214  -2.024   1.278  0.00  0.00    +0.219 C 
ATOM      2  O   UNL     1       0.949  -2.804   2.167  0.00  0.00    -0.275 OA
ATOM      3  N   UNL     1       1.753  -2.472   0.127  0.00  0.00    -0.300 N 
ATOM      4  C   UNL     1       2.148  -1.679  -1.061  0.00  0.00    +0.121 C 
ATOM      5  C   UNL     1       3.466  -2.325  -1.542  0.00  0.00    +0.100 C 
ATOM      6  C   UNL     1       3.418  -3.764  -1.000  0.00  0.00    -0.004 C 
ATOM      7  C   UNL     1       2.091  -3.870  -0.235  0.00  0.00    +0.115 C 
ATOM      8  C   UNL     1       4.588  -4.010  -0.052  0.00  0.00    -0.010 C 
ATOM      9  C   UNL     1       4.551  -5.464   0.429  0.00  0.00    -0.082 C 
ATOM     10  N   UNL     1       4.633  -6.366  -0.727  0.00  0.00    +0.379 N 
ATOM     11  C   UNL     1       3.456  -6.187  -1.586  0.00  0.00    -0.082 C 
ATOM     12  C   UNL     1       3.446  -4.764  -2.152  0.00  0.00    -0.010 C 
ATOM     13  H   UNL     1       5.467  -6.159  -1.254  0.00  0.00    -0.086 HD
ATOM     14  H   UNL     1       4.670  -7.321  -0.404  0.00  0.00    -0.086 HD
ENDROOT
BRANCH   5  15
ATOM     15  C   UNL     1       3.528  -2.331  -3.048  0.00  0.00    +0.218 C 
ATOM     16  O   UNL     1       2.504  -2.314  -3.698  0.00  0.00    -0.275 OA
ATOM     17  N   UNL     1       4.722  -2.356  -3.673  0.00  0.00    -0.315 N 
ATOM     18  H   UNL     1       5.541  -2.369  -3.154  0.00  0.00    +0.149 HD
BRANCH  17  19
ATOM     19  C   UNL     1       4.783  -2.361  -5.137  0.00  0.00    +0.109 C 
BRANCH  19  20
ATOM     20  C   UNL     1       6.245  -2.390  -5.586  0.00  0.00    +0.056 C 
BRANCH  20  21
ATOM     21  C   UNL     1       6.308  -2.396  -7.092  0.00  0.00    -0.021 A 
ATOM     22  C   UNL     1       6.263  -1.225  -7.971  0.00  0.00    +0.003 A 
ATOM     23  C   UNL     1       6.160   0.150  -7.751  0.00  0.00    +0.013 A 
ATOM     24  C   UNL     1       6.145   1.008  -8.814  0.00  0.00    -0.050 A 
ATOM     25  C   UNL     1       6.231   0.523 -10.112  0.00  0.00    +0.005 A 
ATOM     26  C   UNL     1       6.334  -0.830 -10.352  0.00  0.00    +0.026 A 
ATOM     27  C   UNL     1       6.351  -1.721  -9.284  0.00  0.00    +0.047 A 
ATOM     28  N   UNL     1       6.442  -3.092  -9.195  0.00  0.00    -0.360 N 
ATOM     29  C   UNL     1       6.420  -3.476  -7.882  0.00  0.00    +0.087 A 
ATOM     30  C   UNL     1       6.033   2.491  -8.576  0.00  0.00    +0.044 C 
ATOM     31  H   UNL     1       6.515  -3.696  -9.951  0.00  0.00    +0.165 HD
ENDBRANCH  20  21
ENDBRANCH  19  20
ENDBRANCH  17  19
ENDBRANCH   5  15
BRANCH   1  32
ATOM     32  C   UNL     1       0.941  -0.553   1.459  0.00  0.00    +0.075 C 
BRANCH  32  34
ATOM     33  C   UNL     1      -0.206   1.438   0.479  0.00  0.00    +0.004 C 
ATOM     34  C   UNL     1      -0.038  -0.080   0.383  0.00  0.00    +0.009 C 
ENDBRANCH  32  34
BRANCH  32  35
ATOM     35  C   UNL     1       0.333  -0.314   2.843  0.00  0.00    +0.009 C 
ATOM     36  C   UNL     1       1.373  -0.634   3.919  0.00  0.00    +0.004 C 
ENDBRANCH  32  35
ENDBRANCH   1  32
TORSDOF 7
