REMARK  Name = ZINC40732468
REMARK  10 active torsions:
REMARK  status: ('A' for Active; 'I' for Inactive)
REMARK    1  A    between atoms: C_4  and  N_7
REMARK    2  A    between atoms: C_8  and  S_12
REMARK    3  A    between atoms: S_12  and  C_13
REMARK    4  A    between atoms: C_13  and  C_14
REMARK    5  A    between atoms: C_14  and  N_15
REMARK    6  A    between atoms: N_15  and  C_16
REMARK    7  A    between atoms: C_16  and  C_17
REMARK    8  A    between atoms: C_22  and  O_23
REMARK    9  A    between atoms: O_23  and  C_24
REMARK   10  A    between atoms: C_24  and  C_25
REMARK                            x       y       z     vdW  Elec       q    Type
REMARK                         _______ _______ _______ _____ _____    ______ ____
ROOT
ATOM      1  N   UNL     1       3.813  -6.330   3.303  0.00  0.00    +0.382 N 
ATOM      2  H   UNL     1       4.135  -6.819   2.481  0.00  0.00    -0.085 HD
ATOM      3  H   UNL     1       4.608  -6.007   3.835  0.00  0.00    -0.085 HD
ENDROOT
BRANCH   1   4
ATOM      4  C   UNL     1       2.995  -5.179   2.898  0.00  0.00    -0.071 C 
BRANCH   4   5
ATOM      5  C   UNL     1       3.835  -4.234   2.038  0.00  0.00    +0.058 C 
BRANCH   5   6
ATOM      6  S   UNL     1       2.824  -2.812   1.538  0.00  0.00    -0.086 S 
BRANCH   6   8
ATOM      7  N   UNL     1       3.624  -0.652  -0.037  0.00  0.00    -0.187 N 
ATOM      8  C   UNL     1       3.918  -1.831   0.567  0.00  0.00    +0.214 A 
ATOM      9  N   UNL     1       5.176  -2.102   0.291  0.00  0.00    -0.101 NA
ATOM     10  N   UNL     1       5.685  -1.178  -0.441  0.00  0.00    -0.022 NA
ATOM     11  N   UNL     1       4.809  -0.266  -0.689  0.00  0.00    -0.038 NA
BRANCH   7  15
ATOM     12  C   UNL     1      -0.017   1.379   0.010  0.00  0.00    +0.000 A 
ATOM     13  C   UNL     1       1.170   2.089   0.002  0.00  0.00    +0.002 A 
ATOM     14  C   UNL     1       2.377   1.419  -0.013  0.00  0.00    +0.028 A 
ATOM     15  C   UNL     1       2.399   0.031  -0.021  0.00  0.00    +0.070 A 
ATOM     16  C   UNL     1       1.207  -0.680  -0.013  0.00  0.00    +0.028 A 
ATOM     17  C   UNL     1       0.002  -0.004   0.002  0.00  0.00    +0.002 A 
ENDBRANCH   7  15
ENDBRANCH   6   8
ENDBRANCH   5   6
ENDBRANCH   4   5
ENDBRANCH   1   4
BRANCH   1  18
ATOM     18  C   UNL     1       3.007  -7.238   4.129  0.00  0.00    -0.043 C 
BRANCH  18  19
ATOM     19  C   UNL     1       3.847  -8.419   4.544  0.00  0.00    -0.023 A 
ATOM     20  C   UNL     1       3.737  -9.618   3.867  0.00  0.00    +0.005 A 
ATOM     21  C   UNL     1       4.507 -10.701   4.248  0.00  0.00    +0.000 A 
ATOM     22  C   UNL     1       5.389 -10.588   5.306  0.00  0.00    +0.004 A 
ATOM     23  C   UNL     1       5.503  -9.391   5.986  0.00  0.00    +0.046 A 
ATOM     24  C   UNL     1       4.736  -8.301   5.603  0.00  0.00    +0.122 A 
BRANCH  24  25
ATOM     25  O   UNL     1       4.850  -7.120   6.267  0.00  0.00    -0.487 OA
BRANCH  25  26
ATOM     26  C   UNL     1       5.785  -7.071   7.346  0.00  0.00    +0.264 C 
BRANCH  26  27
ATOM     27  C   UNL     1       5.775  -5.694   7.958  0.00  0.00    -0.009 A 
ATOM     28  C   UNL     1       6.626  -4.717   7.475  0.00  0.00    +0.008 A 
ATOM     29  C   UNL     1       6.617  -3.454   8.035  0.00  0.00    +0.022 A 
ATOM     30  C   UNL     1       5.757  -3.166   9.079  0.00  0.00    +0.059 A 
ATOM     31  C   UNL     1       4.905  -4.144   9.563  0.00  0.00    +0.060 A 
ATOM     32  C   UNL     1       4.911  -5.407   8.998  0.00  0.00    +0.028 A 
ATOM     33 CL   UNL     1       3.825  -3.784  10.874  0.00  0.00    -0.082 Cl
ATOM     34 CL   UNL     1       5.747  -1.579   9.784  0.00  0.00    -0.082 Cl
ENDBRANCH  26  27
ENDBRANCH  25  26
ENDBRANCH  24  25
ENDBRANCH  18  19
ENDBRANCH   1  18
TORSDOF 10
