REMARK  Name = ZINC39022095
REMARK  13 active torsions:
REMARK  status: ('A' for Active; 'I' for Inactive)
REMARK    1  A    between atoms: C_1  and  C_2
REMARK    2  A    between atoms: C_2  and  C_4
REMARK    3  A    between atoms: C_2  and  N_8
REMARK    4  A    between atoms: C_4  and  O_6
REMARK    5  A    between atoms: O_6  and  C_7
REMARK    6  A    between atoms: C_9  and  C_11
REMARK    7  A    between atoms: C_23  and  C_25
REMARK    8  A    between atoms: C_27  and  O_35
REMARK    9  A    between atoms: C_28  and  O_33
REMARK   10  A    between atoms: C_29  and  O_31
REMARK   11  A    between atoms: O_31  and  C_32
REMARK   12  A    between atoms: O_33  and  C_34
REMARK   13  A    between atoms: O_35  and  C_36
REMARK                            x       y       z     vdW  Elec       q    Type
REMARK                         _______ _______ _______ _____ _____    ______ ____
ROOT
ATOM      1  C   UNL     1       0.764  -1.142   3.540  0.00  0.00    +0.126 C 
ATOM      2  C   UNL     1       0.069  -1.270   4.745  0.00  0.00    +0.039 C 
ATOM      3  C   UNL     1       0.748  -1.901   5.775  0.00  0.00    -0.008 C 
ATOM      4  C   UNL     1       0.594  -1.950   7.136  0.00  0.00    +0.004 A 
ATOM      5  C   UNL     1      -0.475  -1.579   7.983  0.00  0.00    +0.010 A 
ATOM      6  C   UNL     1      -0.274  -1.715   9.325  0.00  0.00    +0.001 A 
ATOM      7  C   UNL     1       0.913  -2.193   9.879  0.00  0.00    +0.002 A 
ATOM      8  C   UNL     1       1.982  -2.591   9.136  0.00  0.00    +0.026 A 
ATOM      9  C   UNL     1       1.848  -2.503   7.721  0.00  0.00    +0.044 A 
ATOM     10  N   UNL     1       2.679  -2.869   6.775  0.00  0.00    -0.372 N 
ATOM     11  C   UNL     1       2.004  -2.713   5.506  0.00  0.00    +0.160 C 
ATOM     12  C   UNL     1       2.742  -2.099   4.370  0.00  0.00    +0.076 C 
ATOM     13  N   UNL     1       2.069  -1.439   3.454  0.00  0.00    -0.244 NA
ATOM     14  H   UNL     1       3.586  -3.187   6.904  0.00  0.00    +0.161 HD
ENDROOT
BRANCH  12  15
ATOM     15  C   UNL     1       4.198  -2.233   4.270  0.00  0.00    +0.006 A 
ATOM     16  C   UNL     1       4.845  -3.327   4.862  0.00  0.00    +0.059 A 
ATOM     17  C   UNL     1       6.217  -3.450   4.766  0.00  0.00    +0.166 A 
ATOM     18  C   UNL     1       6.958  -2.488   4.081  0.00  0.00    +0.204 A 
ATOM     19  C   UNL     1       6.319  -1.399   3.491  0.00  0.00    +0.166 A 
ATOM     20  C   UNL     1       4.947  -1.271   3.578  0.00  0.00    +0.059 A 
BRANCH  19  21
ATOM     21  O   UNL     1       7.047  -0.463   2.825  0.00  0.00    -0.491 OA
ATOM     22  C   UNL     1       6.328   0.627   2.245  0.00  0.00    +0.277 C 
ENDBRANCH  19  21
BRANCH  18  23
ATOM     23  O   UNL     1       8.308  -2.613   3.988  0.00  0.00    -0.488 OA
ATOM     24  C   UNL     1       8.817  -3.336   2.865  0.00  0.00    +0.277 C 
ENDBRANCH  18  23
BRANCH  17  25
ATOM     25  O   UNL     1       6.846  -4.510   5.340  0.00  0.00    -0.491 OA
ATOM     26  C   UNL     1       6.025  -5.457   6.026  0.00  0.00    +0.277 C 
ENDBRANCH  17  25
ENDBRANCH  12  15
BRANCH   1  28
ATOM     27  N   UNL     1       0.703  -0.552   1.163  0.00  0.00    -0.297 N 
ATOM     28  C   UNL     1       0.046  -0.675   2.333  0.00  0.00    +0.263 C 
ATOM     29  O   UNL     1      -1.137  -0.403   2.397  0.00  0.00    -0.269 OA
ATOM     30  H   UNL     1       1.647  -0.769   1.111  0.00  0.00    +0.150 HD
BRANCH  27  32
ATOM     31  C   UNL     1      -0.031   1.440  -0.052  0.00  0.00    +0.040 C 
ATOM     32  C   UNL     1      -0.008  -0.090  -0.032  0.00  0.00    +0.179 C 
BRANCH  32  33
ATOM     33  C   UNL     1       0.696  -0.598  -1.264  0.00  0.00    +0.327 C 
ATOM     34  O   UNL     1       1.690  -1.277  -1.155  0.00  0.00    -0.249 OA
BRANCH  33  35
ATOM     35  O   UNL     1       0.219  -0.297  -2.482  0.00  0.00    -0.467 OA
ATOM     36  C   UNL     1       0.936  -0.812  -3.605  0.00  0.00    +0.280 C 
ENDBRANCH  33  35
ENDBRANCH  32  33
ENDBRANCH  27  32
ENDBRANCH   1  28
TORSDOF 8
