REMARK  Name = ZINC43247009
REMARK  9 active torsions:
REMARK  status: ('A' for Active; 'I' for Inactive)
REMARK    1  A    between atoms: C_1  and  C_2
REMARK    2  A    between atoms: C_2  and  C_3
REMARK    3  A    between atoms: C_3  and  C_5
REMARK    4  A    between atoms: C_3  and  N_22
REMARK    5  A    between atoms: C_5  and  C_7
REMARK    6  A    between atoms: C_5  and  S_13
REMARK    7  A    between atoms: C_10  and  C_12
REMARK    8  A    between atoms: S_13  and  C_14
REMARK    9  A    between atoms: C_18  and  N_20
REMARK                            x       y       z     vdW  Elec       q    Type
REMARK                         _______ _______ _______ _____ _____    ______ ____
ROOT
ATOM      1  C   UNL     1       0.965  -2.004  -1.151  0.00  0.00    +0.076 C 
ENDROOT
BRANCH   1   2
ATOM      2  C   UNL     1       1.860  -2.278  -2.332  0.00  0.00    +0.002 A 
ATOM      3  C   UNL     1       1.679  -3.146  -3.357  0.00  0.00    +0.012 A 
ATOM      4  C   UNL     1       2.644  -3.231  -4.342  0.00  0.00    +0.011 A 
ATOM      5  C   UNL     1       3.744  -2.444  -4.255  0.00  0.00    -0.013 A 
ATOM      6  S   UNL     1       3.431  -1.539  -2.748  0.00  0.00    -0.097 S 
ATOM      7  C   UNL     1       4.922  -2.351  -5.190  0.00  0.00    +0.051 C 
ENDBRANCH   1   2
BRANCH   1   8
ATOM      8  C   UNL     1       0.542  -0.533  -1.162  0.00  0.00    -0.057 C 
BRANCH   8   9
ATOM      9  N   UNL     1      -0.117  -0.223  -2.438  0.00  0.00    +0.381 N 
ATOM     10  H   UNL     1      -0.396   0.746  -2.446  0.00  0.00    -0.090 HD
ATOM     11  H   UNL     1       0.523  -0.395  -3.198  0.00  0.00    -0.090 HD
ATOM     12  H   UNL     1      -0.932  -0.808  -2.546  0.00  0.00    -0.090 HD
ENDBRANCH   8   9
BRANCH   8  14
ATOM     13  C   UNL     1      -0.747   1.222   0.062  0.00  0.00    +0.002 C 
ATOM     14  C   UNL     1      -0.429  -0.273  -0.009  0.00  0.00    -0.018 C 
ENDBRANCH   8  14
ENDBRANCH   1   8
BRANCH   1  15
ATOM     15  S   UNL     1       1.862  -2.363   0.384  0.00  0.00    -0.079 S 
BRANCH  15  16
ATOM     16  C   UNL     1       2.060  -4.114   0.362  0.00  0.00    +0.192 A 
ATOM     17  N   UNL     1       1.492  -4.815  -0.607  0.00  0.00    -0.207 NA
ATOM     18  C   UNL     1       1.621  -6.139  -0.656  0.00  0.00    +0.122 A 
ATOM     19  C   UNL     1       2.364  -6.784   0.329  0.00  0.00    +0.086 A 
ATOM     20  C   UNL     1       2.946  -6.014   1.331  0.00  0.00    +0.122 A 
ATOM     21  N   UNL     1       2.779  -4.694   1.313  0.00  0.00    -0.207 NA
ATOM     22  N   UNL     1       1.022  -6.866  -1.673  0.00  0.00    -0.343 N 
ATOM     23  H   UNL     1       0.506  -6.410  -2.356  0.00  0.00    +0.144 HD
ATOM     24  H   UNL     1       1.121  -7.831  -1.703  0.00  0.00    +0.144 HD
BRANCH  20  25
ATOM     25  N   UNL     1       3.695  -6.613   2.332  0.00  0.00    -0.343 N 
ATOM     26  H   UNL     1       3.815  -7.576   2.337  0.00  0.00    +0.144 HD
ATOM     27  H   UNL     1       4.098  -6.070   3.027  0.00  0.00    +0.144 HD
ENDBRANCH  20  25
ENDBRANCH  15  16
ENDBRANCH   1  15
TORSDOF 7
