REMARK  Name = ZINC14980325
REMARK  11 active torsions:
REMARK  status: ('A' for Active; 'I' for Inactive)
REMARK    1  A    between atoms: C_1  and  N_62
REMARK    2  A    between atoms: C_2  and  C_3
REMARK    3  A    between atoms: C_2  and  N_62
REMARK    4  A    between atoms: C_10  and  C_11
REMARK    5  A    between atoms: C_10  and  N_62
REMARK    6  A    between atoms: C_15  and  O_17
REMARK    7  A    between atoms: O_17  and  C_18
REMARK    8  A    between atoms: C_18  and  C_19
REMARK    9  A    between atoms: C_19  and  C_21
REMARK   10  A    between atoms: C_19  and  O_31
REMARK   11  A    between atoms: C_21  and  N_64
REMARK                            x       y       z     vdW  Elec       q    Type
REMARK                         _______ _______ _______ _____ _____    ______ ____
ROOT
ATOM      1  C   UNL     1      -0.361   1.323  -9.639  0.00  0.00    -0.060 A 
ATOM      2  C   UNL     1       0.978   0.987  -9.717  0.00  0.00    +0.002 A 
ATOM      3  C   UNL     1       1.728   0.857  -8.563  0.00  0.00    +0.004 A 
ATOM      4  C   UNL     1       1.142   1.063  -7.329  0.00  0.00    +0.045 A 
ATOM      5  C   UNL     1      -0.201   1.401  -7.249  0.00  0.00    +0.121 A 
ATOM      6  C   UNL     1      -0.954   1.525  -8.408  0.00  0.00    +0.047 A 
ENDROOT
BRANCH   1   7
ATOM      7  C   UNL     1      -1.176   1.464 -10.899  0.00  0.00    -0.043 C 
BRANCH   7   9
ATOM      8  C   UNL     1      -2.760  -0.243 -10.232  0.00  0.00    -0.095 C 
ATOM      9  N   UNL     1      -1.753   0.147 -11.243  0.00  0.00    +0.383 N 
ATOM     10  H   UNL     1      -1.003  -0.554 -11.254  0.00  0.00    -0.081 HD
BRANCH   9  11
ATOM     11  C   UNL     1      -2.377   0.203 -12.582  0.00  0.00    -0.043 C 
BRANCH  11  12
ATOM     12  C   UNL     1      -2.759  -1.194 -12.998  0.00  0.00    -0.064 A 
ATOM     13  C   UNL     1      -1.854  -1.982 -13.686  0.00  0.00    +0.004 A 
ATOM     14  C   UNL     1      -2.201  -3.264 -14.064  0.00  0.00    +0.038 A 
ATOM     15  C   UNL     1      -3.460  -3.757 -13.764  0.00  0.00    +0.123 A 
ATOM     16  C   UNL     1      -4.367  -2.966 -13.081  0.00  0.00    +0.038 A 
ATOM     17  C   UNL     1      -4.016  -1.685 -12.698  0.00  0.00    +0.004 A 
ATOM     18  F   UNL     1      -3.802  -5.010 -14.138  0.00  0.00    -0.205 F 
ENDBRANCH  11  12
ENDBRANCH   9  11
ENDBRANCH   7   9
ENDBRANCH   1   7
BRANCH   5  19
ATOM     19  O   UNL     1      -0.780   1.605  -6.037  0.00  0.00    -0.489 OA
BRANCH  19  20
ATOM     20  C   UNL     1       0.053   1.454  -4.886  0.00  0.00    +0.258 C 
BRANCH  20  21
ATOM     21  C   UNL     1      -0.768   1.720  -3.623  0.00  0.00    +0.135 C 
BRANCH  21  22
ATOM     22  O   UNL     1      -1.190   3.085  -3.608  0.00  0.00    -0.390 OA
ATOM     23  H   UNL     1      -0.462   3.722  -3.614  0.00  0.00    +0.210 HD
ENDBRANCH  21  22
BRANCH  21  24
ATOM     24  C   UNL     1       0.090   1.438  -2.388  0.00  0.00    -0.043 C 
BRANCH  24  34
ATOM     25  C   UNL     1      -0.013   1.086   0.008  0.00  0.00    -0.074 C 
ATOM     26  C   UNL     1      -0.736   1.583   1.260  0.00  0.00    +0.017 C 
ATOM     27  C   UNL     1      -2.210   1.264   1.157  0.00  0.00    -0.048 A 
ATOM     28  C   UNL     1      -2.977   1.307   2.312  0.00  0.00    +0.004 A 
ATOM     29  C   UNL     1      -4.328   1.027   2.263  0.00  0.00    +0.000 A 
ATOM     30  C   UNL     1      -4.920   0.701   1.057  0.00  0.00    +0.000 A 
ATOM     31  C   UNL     1      -4.157   0.656  -0.093  0.00  0.00    +0.002 A 
ATOM     32  C   UNL     1      -2.799   0.937  -0.046  0.00  0.00    -0.061 A 
ATOM     33  C   UNL     1      -2.009   0.871  -1.326  0.00  0.00    -0.043 C 
ATOM     34  N   UNL     1      -0.738   1.599  -1.171  0.00  0.00    +0.384 N 
ATOM     35  H   UNL     1      -0.938   2.597  -1.034  0.00  0.00    -0.081 HD
ENDBRANCH  24  34
ENDBRANCH  21  24
ENDBRANCH  20  21
ENDBRANCH  19  20
ENDBRANCH   5  19
TORSDOF 10
