REMARK  Name = ZINC40356784
REMARK  7 active torsions:
REMARK  status: ('A' for Active; 'I' for Inactive)
REMARK    1  A    between atoms: C_1  and  C_2
REMARK    2  A    between atoms: C_5  and  O_21
REMARK    3  A    between atoms: C_6  and  C_8
REMARK    4  A    between atoms: N_10  and  C_11
REMARK    5  A    between atoms: C_11  and  C_18
REMARK    6  A    between atoms: C_14  and  C_17
REMARK    7  A    between atoms: C_18  and  N_20
REMARK                            x       y       z     vdW  Elec       q    Type
REMARK                         _______ _______ _______ _____ _____    ______ ____
ROOT
ATOM      1  C   UNL     1       1.098  -1.269   3.426  0.00  0.00    +0.248 C 
ATOM      2  O   UNL     1       1.999  -1.153   4.235  0.00  0.00    -0.270 OA
ATOM      3  N   UNL     1       0.084  -2.124   3.664  0.00  0.00    -0.300 N 
ATOM      4  H   UNL     1      -0.671  -2.163   3.056  0.00  0.00    +0.150 HD
ENDROOT
BRANCH   1  10
ATOM      5  C   UNL     1      -1.010   0.004  -0.910  0.00  0.00    +0.044 C 
ATOM      6  C   UNL     1       0.105   0.145   0.094  0.00  0.00    -0.050 A 
ATOM      7  C   UNL     1       1.147   1.025  -0.150  0.00  0.00    +0.007 A 
ATOM      8  C   UNL     1       2.174   1.163   0.762  0.00  0.00    +0.046 A 
ATOM      9  C   UNL     1       2.168   0.419   1.933  0.00  0.00    +0.129 A 
ATOM     10  C   UNL     1       1.115  -0.472   2.184  0.00  0.00    +0.078 A 
ATOM     11  C   UNL     1       0.080  -0.598   1.254  0.00  0.00    +0.020 A 
BRANCH   9  12
ATOM     12  O   UNL     1       3.176   0.552   2.830  0.00  0.00    -0.506 OA
ATOM     13  H   UNL     1       3.021   1.235   3.497  0.00  0.00    +0.292 HD
ENDBRANCH   9  12
ENDBRANCH   1  10
BRANCH   3  14
ATOM     14  C   UNL     1       0.122  -2.996   4.840  0.00  0.00    +0.079 C 
ATOM     15  C   UNL     1      -1.064  -3.961   4.799  0.00  0.00    +0.032 C 
ATOM     16  C   UNL     1      -2.370  -3.164   4.797  0.00  0.00    +0.006 C 
ATOM     17  C   UNL     1      -2.449  -2.312   6.066  0.00  0.00    -0.014 C 
ATOM     18  C   UNL     1      -1.262  -1.347   6.108  0.00  0.00    +0.006 C 
ATOM     19  C   UNL     1       0.043  -2.145   6.109  0.00  0.00    +0.032 C 
ATOM     20  C   UNL     1      -3.755  -1.515   6.064  0.00  0.00    +0.007 C 
BRANCH  14  21
ATOM     21  C   UNL     1       1.409  -3.782   4.842  0.00  0.00    +0.070 C 
ATOM     22  S   UNL     1       2.289  -3.871   6.173  0.00  0.00    -0.038 S 
BRANCH  21  23
ATOM     23  N   UNL     1       1.816  -4.410   3.721  0.00  0.00    -0.354 N 
ATOM     24  H   UNL     1       1.247  -4.418   2.936  0.00  0.00    +0.143 HD
ATOM     25  H   UNL     1       2.679  -4.852   3.700  0.00  0.00    +0.143 HD
ENDBRANCH  21  23
ENDBRANCH  14  21
ENDBRANCH   3  14
TORSDOF 5
