REMARK  Name = ZINC59016309
REMARK  7 active torsions:
REMARK  status: ('A' for Active; 'I' for Inactive)
REMARK    1  A    between atoms: C_4  and  C_7
REMARK    2  A    between atoms: C_8  and  C_9
REMARK    3  A    between atoms: N_10  and  N_11
REMARK    4  A    between atoms: C_14  and  S_17
REMARK    5  A    between atoms: S_17  and  C_18
REMARK    6  A    between atoms: C_18  and  C_19
REMARK    7  A    between atoms: N_21  and  C_22
REMARK                            x       y       z     vdW  Elec       q    Type
REMARK                         _______ _______ _______ _____ _____    ______ ____
ROOT
ATOM      1  N   UNL     1       6.200  -4.700  -0.109  0.00  0.00    -0.205 N 
ATOM      2  C   UNL     1       6.223  -6.082  -0.114  0.00  0.00    +0.232 A 
ATOM      3  N   UNL     1       5.171  -6.874  -0.104  0.00  0.00    -0.186 NA
ATOM      4  C   UNL     1       5.568  -8.150  -0.113  0.00  0.00    +0.211 A 
ATOM      5  N   UNL     1       6.880  -8.188  -0.128  0.00  0.00    -0.144 NA
ATOM      6  N   UNL     1       7.328  -6.858  -0.135  0.00  0.00    -0.245 N 
ATOM      7  H   UNL     1       7.032  -4.201  -0.122  0.00  0.00    +0.177 HD
ATOM      8  H   UNL     1       8.249  -6.555  -0.150  0.00  0.00    +0.192 HD
ENDROOT
BRANCH   1  10
ATOM      9  C   UNL     1       4.954  -2.717  -0.082  0.00  0.00    +0.130 C 
ATOM     10  N   UNL     1       4.976  -4.019  -0.086  0.00  0.00    -0.188 NA
BRANCH   9  12
ATOM     11  C   UNL     1       3.693  -0.679  -0.054  0.00  0.00    +0.009 C 
ATOM     12  C   UNL     1       3.715  -2.028  -0.059  0.00  0.00    +0.022 C 
BRANCH  11  16
ATOM     13  C   UNL     1      -0.015   1.381   0.015  0.00  0.00    +0.000 A 
ATOM     14  C   UNL     1       1.170   2.096  -0.003  0.00  0.00    +0.001 A 
ATOM     15  C   UNL     1       2.379   1.433  -0.025  0.00  0.00    +0.008 A 
ATOM     16  C   UNL     1       2.406   0.035  -0.030  0.00  0.00    -0.025 A 
ATOM     17  C   UNL     1       1.205  -0.680  -0.012  0.00  0.00    +0.008 A 
ATOM     18  C   UNL     1       0.004  -0.003   0.010  0.00  0.00    +0.001 A 
ENDBRANCH  11  16
ENDBRANCH   9  12
ENDBRANCH   1  10
BRANCH   4  19
ATOM     19  S   UNL     1       4.503  -9.554  -0.104  0.00  0.00    -0.075 S 
BRANCH  19  20
ATOM     20  C   UNL     1       5.640 -10.967  -0.122  0.00  0.00    +0.173 C 
BRANCH  20  21
ATOM     21  C   UNL     1       4.848 -12.249  -0.117  0.00  0.00    +0.227 C 
ATOM     22  O   UNL     1       3.636 -12.213  -0.102  0.00  0.00    -0.275 OA
ATOM     23  N   UNL     1       5.487 -13.436  -0.128  0.00  0.00    -0.285 N 
ATOM     24  H   UNL     1       6.453 -13.466  -0.207  0.00  0.00    +0.155 HD
BRANCH  23  25
ATOM     25  C   UNL     1       4.756 -14.625  -0.025  0.00  0.00    +0.036 A 
ATOM     26  C   UNL     1       5.282 -15.707   0.668  0.00  0.00    +0.043 A 
ATOM     27  C   UNL     1       4.558 -16.880   0.768  0.00  0.00    +0.044 A 
ATOM     28  C   UNL     1       3.309 -16.977   0.179  0.00  0.00    +0.040 A 
ATOM     29  C   UNL     1       2.783 -15.900  -0.512  0.00  0.00    +0.044 A 
ATOM     30  C   UNL     1       3.501 -14.723  -0.611  0.00  0.00    +0.043 A 
ATOM     31 CL   UNL     1       1.217 -16.025  -1.250  0.00  0.00    -0.083 Cl
ATOM     32 CL   UNL     1       5.215 -18.234   1.634  0.00  0.00    -0.083 Cl
ENDBRANCH  23  25
ENDBRANCH  20  21
ENDBRANCH  19  20
ENDBRANCH   4  19
TORSDOF 7
