REMARK  Name = ZINC39494256
REMARK  9 active torsions:
REMARK  status: ('A' for Active; 'I' for Inactive)
REMARK    1  A    between atoms: C_4  and  C_7
REMARK    2  A    between atoms: C_7  and  C_9
REMARK    3  A    between atoms: C_7  and  N_26
REMARK    4  A    between atoms: C_9  and  C_11
REMARK    5  A    between atoms: C_9  and  C_18
REMARK    6  A    between atoms: C_16  and  O_17
REMARK    7  A    between atoms: C_18  and  C_20
REMARK    8  A    between atoms: C_27  and  C_29
REMARK    9  A    between atoms: C_34  and  O_35
REMARK                            x       y       z     vdW  Elec       q    Type
REMARK                         _______ _______ _______ _____ _____    ______ ____
ROOT
ATOM      1  C   UNL     1       3.510  -0.747   0.024  0.00  0.00    +0.118 C 
ENDROOT
BRANCH   1   5
ATOM      2  C   UNL     1      -0.560   0.458   0.502  0.00  0.00    +0.000 A 
ATOM      3  C   UNL     1       0.411   1.401   0.222  0.00  0.00    +0.000 A 
ATOM      4  C   UNL     1       1.728   1.011   0.068  0.00  0.00    +0.005 A 
ATOM      5  C   UNL     1       2.074  -0.321   0.194  0.00  0.00    -0.026 A 
ATOM      6  C   UNL     1       1.103  -1.264   0.474  0.00  0.00    +0.005 A 
ATOM      7  C   UNL     1      -0.215  -0.874   0.627  0.00  0.00    +0.000 A 
ENDBRANCH   1   5
BRANCH   1   8
ATOM      8  N   UNL     1       3.570  -1.934  -0.831  0.00  0.00    -0.303 N 
ATOM      9  C   UNL     1       3.587  -1.799  -2.172  0.00  0.00    +0.248 C 
ATOM     10  O   UNL     1       3.553  -0.691  -2.671  0.00  0.00    -0.270 OA
ATOM     11  H   UNL     1       3.597  -2.818  -0.432  0.00  0.00    +0.150 HD
BRANCH   9  12
ATOM     12  C   UNL     1       3.648  -2.995  -3.033  0.00  0.00    +0.078 A 
ATOM     13  C   UNL     1       3.681  -4.271  -2.463  0.00  0.00    +0.017 A 
ATOM     14  C   UNL     1       3.737  -5.384  -3.273  0.00  0.00    +0.001 A 
ATOM     15  C   UNL     1       3.760  -5.245  -4.652  0.00  0.00    +0.004 A 
ATOM     16  C   UNL     1       3.727  -3.991  -5.228  0.00  0.00    +0.046 A 
ATOM     17  C   UNL     1       3.666  -2.859  -4.428  0.00  0.00    +0.129 A 
BRANCH  17  18
ATOM     18  O   UNL     1       3.628  -1.627  -4.993  0.00  0.00    -0.506 OA
ATOM     19  H   UNL     1       4.500  -1.236  -5.142  0.00  0.00    +0.292 HD
ENDBRANCH  17  18
ENDBRANCH   9  12
ENDBRANCH   1   8
BRANCH   1  20
ATOM     20  C   UNL     1       4.110  -1.073   1.393  0.00  0.00    +0.118 C 
BRANCH  20  21
ATOM     21  C   UNL     1       4.129   0.171   2.244  0.00  0.00    +0.007 A 
ATOM     22  C   UNL     1       4.889   1.259   1.860  0.00  0.00    +0.008 A 
ATOM     23  C   UNL     1       4.907   2.401   2.639  0.00  0.00    +0.001 A 
ATOM     24  C   UNL     1       4.164   2.457   3.804  0.00  0.00    +0.004 A 
ATOM     25  C   UNL     1       3.402   1.373   4.192  0.00  0.00    +0.046 A 
ATOM     26  C   UNL     1       3.378   0.228   3.409  0.00  0.00    +0.121 A 
BRANCH  26  27
ATOM     27  O   UNL     1       2.625  -0.839   3.785  0.00  0.00    -0.506 OA
ATOM     28  H   UNL     1       3.091  -1.470   4.350  0.00  0.00    +0.292 HD
ENDBRANCH  26  27
ENDBRANCH  20  21
BRANCH  20  29
ATOM     29  C   UNL     1       5.517  -1.582   1.217  0.00  0.00    +0.173 C 
ATOM     30  O   UNL     1       6.188  -1.198   0.282  0.00  0.00    -0.291 OA
BRANCH  29  31
ATOM     31  C   UNL     1       6.078  -2.544   2.179  0.00  0.00    +0.018 A 
ATOM     32  C   UNL     1       5.306  -2.994   3.255  0.00  0.00    +0.011 A 
ATOM     33  C   UNL     1       5.838  -3.896   4.151  0.00  0.00    +0.001 A 
ATOM     34  C   UNL     1       7.133  -4.357   3.989  0.00  0.00    +0.000 A 
ATOM     35  C   UNL     1       7.904  -3.917   2.926  0.00  0.00    +0.001 A 
ATOM     36  C   UNL     1       7.384  -3.019   2.018  0.00  0.00    +0.011 A 
ENDBRANCH  29  31
ENDBRANCH  20  29
ENDBRANCH   1  20
TORSDOF 9
