REMARK  Name = ZINC20681787
REMARK  3 active torsions:
REMARK  status: ('A' for Active; 'I' for Inactive)
REMARK    1  A    between atoms: C_3  and  C_9
REMARK    2  A    between atoms: C_4  and  O_8
REMARK    3  A    between atoms: C_6  and  O_7
REMARK                            x       y       z     vdW  Elec       q    Type
REMARK                         _______ _______ _______ _____ _____    ______ ____
ROOT
ATOM      1  C   UNL     1      -1.265   3.489  -0.048  0.00  0.00    +0.108 C 
ATOM      2  C   UNL     1      -0.093   3.991   0.771  0.00  0.00    +0.029 C 
ATOM      3  C   UNL     1       0.177   5.497   0.755  0.00  0.00    +0.033 C 
ATOM      4  C   UNL     1       1.688   5.521   0.999  0.00  0.00    -0.030 C 
ATOM      5  C   UNL     1       2.235   4.393   0.560  0.00  0.00    -0.023 C 
ATOM      6  C   UNL     1       1.168   3.552  -0.036  0.00  0.00    +0.049 C 
ATOM      7  C   UNL     1       1.203   2.073   0.002  0.00  0.00    -0.018 A 
ATOM      8  C   UNL     1       2.393   1.376   0.008  0.00  0.00    +0.007 A 
ATOM      9  C   UNL     1       2.397  -0.005   0.009  0.00  0.00    +0.022 A 
ATOM     10  C   UNL     1       1.196  -0.693   0.002  0.00  0.00    +0.061 A 
ATOM     11  C   UNL     1       0.002  -0.004   0.002  0.00  0.00    +0.080 A 
ATOM     12  C   UNL     1      -0.017   1.393   0.010  0.00  0.00    +0.051 A 
ATOM     13  N   UNL     1      -1.261   2.020   0.047  0.00  0.00    -0.335 N 
ATOM     14 CL   UNL     1      -1.495  -0.882  -0.007  0.00  0.00    -0.080 Cl
ATOM     15 CL   UNL     1       1.193  -2.429  -0.007  0.00  0.00    -0.082 Cl
ATOM     16  H   UNL     1      -2.210   1.473   0.142  0.00  0.00    +0.147 HD
ENDROOT
BRANCH   1  19
ATOM     17  C   UNL     1      -4.472   3.786   1.922  0.00  0.00    +0.046 A 
ATOM     18  C   UNL     1      -3.293   3.285   1.404  0.00  0.00    +0.012 A 
ATOM     19  C   UNL     1      -2.553   4.036   0.511  0.00  0.00    +0.015 A 
ATOM     20  C   UNL     1      -2.999   5.292   0.123  0.00  0.00    +0.125 A 
ATOM     21  C   UNL     1      -4.184   5.795   0.637  0.00  0.00    +0.091 A 
ATOM     22  C   UNL     1      -4.922   5.041   1.537  0.00  0.00    +0.120 A 
BRANCH  22  23
ATOM     23  O   UNL     1      -6.084   5.531   2.043  0.00  0.00    -0.507 OA
ATOM     24  H   UNL     1      -6.440   6.526   1.738  0.00  0.00    +0.292 HD
ENDBRANCH  22  23
BRANCH  20  25
ATOM     25  O   UNL     1      -2.274   6.028  -0.760  0.00  0.00    -0.506 OA
ATOM     26  H   UNL     1      -2.628   7.024  -1.067  0.00  0.00    +0.292 HD
ENDBRANCH  20  25
ENDBRANCH   1  19
TORSDOF 3
