REMARK  Name = ZINC04936891
REMARK  4 active torsions:
REMARK  status: ('A' for Active; 'I' for Inactive)
REMARK    1  A    between atoms: C_6  and  C_7
REMARK    2  A    between atoms: C_7  and  O_9
REMARK    3  A    between atoms: O_9  and  N_10
REMARK    4  A    between atoms: C_11  and  C_12
REMARK                            x       y       z     vdW  Elec       q    Type
REMARK                         _______ _______ _______ _____ _____    ______ ____
ROOT
ATOM      1  N   UNL     1      -2.527  -2.705   0.013  0.00  0.00    -0.059 NA
ATOM      2  C   UNL     1      -2.643  -4.002   0.007  0.00  0.00    +0.163 C 
ATOM      3  N   UNL     1      -1.511  -4.797  -0.009  0.00  0.00    -0.340 N 
ATOM      4  H   UNL     1      -0.631  -4.388  -0.015  0.00  0.00    +0.144 HD
ATOM      5  H   UNL     1      -1.597  -5.763  -0.013  0.00  0.00    +0.144 HD
ENDROOT
BRANCH   2   6
ATOM      6  C   UNL     1      -3.985  -4.625   0.017  0.00  0.00    +0.018 A 
ATOM      7  C   UNL     1      -5.128  -3.826   0.027  0.00  0.00    +0.012 A 
ATOM      8  C   UNL     1      -6.377  -4.413   0.036  0.00  0.00    +0.016 A 
ATOM      9  C   UNL     1      -6.497  -5.792   0.036  0.00  0.00    +0.018 A 
ATOM     10  C   UNL     1      -5.366  -6.590   0.026  0.00  0.00    +0.016 A 
ATOM     11  C   UNL     1      -4.112  -6.014   0.011  0.00  0.00    +0.012 A 
ATOM     12 BR   UNL     1      -8.212  -6.588   0.048  0.00  0.00    -0.050 Br
ENDBRANCH   2   6
BRANCH   1  13
ATOM     13  O   UNL     1      -1.243  -2.109   0.003  0.00  0.00    -0.310 OA
BRANCH  13  14
ATOM     14  C   UNL     1      -1.265  -0.763   0.011  0.00  0.00    +0.366 C 
ATOM     15  O   UNL     1      -2.327  -0.172   0.024  0.00  0.00    -0.243 OA
BRANCH  14  21
ATOM     16  C   UNL     1      -0.017   1.392   0.010  0.00  0.00    +0.016 A 
ATOM     17  C   UNL     1       1.169   2.095   0.002  0.00  0.00    +0.021 A 
ATOM     18  C   UNL     1       2.378   1.419  -0.013  0.00  0.00    +0.041 A 
ATOM     19  C   UNL     1       2.404   0.034  -0.021  0.00  0.00    +0.021 A 
ATOM     20  C   UNL     1       1.224  -0.680  -0.014  0.00  0.00    +0.016 A 
ATOM     21  C   UNL     1       0.002  -0.004   0.002  0.00  0.00    +0.061 A 
ATOM     22 CL   UNL     1       3.868   2.311  -0.022  0.00  0.00    -0.084 Cl
ENDBRANCH  14  21
ENDBRANCH  13  14
ENDBRANCH   1  13
TORSDOF 4
