REMARK  Name = ZINC20907269
REMARK  9 active torsions:
REMARK  status: ('A' for Active; 'I' for Inactive)
REMARK    1  A    between atoms: C_9  and  O_33
REMARK    2  A    between atoms: C_10  and  C_11
REMARK    3  A    between atoms: N_12  and  N_13
REMARK    4  A    between atoms: C_16  and  S_19
REMARK    5  A    between atoms: S_19  and  C_20
REMARK    6  A    between atoms: C_20  and  C_21
REMARK    7  A    between atoms: N_23  and  C_24
REMARK    8  A    between atoms: C_24  and  C_25
REMARK    9  A    between atoms: C_25  and  C_26
REMARK                            x       y       z     vdW  Elec       q    Type
REMARK                         _______ _______ _______ _____ _____    ______ ____
ROOT
ATOM      1  N   UNL     1       2.023  -7.852  -3.431  0.00  0.00    -0.205 N 
ATOM      2  C   UNL     1       1.661  -6.665  -2.811  0.00  0.00    +0.232 A 
ATOM      3  N   UNL     1       1.911  -5.405  -3.278  0.00  0.00    -0.186 NA
ATOM      4  C   UNL     1       1.396  -4.512  -2.382  0.00  0.00    +0.211 A 
ATOM      5  N   UNL     1       0.854  -5.191  -1.399  0.00  0.00    -0.144 NA
ATOM      6  N   UNL     1       1.018  -6.555  -1.674  0.00  0.00    -0.245 N 
ATOM      7  H   UNL     1       2.564  -7.829  -4.389  0.00  0.00    +0.177 HD
ATOM      8  H   UNL     1       0.713  -7.458  -1.124  0.00  0.00    +0.192 HD
ENDROOT
BRANCH   1  10
ATOM      9  C   UNL     1       2.042 -10.192  -3.419  0.00  0.00    +0.142 C 
ATOM     10  N   UNL     1       1.702  -9.079  -2.837  0.00  0.00    -0.187 NA
BRANCH   9  20
ATOM     11  C   UNL     1       2.760 -15.160  -4.598  0.00  0.00    +0.001 A 
ATOM     12  C   UNL     1       3.097 -13.959  -5.218  0.00  0.00    +0.001 A 
ATOM     13  C   UNL     1       2.767 -12.763  -4.655  0.00  0.00    +0.009 A 
ATOM     14  C   UNL     1       2.078 -12.739  -3.436  0.00  0.00    -0.006 A 
ATOM     15  C   UNL     1       1.733 -13.958  -2.802  0.00  0.00    -0.017 A 
ATOM     16  C   UNL     1       2.091 -15.173  -3.412  0.00  0.00    +0.008 A 
ATOM     17  C   UNL     1       1.043 -13.931  -1.578  0.00  0.00    +0.012 A 
ATOM     18  C   UNL     1       0.703 -12.750  -0.996  0.00  0.00    +0.046 A 
ATOM     19  C   UNL     1       1.024 -11.526  -1.579  0.00  0.00    +0.126 A 
ATOM     20  C   UNL     1       1.704 -11.479  -2.796  0.00  0.00    +0.044 A 
BRANCH  19  21
ATOM     21  O   UNL     1       0.670 -10.370  -0.959  0.00  0.00    -0.506 OA
ATOM     22  H   UNL     1       0.922  -9.402  -1.416  0.00  0.00    +0.292 HD
ENDBRANCH  19  21
ENDBRANCH   9  20
ENDBRANCH   1  10
BRANCH   4  23
ATOM     23  S   UNL     1       1.455  -2.756  -2.519  0.00  0.00    -0.075 S 
BRANCH  23  24
ATOM     24  C   UNL     1       0.606  -2.171  -1.026  0.00  0.00    +0.173 C 
BRANCH  24  25
ATOM     25  C   UNL     1       0.585  -0.664  -1.018  0.00  0.00    +0.223 C 
ATOM     26  O   UNL     1       1.093  -0.046  -1.929  0.00  0.00    -0.275 OA
ATOM     27  N   UNL     1       0.002  -0.004   0.002  0.00  0.00    -0.314 N 
ATOM     28  H   UNL     1      -0.459  -0.565   0.828  0.00  0.00    +0.149 HD
BRANCH  27  29
ATOM     29  C   UNL     1      -0.018   1.461   0.010  0.00  0.00    +0.109 C 
BRANCH  29  30
ATOM     30  C   UNL     1      -0.734   1.954   1.269  0.00  0.00    +0.054 C 
BRANCH  30  31
ATOM     31  C   UNL     1      -0.754   3.461   1.277  0.00  0.00    -0.046 A 
ATOM     32  C   UNL     1       0.276   4.163   1.875  0.00  0.00    +0.005 A 
ATOM     33  C   UNL     1       0.261   5.545   1.878  0.00  0.00    +0.020 A 
ATOM     34  C   UNL     1      -0.792   6.226   1.292  0.00  0.00    +0.041 A 
ATOM     35  C   UNL     1      -1.826   5.523   0.699  0.00  0.00    +0.020 A 
ATOM     36  C   UNL     1      -1.806   4.141   0.692  0.00  0.00    +0.005 A 
ATOM     37 CL   UNL     1      -0.815   7.962   1.301  0.00  0.00    -0.084 Cl
ENDBRANCH  30  31
ENDBRANCH  29  30
ENDBRANCH  27  29
ENDBRANCH  24  25
ENDBRANCH  23  24
ENDBRANCH   4  23
TORSDOF 9
