REMARK  Name = ZINC64717599
REMARK  12 active torsions:
REMARK  status: ('A' for Active; 'I' for Inactive)
REMARK    1  A    between atoms: C_1  and  O_2
REMARK    2  A    between atoms: O_2  and  C_3
REMARK    3  A    between atoms: C_9  and  C_12
REMARK    4  A    between atoms: C_12  and  C_13
REMARK    5  A    between atoms: C_13  and  N_14
REMARK    6  A    between atoms: C_15  and  C_17
REMARK    7  A    between atoms: C_17  and  C_18
REMARK    8  A    between atoms: C_18  and  C_19
REMARK    9  A    between atoms: C_19  and  C_20
REMARK   10  A    between atoms: C_20  and  C_21
REMARK   11  A    between atoms: C_21  and  N_22
REMARK   12  A    between atoms: C_23  and  O_34
REMARK                            x       y       z     vdW  Elec       q    Type
REMARK                         _______ _______ _______ _____ _____    ______ ____
ROOT
ATOM      1  C   UNL     1      -2.367  -8.584  -0.999  0.00  0.00    +0.096 C 
ENDROOT
BRANCH   1   3
ATOM      2  N   UNL     1      -0.752  -6.781  -1.509  0.00  0.00    -0.315 N 
ATOM      3  C   UNL     1      -1.922  -7.385  -1.796  0.00  0.00    +0.213 C 
ATOM      4  O   UNL     1      -2.617  -6.964  -2.697  0.00  0.00    -0.276 OA
ATOM      5  H   UNL     1      -0.196  -7.118  -0.789  0.00  0.00    +0.149 HD
BRANCH   2   6
ATOM      6  C   UNL     1      -0.319  -5.616  -2.284  0.00  0.00    +0.108 C 
BRANCH   6   7
ATOM      7  C   UNL     1       1.031  -5.126  -1.758  0.00  0.00    +0.052 C 
BRANCH   7  14
ATOM      8  C   UNL     1       0.606  -0.607  -1.056  0.00  0.00    +0.121 A 
ATOM      9  C   UNL     1       1.172   0.195  -2.062  0.00  0.00    +0.047 A 
ATOM     10  C   UNL     1       1.790  -0.325  -3.144  0.00  0.00    +0.029 A 
ATOM     11  C   UNL     1       1.886  -1.780  -3.299  0.00  0.00    +0.043 A 
ATOM     12  N   UNL     1       2.419  -2.528  -4.232  0.00  0.00    -0.380 N 
ATOM     13  C   UNL     1       2.222  -3.937  -3.871  0.00  0.00    +0.144 C 
ATOM     14  C   UNL     1       1.476  -3.927  -2.555  0.00  0.00    -0.040 C 
ATOM     15  C   UNL     1       1.290  -2.626  -2.239  0.00  0.00    +0.002 A 
ATOM     16  C   UNL     1       0.646  -1.960  -1.102  0.00  0.00    +0.055 A 
ATOM     17  H   UNL     1       2.869  -2.205  -5.029  0.00  0.00    +0.160 HD
BRANCH   8  19
ATOM     18  C   UNL     1      -0.017   1.425   0.010  0.00  0.00    +0.277 C 
ATOM     19  O   UNL     1       0.002  -0.004   0.002  0.00  0.00    -0.495 OA
ENDBRANCH   8  19
ENDBRANCH   7  14
ENDBRANCH   6   7
ENDBRANCH   2   6
ENDBRANCH   1   3
BRANCH   1  20
ATOM     20  C   UNL     1      -3.718  -9.073  -1.525  0.00  0.00    +0.009 C 
BRANCH  20  21
ATOM     21  C   UNL     1      -4.170 -10.291  -0.715  0.00  0.00    +0.002 C 
BRANCH  21  22
ATOM     22  C   UNL     1      -5.520 -10.780  -1.241  0.00  0.00    +0.019 C 
BRANCH  22  23
ATOM     23  C   UNL     1      -5.972 -11.997  -0.432  0.00  0.00    +0.112 C 
BRANCH  23  24
ATOM     24  N   UNL     1      -7.266 -12.466  -0.935  0.00  0.00    -0.256 N 
ATOM     25  C   UNL     1      -8.498 -11.923  -0.365  0.00  0.00    +0.299 C 
ATOM     26  N   UNL     1      -9.561 -11.900  -1.377  0.00  0.00    -0.303 N 
ATOM     27  C   UNL     1      -9.729 -13.016  -2.189  0.00  0.00    +0.042 A 
ATOM     28  C   UNL     1     -10.964 -13.366  -2.708  0.00  0.00    +0.024 A 
ATOM     29  C   UNL     1     -11.077 -14.487  -3.506  0.00  0.00    +0.002 A 
ATOM     30  C   UNL     1      -9.965 -15.264  -3.792  0.00  0.00    +0.001 A 
ATOM     31  C   UNL     1      -8.727 -14.929  -3.284  0.00  0.00    +0.015 A 
ATOM     32  C   UNL     1      -8.598 -13.800  -2.478  0.00  0.00    +0.058 A 
ATOM     33  C   UNL     1      -7.298 -13.387  -1.921  0.00  0.00    +0.251 C 
ATOM     34  O   UNL     1      -6.266 -13.874  -2.342  0.00  0.00    -0.270 OA
ATOM     35  H   UNL     1     -10.133 -11.123  -1.478  0.00  0.00    +0.150 HD
BRANCH  25  36
ATOM     36  O   UNL     1      -8.912 -12.740   0.732  0.00  0.00    -0.359 OA
ATOM     37  H   UNL     1      -9.725 -12.440   1.161  0.00  0.00    +0.213 HD
ENDBRANCH  25  36
ENDBRANCH  23  24
ENDBRANCH  22  23
ENDBRANCH  21  22
ENDBRANCH  20  21
ENDBRANCH   1  20
TORSDOF 11
