REMARK  Name = ZINC39661366
REMARK  5 active torsions:
REMARK  status: ('A' for Active; 'I' for Inactive)
REMARK    1  A    between atoms: C_1  and  O_2
REMARK    2  A    between atoms: O_2  and  C_3
REMARK    3  A    between atoms: C_6  and  C_10
REMARK    4  A    between atoms: C_14  and  C_23
REMARK    5  A    between atoms: N_25  and  C_26
REMARK                            x       y       z     vdW  Elec       q    Type
REMARK                         _______ _______ _______ _____ _____    ______ ____
ROOT
ATOM      1  C   UNL     1       2.573  -2.537   4.288  0.00  0.00    +0.247 C 
ATOM      2  O   UNL     1       3.732  -2.888   4.179  0.00  0.00    -0.270 OA
ATOM      3  N   UNL     1       1.903  -2.772   5.433  0.00  0.00    -0.296 N 
ATOM      4  C   UNL     1       0.466  -2.537   5.709  0.00  0.00    +0.121 C 
ATOM      5  C   UNL     1       0.028  -3.749   6.561  0.00  0.00    +0.100 C 
ATOM      6  C   UNL     1       1.325  -4.260   7.212  0.00  0.00    -0.004 C 
ATOM      7  C   UNL     1       2.435  -3.329   6.700  0.00  0.00    +0.115 C 
ATOM      8  C   UNL     1       1.223  -4.176   8.731  0.00  0.00    -0.010 C 
ATOM      9  C   UNL     1       2.501  -4.742   9.357  0.00  0.00    -0.082 C 
ATOM     10  N   UNL     1       2.677  -6.137   8.935  0.00  0.00    +0.379 N 
ATOM     11  C   UNL     1       2.868  -6.200   7.481  0.00  0.00    -0.082 C 
ATOM     12  C   UNL     1       1.605  -5.695   6.776  0.00  0.00    -0.010 C 
ATOM     13  H   UNL     1       3.485  -6.527   9.396  0.00  0.00    -0.086 HD
ATOM     14  H   UNL     1       1.859  -6.670   9.189  0.00  0.00    -0.086 HD
ENDROOT
BRANCH   1  18
ATOM     15  C   UNL     1       0.638  -0.569   1.059  0.00  0.00    +0.157 A 
ATOM     16  C   UNL     1       1.720  -1.406   0.812  0.00  0.00    +0.085 A 
ATOM     17  C   UNL     1       2.351  -2.046   1.857  0.00  0.00    +0.036 A 
ATOM     18  C   UNL     1       1.901  -1.853   3.166  0.00  0.00    +0.040 A 
ATOM     19  C   UNL     1       0.813  -1.011   3.410  0.00  0.00    +0.036 A 
ATOM     20  C   UNL     1       0.191  -0.370   2.361  0.00  0.00    +0.085 A 
ATOM     21 CL   UNL     1      -1.157   0.682   2.663  0.00  0.00    -0.080 Cl
ATOM     22 CL   UNL     1       2.277  -1.645  -0.814  0.00  0.00    -0.080 Cl
BRANCH  15  24
ATOM     23  C   UNL     1       0.521   1.347  -0.343  0.00  0.00    +0.277 C 
ATOM     24  O   UNL     1       0.019   0.061   0.027  0.00  0.00    -0.492 OA
ENDBRANCH  15  24
ENDBRANCH   1  18
BRANCH   5  25
ATOM     25  C   UNL     1      -0.958  -3.320   7.617  0.00  0.00    +0.219 C 
ATOM     26  O   UNL     1      -0.963  -2.174   8.012  0.00  0.00    -0.275 OA
ATOM     27  N   UNL     1      -1.833  -4.211   8.123  0.00  0.00    -0.304 N 
ATOM     28  H   UNL     1      -1.829  -5.128   7.807  0.00  0.00    +0.149 HD
BRANCH  27  29
ATOM     29  C   UNL     1      -2.792  -3.794   9.149  0.00  0.00    +0.151 C 
ATOM     30  C   UNL     1      -4.029  -4.690   9.068  0.00  0.00    +0.042 C 
ATOM     31  C   UNL     1      -4.732  -4.647  10.446  0.00  0.00    +0.079 C 
ATOM     32  S   UNL     1      -3.317  -4.361  11.577  0.00  0.00    -0.086 S 
ATOM     33  C   UNL     1      -2.127  -3.872  10.503  0.00  0.00    +0.209 C 
ATOM     34  O   UNL     1      -0.967  -3.628  10.762  0.00  0.00    -0.283 OA
ENDBRANCH  27  29
ENDBRANCH   5  25
TORSDOF 4
