REMARK  Name = ZINC36500772
REMARK  11 active torsions:
REMARK  status: ('A' for Active; 'I' for Inactive)
REMARK    1  A    between atoms: C_1  and  C_2
REMARK    2  A    between atoms: C_2  and  C_4
REMARK    3  A    between atoms: C_2  and  C_10
REMARK    4  A    between atoms: C_10  and  C_12
REMARK    5  A    between atoms: C_10  and  N_21
REMARK    6  A    between atoms: N_14  and  C_15
REMARK    7  A    between atoms: N_21  and  C_22
REMARK    8  A    between atoms: C_22  and  C_23
REMARK    9  A    between atoms: C_28  and  C_30
REMARK   10  A    between atoms: C_34  and  O_37
REMARK   11  A    between atoms: C_35  and  O_36
REMARK                            x       y       z     vdW  Elec       q    Type
REMARK                         _______ _______ _______ _____ _____    ______ ____
ROOT
ATOM      1  C   UNL     1      -4.489  -0.260   0.150  0.00  0.00    +0.170 C 
ENDROOT
BRANCH   1   2
ATOM      2  C   UNL     1      -3.490  -0.528   1.246  0.00  0.00    +0.234 C 
ATOM      3  O   UNL     1      -2.475  -1.148   1.003  0.00  0.00    -0.274 OA
ATOM      4  N   UNL     1      -3.723  -0.081   2.495  0.00  0.00    -0.311 N 
ATOM      5  H   UNL     1      -4.534   0.415   2.689  0.00  0.00    +0.149 HD
BRANCH   4   6
ATOM      6  C   UNL     1      -2.752  -0.342   3.560  0.00  0.00    +0.073 C 
ATOM      7  C   UNL     1      -3.015  -1.722   4.164  0.00  0.00    +0.022 C 
ATOM      8  C   UNL     1      -2.001  -1.995   5.276  0.00  0.00    +0.002 C 
ATOM      9  C   UNL     1      -2.138  -0.928   6.364  0.00  0.00    +0.000 C 
ATOM     10  C   UNL     1      -1.875   0.453   5.761  0.00  0.00    +0.002 C 
ATOM     11  C   UNL     1      -2.889   0.725   4.649  0.00  0.00    +0.022 C 
ENDBRANCH   4   6
ENDBRANCH   1   2
BRANCH   1  12
ATOM     12  N   UNL     1      -4.412  -1.326  -0.853  0.00  0.00    -0.278 N 
ATOM     13  C   UNL     1      -5.543  -1.861  -1.355  0.00  0.00    +0.251 C 
ATOM     14  O   UNL     1      -6.624  -1.524  -0.912  0.00  0.00    -0.270 OA
BRANCH  13  15
ATOM     15  C   UNL     1      -5.468  -2.855  -2.443  0.00  0.00    +0.082 A 
ATOM     16  C   UNL     1      -4.359  -2.884  -3.293  0.00  0.00    +0.017 A 
ATOM     17  C   UNL     1      -4.293  -3.814  -4.307  0.00  0.00    +0.005 A 
ATOM     18  C   UNL     1      -5.321  -4.723  -4.491  0.00  0.00    +0.049 A 
ATOM     19  C   UNL     1      -6.427  -4.707  -3.658  0.00  0.00    +0.159 A 
ATOM     20  C   UNL     1      -6.505  -3.777  -2.625  0.00  0.00    +0.171 A 
BRANCH  20  21
ATOM     21  O   UNL     1      -7.585  -3.761  -1.802  0.00  0.00    -0.503 OA
ATOM     22  H   UNL     1      -8.304  -3.192  -2.108  0.00  0.00    +0.292 HD
ENDBRANCH  20  21
BRANCH  19  23
ATOM     23  O   UNL     1      -7.433  -5.602  -3.845  0.00  0.00    -0.503 OA
ATOM     24  H   UNL     1      -7.321  -6.428  -3.353  0.00  0.00    +0.292 HD
ENDBRANCH  19  23
ENDBRANCH  13  15
BRANCH  12  25
ATOM     25  C   UNL     1      -3.107  -1.810  -1.309  0.00  0.00    +0.183 C 
BRANCH  25  26
ATOM     26  C   UNL     1      -2.602  -0.923  -2.417  0.00  0.00    +0.122 A 
ATOM     27  C   UNL     1      -1.457  -1.095  -3.102  0.00  0.00    +0.046 A 
ATOM     28  C   UNL     1      -1.379  -0.041  -4.041  0.00  0.00    +0.041 A 
ATOM     29  C   UNL     1      -2.482   0.712  -3.875  0.00  0.00    +0.195 A 
ATOM     30  O   UNL     1      -3.221   0.169  -2.894  0.00  0.00    -0.466 OA
ENDBRANCH  25  26
ENDBRANCH  12  25
ENDBRANCH   1  12
BRANCH   1  32
ATOM     31  C   UNL     1      -5.188   1.357  -1.622  0.00  0.00    +0.015 C 
ATOM     32  C   UNL     1      -4.174   1.084  -0.509  0.00  0.00    +0.045 C 
BRANCH  32  33
ATOM     33  C   UNL     1      -4.253   2.180   0.522  0.00  0.00    -0.042 A 
ATOM     34  C   UNL     1      -5.434   2.405   1.202  0.00  0.00    +0.004 A 
ATOM     35  C   UNL     1      -5.507   3.411   2.148  0.00  0.00    +0.000 A 
ATOM     36  C   UNL     1      -4.397   4.191   2.414  0.00  0.00    +0.000 A 
ATOM     37  C   UNL     1      -3.215   3.965   1.734  0.00  0.00    +0.000 A 
ATOM     38  C   UNL     1      -3.141   2.957   0.791  0.00  0.00    +0.004 A 
ENDBRANCH  32  33
ENDBRANCH   1  32
TORSDOF 10
