REMARK  Name = ZINC34954610
REMARK  8 active torsions:
REMARK  status: ('A' for Active; 'I' for Inactive)
REMARK    1  A    between atoms: C_1  and  C_2
REMARK    2  A    between atoms: C_2  and  C_3
REMARK    3  A    between atoms: C_8  and  C_23
REMARK    4  A    between atoms: C_13  and  C_21
REMARK    5  A    between atoms: C_14  and  N_20
REMARK    6  A    between atoms: C_15  and  C_16
REMARK    7  A    between atoms: C_15  and  C_18
REMARK    8  A    between atoms: C_23  and  C_24
REMARK                            x       y       z     vdW  Elec       q    Type
REMARK                         _______ _______ _______ _____ _____    ______ ____
ROOT
ATOM      1  C   UNL     1       0.490  -0.422  -1.395  0.00  0.00    +0.036 C 
ATOM      2  C   UNL     1       0.338  -1.940  -1.510  0.00  0.00    +0.026 C 
ATOM      3  C   UNL     1      -1.107  -2.351  -1.667  0.00  0.00    +0.012 C 
ATOM      4  C   UNL     1      -1.716  -2.810  -0.344  0.00  0.00    -0.002 C 
ATOM      5  C   UNL     1      -0.895  -3.997   0.179  0.00  0.00    +0.031 C 
ATOM      6  C   UNL     1       0.514  -3.517   0.408  0.00  0.00    -0.021 C 
ATOM      7  C   UNL     1       1.022  -2.572  -0.334  0.00  0.00    -0.029 C 
ATOM      8  C   UNL     1       2.370  -2.053   0.019  0.00  0.00    +0.074 C 
ATOM      9  C   UNL     1       2.791  -0.878  -0.514  0.00  0.00    +0.054 C 
ATOM     10  C   UNL     1       1.975  -0.063  -1.475  0.00  0.00    +0.184 C 
ENDROOT
BRANCH   9  11
ATOM     11  N   UNL     1       4.024  -0.411  -0.156  0.00  0.00    -0.358 N 
ATOM     12  H   UNL     1       4.573  -0.917   0.463  0.00  0.00    +0.142 HD
ATOM     13  H   UNL     1       4.350   0.426  -0.522  0.00  0.00    +0.142 HD
ENDBRANCH   9  11
BRANCH   1  15
ATOM     14  C   UNL     1       0.277   1.523   0.159  0.00  0.00    +0.004 C 
ATOM     15  C   UNL     1      -0.080   0.051  -0.057  0.00  0.00    +0.004 C 
ENDBRANCH   1  15
BRANCH  10  16
ATOM     16  C   UNL     1       2.456  -0.310  -2.844  0.00  0.00    +0.091 C 
ATOM     17  N   UNL     1       2.827  -0.501  -3.900  0.00  0.00    -0.195 NA
ENDBRANCH  10  16
BRANCH  10  18
ATOM     18  C   UNL     1       2.141   1.365  -1.160  0.00  0.00    +0.091 C 
ATOM     19  N   UNL     1       2.269   2.468  -0.916  0.00  0.00    -0.195 NA
ENDBRANCH  10  18
BRANCH   8  20
ATOM     20  C   UNL     1       3.216  -2.786   0.912  0.00  0.00    +0.101 C 
ATOM     21  N   UNL     1       3.887  -3.367   1.621  0.00  0.00    -0.191 NA
ENDBRANCH   8  20
BRANCH   4  22
ATOM     22  C   UNL     1      -1.671  -1.665   0.669  0.00  0.00    +0.039 C 
BRANCH  22  23
ATOM     23  C   UNL     1      -2.336  -2.101   1.950  0.00  0.00    -0.047 A 
ATOM     24  C   UNL     1      -3.693  -1.903   2.126  0.00  0.00    +0.003 A 
ATOM     25  C   UNL     1      -4.303  -2.303   3.300  0.00  0.00    +0.000 A 
ATOM     26  C   UNL     1      -3.556  -2.901   4.298  0.00  0.00    +0.000 A 
ATOM     27  C   UNL     1      -2.200  -3.099   4.121  0.00  0.00    +0.000 A 
ATOM     28  C   UNL     1      -1.591  -2.704   2.945  0.00  0.00    +0.003 A 
ENDBRANCH  22  23
ENDBRANCH   4  22
TORSDOF 7
