REMARK  Name = ZINC67443240
REMARK  6 active torsions:
REMARK  status: ('A' for Active; 'I' for Inactive)
REMARK    1  A    between atoms: C_1  and  C_2
REMARK    2  A    between atoms: C_2  and  C_4
REMARK    3  A    between atoms: C_2  and  N_11
REMARK    4  A    between atoms: C_12  and  C_14
REMARK    5  A    between atoms: C_14  and  N_15
REMARK    6  A    between atoms: C_18  and  C_21
REMARK                            x       y       z     vdW  Elec       q    Type
REMARK                         _______ _______ _______ _____ _____    ______ ____
ROOT
ATOM      1  N   UNL     1      -3.930  -1.240   2.575  0.00  0.00    +0.385 N 
ATOM      2  C   UNL     1      -4.004   0.117   3.130  0.00  0.00    -0.077 C 
ATOM      3  C   UNL     1      -4.434   0.050   4.597  0.00  0.00    -0.008 C 
ATOM      4  C   UNL     1      -5.810  -0.616   4.690  0.00  0.00    +0.054 C 
ATOM      5  C   UNL     1      -5.740  -2.002   4.042  0.00  0.00    -0.008 C 
ATOM      6  C   UNL     1      -5.261  -1.860   2.596  0.00  0.00    -0.077 C 
ATOM      7  H   UNL     1      -3.295  -1.794   3.130  0.00  0.00    -0.081 HD
ENDROOT
BRANCH   4   8
ATOM      8  C   UNL     1      -6.205  -0.756   6.137  0.00  0.00    +0.141 A 
ATOM      9  N   UNL     1      -5.552  -1.418   7.057  0.00  0.00    -0.133 NA
ATOM     10  N   UNL     1      -6.163  -1.334   8.186  0.00  0.00    -0.129 NA
ATOM     11  C   UNL     1      -7.257  -0.603   8.043  0.00  0.00    +0.161 A 
ATOM     12  N   UNL     1      -7.304  -0.212   6.727  0.00  0.00    -0.286 N 
ATOM     13  C   UNL     1      -8.328   0.567   6.274  0.00  0.00    +0.094 A 
ATOM     14  C   UNL     1      -9.307   0.967   7.112  0.00  0.00    +0.018 A 
ATOM     15  C   UNL     1      -9.285   0.586   8.464  0.00  0.00    +0.005 A 
ATOM     16  C   UNL     1      -8.274  -0.197   8.928  0.00  0.00    +0.048 A 
ENDBRANCH   4   8
BRANCH   1  17
ATOM     17  C   UNL     1      -3.442  -1.177   1.191  0.00  0.00    +0.019 C 
BRANCH  17  19
ATOM     18  N   UNL     1      -1.372  -0.511   0.012  0.00  0.00    -0.310 N 
ATOM     19  C   UNL     1      -2.029  -0.655   1.181  0.00  0.00    +0.197 C 
ATOM     20  O   UNL     1      -1.481  -0.365   2.224  0.00  0.00    -0.278 OA
ATOM     21  H   UNL     1      -1.810  -0.743  -0.822  0.00  0.00    +0.149 HD
BRANCH  18  23
ATOM     22  C   UNL     1      -0.019   1.526   0.010  0.00  0.00    +0.033 C 
ATOM     23  C   UNL     1       0.002  -0.004   0.002  0.00  0.00    +0.100 C 
BRANCH  23  24
ATOM     24  C   UNL     1       0.707  -0.490  -1.238  0.00  0.00    -0.027 A 
ATOM     25  C   UNL     1       0.037  -0.521  -2.446  0.00  0.00    +0.008 A 
ATOM     26  C   UNL     1       0.683  -0.966  -3.584  0.00  0.00    +0.038 A 
ATOM     27  C   UNL     1       2.002  -1.381  -3.513  0.00  0.00    +0.123 A 
ATOM     28  C   UNL     1       2.673  -1.349  -2.302  0.00  0.00    +0.038 A 
ATOM     29  C   UNL     1       2.026  -0.899  -1.167  0.00  0.00    +0.008 A 
ATOM     30  F   UNL     1       2.635  -1.817  -4.625  0.00  0.00    -0.205 F 
ENDBRANCH  23  24
ENDBRANCH  18  23
ENDBRANCH  17  19
ENDBRANCH   1  17
TORSDOF 5
