REMARK  Name = ZINC56373069
REMARK  6 active torsions:
REMARK  status: ('A' for Active; 'I' for Inactive)
REMARK    1  A    between atoms: C_1  and  C_2
REMARK    2  A    between atoms: C_2  and  C_4
REMARK    3  A    between atoms: C_2  and  N_11
REMARK    4  A    between atoms: N_11  and  C_12
REMARK    5  A    between atoms: N_15  and  N_16
REMARK    6  A    between atoms: C_17  and  C_19
REMARK                            x       y       z     vdW  Elec       q    Type
REMARK                         _______ _______ _______ _____ _____    ______ ____
ROOT
ATOM      1  N   UNL     1      -1.292  -0.639   0.002  0.00  0.00    -0.281 N 
ATOM      2  C   UNL     1      -2.232  -0.564  -1.119  0.00  0.00    +0.134 C 
ATOM      3  C   UNL     1      -1.616  -1.336   1.108  0.00  0.00    +0.319 C 
ATOM      4  O   UNL     1      -0.803  -1.471   2.002  0.00  0.00    -0.251 OA
ATOM      5  N   UNL     1      -2.842  -1.884   1.224  0.00  0.00    -0.218 N 
ATOM      6  H   UNL     1      -3.465  -1.840   0.482  0.00  0.00    +0.174 HD
ENDROOT
BRANCH   5   7
ATOM      7  N   UNL     1      -3.217  -2.517   2.417  0.00  0.00    -0.229 N 
ATOM      8  C   UNL     1      -4.402  -3.153   2.499  0.00  0.00    +0.260 C 
ATOM      9  O   UNL     1      -5.146  -3.177   1.538  0.00  0.00    -0.269 OA
ATOM     10  H   UNL     1      -2.623  -2.497   3.183  0.00  0.00    +0.173 HD
BRANCH   8  11
ATOM     11  C   UNL     1      -4.797  -3.820   3.756  0.00  0.00    +0.038 A 
ATOM     12  C   UNL     1      -3.946  -3.789   4.863  0.00  0.00    +0.016 A 
ATOM     13  C   UNL     1      -4.320  -4.413   6.034  0.00  0.00    +0.039 A 
ATOM     14  C   UNL     1      -5.537  -5.071   6.114  0.00  0.00    +0.123 A 
ATOM     15  C   UNL     1      -6.386  -5.106   5.017  0.00  0.00    +0.039 A 
ATOM     16  C   UNL     1      -6.024  -4.480   3.844  0.00  0.00    +0.016 A 
ATOM     17  F   UNL     1      -5.898  -5.681   7.264  0.00  0.00    -0.205 F 
ENDBRANCH   8  11
ENDBRANCH   5   7
BRANCH   1  19
ATOM     18  C   UNL     1      -0.224   1.558  -0.131  0.00  0.00    +0.033 C 
ATOM     19  C   UNL     1       0.001   0.045  -0.080  0.00  0.00    +0.106 C 
BRANCH  19  20
ATOM     20  C   UNL     1       0.725  -0.397  -1.326  0.00  0.00    -0.009 A 
ATOM     21  C   UNL     1       0.774   0.435  -2.429  0.00  0.00    +0.007 A 
ATOM     22  C   UNL     1       1.438   0.030  -3.572  0.00  0.00    +0.000 A 
ATOM     23  C   UNL     1       2.053  -1.208  -3.612  0.00  0.00    +0.001 A 
ATOM     24  C   UNL     1       2.006  -2.040  -2.510  0.00  0.00    +0.020 A 
ATOM     25  C   UNL     1       1.346  -1.633  -1.364  0.00  0.00    +0.046 A 
ATOM     26 CL   UNL     1       1.291  -2.675   0.023  0.00  0.00    -0.083 Cl
ENDBRANCH  19  20
ENDBRANCH   1  19
TORSDOF 4
