REMARK  Name = ZINC33366193
REMARK  7 active torsions:
REMARK  status: ('A' for Active; 'I' for Inactive)
REMARK    1  A    between atoms: C_1  and  C_2
REMARK    2  A    between atoms: C_3  and  N_9
REMARK    3  A    between atoms: C_10  and  N_11
REMARK    4  A    between atoms: C_13  and  C_33
REMARK    5  A    between atoms: C_19  and  S_20
REMARK    6  A    between atoms: S_20  and  C_21
REMARK    7  A    between atoms: C_21  and  C_22
REMARK                            x       y       z     vdW  Elec       q    Type
REMARK                         _______ _______ _______ _____ _____    ______ ____
ROOT
ATOM      1  N   UNL     1      -0.117  -0.659  -2.699  0.00  0.00    -0.276 N 
ATOM      2  C   UNL     1       1.051  -0.181  -3.132  0.00  0.00    +0.115 A 
ATOM      3  C   UNL     1       1.043   0.775  -4.166  0.00  0.00    +0.079 A 
ATOM      4  C   UNL     1       2.043   1.486  -4.864  0.00  0.00    +0.072 A 
ATOM      5  N   UNL     1       1.466   2.258  -5.740  0.00  0.00    -0.177 NA
ATOM      6  N   UNL     1       0.076   2.099  -5.666  0.00  0.00    -0.260 N 
ATOM      7  H   UNL     1      -0.579   2.560  -6.213  0.00  0.00    +0.191 HD
ATOM      8  C   UNL     1      -0.198   1.182  -4.695  0.00  0.00    +0.162 A 
ATOM      9  N   UNL     1      -1.317   0.652  -4.202  0.00  0.00    -0.204 NA
ATOM     10  C   UNL     1      -1.269  -0.247  -3.235  0.00  0.00    +0.177 A 
ATOM     11  C   UNL     1       3.528   1.373  -4.634  0.00  0.00    +0.068 C 
ENDROOT
BRANCH   1  14
ATOM     12  C   UNL     1      -0.266   0.279  -0.020  0.00  0.00    +0.047 C 
ATOM     13  C   UNL     1      -0.207  -1.189  -0.357  0.00  0.00    -0.008 A 
ATOM     14  C   UNL     1      -0.134  -1.597  -1.688  0.00  0.00    +0.054 A 
ATOM     15  C   UNL     1      -0.080  -2.955  -1.992  0.00  0.00    +0.026 A 
ATOM     16  C   UNL     1      -0.098  -3.890  -0.977  0.00  0.00    +0.003 A 
ATOM     17  C   UNL     1      -0.170  -3.480   0.342  0.00  0.00    +0.020 A 
ATOM     18  C   UNL     1      -0.220  -2.132   0.652  0.00  0.00    +0.046 A 
ATOM     19 CL   UNL     1      -0.303  -1.625   2.310  0.00  0.00    -0.083 Cl
ENDBRANCH   1  14
BRANCH   2  20
ATOM     20  N   UNL     1       2.240  -0.614  -2.580  0.00  0.00    -0.344 N 
ATOM     21  H   UNL     1       2.231  -1.192  -1.802  0.00  0.00    +0.144 HD
ATOM     22  H   UNL     1       3.084  -0.339  -2.971  0.00  0.00    +0.144 HD
ENDBRANCH   2  20
BRANCH  10  23
ATOM     23  S   UNL     1      -2.779  -0.921  -2.625  0.00  0.00    -0.081 S 
BRANCH  23  24
ATOM     24  C   UNL     1      -4.057  -0.098  -3.615  0.00  0.00    +0.133 C 
BRANCH  24  25
ATOM     25  C   UNL     1      -5.416  -0.591  -3.189  0.00  0.00    +0.059 A 
ATOM     26  C   UNL     1      -6.235   0.218  -2.425  0.00  0.00    +0.094 A 
ATOM     27  C   UNL     1      -7.493  -0.262  -2.042  0.00  0.00    +0.259 A 
ATOM     28  O   UNL     1      -8.241   0.428  -1.367  0.00  0.00    -0.267 OA
ATOM     29  N   UNL     1      -7.867  -1.500  -2.431  0.00  0.00    -0.268 N 
ATOM     30  C   UNL     1      -9.088  -1.980  -2.066  0.00  0.00    +0.096 A 
ATOM     31  C   UNL     1      -9.485  -3.216  -2.444  0.00  0.00    +0.018 A 
ATOM     32  C   UNL     1      -8.638  -4.022  -3.219  0.00  0.00    +0.005 A 
ATOM     33  C   UNL     1      -7.415  -3.550  -3.589  0.00  0.00    +0.047 A 
ATOM     34  C   UNL     1      -7.020  -2.261  -3.187  0.00  0.00    +0.140 A 
ATOM     35  N   UNL     1      -5.827  -1.796  -3.552  0.00  0.00    -0.233 NA
ENDBRANCH  24  25
ENDBRANCH  23  24
ENDBRANCH  10  23
TORSDOF 5
