REMARK  Name = ZINC39635743
REMARK  5 active torsions:
REMARK  status: ('A' for Active; 'I' for Inactive)
REMARK    1  A    between atoms: C_1  and  C_2
REMARK    2  A    between atoms: C_8  and  N_10
REMARK    3  A    between atoms: C_11  and  C_13
REMARK    4  A    between atoms: C_24  and  C_26
REMARK    5  A    between atoms: C_32  and  C_34
REMARK                            x       y       z     vdW  Elec       q    Type
REMARK                         _______ _______ _______ _____ _____    ______ ____
ROOT
ATOM      1  C   UNL     1       0.033   0.579   4.842  0.00  0.00    +0.100 C 
ATOM      2  C   UNL     1      -0.380   2.060   4.681  0.00  0.00    +0.121 C 
ATOM      3  N   UNL     1      -0.172   2.654   6.023  0.00  0.00    -0.299 N 
ATOM      4  C   UNL     1       1.081   2.031   6.512  0.00  0.00    +0.115 C 
ATOM      5  C   UNL     1       0.992   0.565   6.044  0.00  0.00    -0.004 C 
ATOM      6  C   UNL     1       2.368   0.063   5.616  0.00  0.00    -0.010 C 
ATOM      7  C   UNL     1       3.287   0.002   6.840  0.00  0.00    -0.082 C 
ATOM      8  N   UNL     1       2.707  -0.897   7.845  0.00  0.00    +0.379 N 
ATOM      9  C   UNL     1       1.426  -0.358   8.319  0.00  0.00    -0.082 C 
ATOM     10  C   UNL     1       0.429  -0.312   7.159  0.00  0.00    -0.010 C 
ATOM     11  C   UNL     1      -0.948   3.557   6.655  0.00  0.00    +0.236 C 
ATOM     12  O   UNL     1      -0.642   3.950   7.761  0.00  0.00    -0.274 OA
ATOM     13  H   UNL     1       2.557  -1.806   7.435  0.00  0.00    -0.086 HD
ATOM     14  H   UNL     1       3.343  -0.983   8.624  0.00  0.00    -0.086 HD
ENDROOT
BRANCH  11  15
ATOM     15  C   UNL     1      -2.195   4.077   5.989  0.00  0.00    +0.162 C 
ATOM     16  C   UNL     1      -1.827   5.180   4.974  0.00  0.00    +0.033 C 
ATOM     17  C   UNL     1      -2.979   6.205   5.143  0.00  0.00    +0.021 C 
ATOM     18  C   UNL     1      -3.260   6.111   6.664  0.00  0.00    +0.109 C 
ATOM     19  N   UNL     1      -3.083   4.681   6.992  0.00  0.00    -0.283 N 
ATOM     20  C   UNL     1      -3.642   4.037   8.036  0.00  0.00    +0.320 C 
ATOM     21  O   UNL     1      -3.425   2.856   8.207  0.00  0.00    -0.266 OA
BRANCH  20  22
ATOM     22  C   UNL     1      -4.537   4.784   8.991  0.00  0.00    +0.470 C 
ATOM     23  F   UNL     1      -4.993   3.910   9.984  0.00  0.00    -0.162 F 
ATOM     24  F   UNL     1      -3.818   5.828   9.584  0.00  0.00    -0.162 F 
ATOM     25  F   UNL     1      -5.630   5.308   8.293  0.00  0.00    -0.162 F 
ENDBRANCH  20  22
ENDBRANCH  11  15
BRANCH   1  27
ATOM     26  N   UNL     1       0.639  -1.199   3.233  0.00  0.00    -0.312 N 
ATOM     27  C   UNL     1       0.738   0.093   3.602  0.00  0.00    +0.218 C 
ATOM     28  O   UNL     1       1.395   0.865   2.936  0.00  0.00    -0.275 OA
ATOM     29  H   UNL     1       0.113  -1.817   3.766  0.00  0.00    +0.149 HD
BRANCH  26  36
ATOM     30  C   UNL     1      -0.841  -2.546   1.139  0.00  0.00    +0.009 C 
ATOM     31  C   UNL     1       0.605  -2.908   1.483  0.00  0.00    +0.006 C 
ATOM     32  C   UNL     1       0.616  -4.012   2.542  0.00  0.00    +0.005 C 
ATOM     33  C   UNL     1       2.062  -4.374   2.887  0.00  0.00    +0.000 C 
ATOM     34  C   UNL     1       2.781  -3.138   3.431  0.00  0.00    +0.002 C 
ATOM     35  C   UNL     1       2.770  -2.034   2.373  0.00  0.00    +0.022 C 
ATOM     36  C   UNL     1       1.324  -1.672   2.028  0.00  0.00    +0.076 C 
ENDBRANCH  26  36
ENDBRANCH   1  27
TORSDOF 4
