REMARK  Name = ZINC50098319
REMARK  3 active torsions:
REMARK  status: ('A' for Active; 'I' for Inactive)
REMARK    1  A    between atoms: C_4  and  C_7
REMARK    2  A    between atoms: N_9  and  N_10
REMARK    3  A    between atoms: C_17  and  C_20
REMARK                            x       y       z     vdW  Elec       q    Type
REMARK                         _______ _______ _______ _____ _____    ______ ____
ROOT
ATOM      1  N   UNL     1       4.941  -2.713  -0.055  0.00  0.00    -0.218 N 
ATOM      2  C   UNL     1       4.960  -4.056  -0.170  0.00  0.00    +0.319 C 
ATOM      3  O   UNL     1       6.021  -4.650  -0.188  0.00  0.00    -0.251 OA
ATOM      4  N   UNL     1       3.803  -4.741  -0.263  0.00  0.00    -0.279 N 
ATOM      5  C   UNL     1       2.514  -4.039  -0.365  0.00  0.00    +0.137 C 
ATOM      6  C   UNL     1       1.740  -4.618  -1.554  0.00  0.00    +0.179 C 
ATOM      7  O   UNL     1       1.680  -6.041  -1.429  0.00  0.00    -0.369 OA
ATOM      8  C   UNL     1       2.955  -6.685  -1.462  0.00  0.00    +0.166 C 
ATOM      9  C   UNL     1       3.792  -6.212  -0.273  0.00  0.00    +0.145 C 
ATOM     10  H   UNL     1       4.096  -2.246   0.035  0.00  0.00    +0.174 HD
ENDROOT
BRANCH   8  11
ATOM     11  C   UNL     1       2.767  -8.179  -1.386  0.00  0.00    -0.017 A 
ATOM     12  C   UNL     1       1.738  -8.707  -0.628  0.00  0.00    +0.007 A 
ATOM     13  C   UNL     1       1.564 -10.076  -0.558  0.00  0.00    +0.020 A 
ATOM     14  C   UNL     1       2.420 -10.918  -1.246  0.00  0.00    +0.041 A 
ATOM     15  C   UNL     1       3.449 -10.389  -2.004  0.00  0.00    +0.020 A 
ATOM     16  C   UNL     1       3.619  -9.019  -2.078  0.00  0.00    +0.007 A 
ATOM     17 CL   UNL     1       2.203 -12.639  -1.157  0.00  0.00    -0.084 Cl
ENDBRANCH   8  11
BRANCH   1  20
ATOM     18  C   UNL     1       6.120  -0.645  -0.054  0.00  0.00    +0.260 C 
ATOM     19  O   UNL     1       5.058  -0.055  -0.033  0.00  0.00    -0.269 OA
ATOM     20  N   UNL     1       6.143  -1.993  -0.066  0.00  0.00    -0.229 N 
ATOM     21  H   UNL     1       6.991  -2.464  -0.083  0.00  0.00    +0.173 HD
BRANCH  18  25
ATOM     22  C   UNL     1       9.763   1.540  -0.086  0.00  0.00    +0.000 A 
ATOM     23  C   UNL     1       8.555   2.214  -0.062  0.00  0.00    +0.001 A 
ATOM     24  C   UNL     1       7.369   1.511  -0.052  0.00  0.00    +0.013 A 
ATOM     25  C   UNL     1       7.388   0.115  -0.065  0.00  0.00    +0.038 A 
ATOM     26  C   UNL     1       8.610  -0.559  -0.088  0.00  0.00    +0.013 A 
ATOM     27  C   UNL     1       9.789   0.156  -0.098  0.00  0.00    +0.001 A 
ENDBRANCH  18  25
ENDBRANCH   1  20
TORSDOF 3
