REMARK  Name = ZINC42879960
REMARK  5 active torsions:
REMARK  status: ('A' for Active; 'I' for Inactive)
REMARK    1  A    between atoms: C_1  and  C_2
REMARK    2  A    between atoms: C_7  and  N_8
REMARK    3  A    between atoms: N_8  and  C_9
REMARK    4  A    between atoms: C_9  and  C_10
REMARK    5  A    between atoms: C_15  and  O_16
REMARK                            x       y       z     vdW  Elec       q    Type
REMARK                         _______ _______ _______ _____ _____    ______ ____
ROOT
ATOM      1  C   UNL     1       0.047  -0.757   3.679  0.00  0.00    +0.140 C 
ENDROOT
BRANCH   1   2
ATOM      2  C   UNL     1       0.045   0.214   4.831  0.00  0.00    +0.015 A 
ATOM      3  C   UNL     1      -1.106   0.402   5.573  0.00  0.00    +0.058 A 
ATOM      4  C   UNL     1      -1.112   1.293   6.633  0.00  0.00    +0.167 A 
ATOM      5  C   UNL     1       0.045   2.001   6.951  0.00  0.00    +0.170 A 
ATOM      6  C   UNL     1       1.197   1.811   6.207  0.00  0.00    +0.095 A 
ATOM      7  C   UNL     1       1.199   0.913   5.149  0.00  0.00    +0.125 A 
ATOM      8  O   UNL     1      -0.217   2.805   8.023  0.00  0.00    -0.452 OA
ATOM      9  C   UNL     1      -1.652   2.887   8.101  0.00  0.00    +0.466 C 
ATOM     10  O   UNL     1      -2.098   1.654   7.507  0.00  0.00    -0.453 OA
BRANCH   7  11
ATOM     11  O   UNL     1       2.332   0.723   4.421  0.00  0.00    -0.506 OA
ATOM     12  H   UNL     1       2.417   1.317   3.663  0.00  0.00    +0.292 HD
ENDBRANCH   7  11
ENDBRANCH   1   2
BRANCH   1  13
ATOM     13  N   UNL     1       0.025  -0.016   2.415  0.00  0.00    -0.339 N 
ATOM     14  H   UNL     1       0.012   0.954   2.422  0.00  0.00    +0.146 HD
BRANCH  13  21
ATOM     15  C   UNL     1      -0.018   1.503   0.010  0.00  0.00    +0.045 C 
ATOM     16  C   UNL     1       0.002  -0.004   0.002  0.00  0.00    -0.029 A 
ATOM     17  C   UNL     1       0.006  -0.689  -1.198  0.00  0.00    +0.019 A 
ATOM     18  C   UNL     1       0.024  -2.072  -1.206  0.00  0.00    +0.014 A 
ATOM     19  C   UNL     1       0.039  -2.774  -0.014  0.00  0.00    +0.016 A 
ATOM     20  C   UNL     1       0.035  -2.095   1.189  0.00  0.00    +0.024 A 
ATOM     21  C   UNL     1       0.023  -0.706   1.200  0.00  0.00    +0.030 A 
ATOM     22  I   UNL     1       0.030  -3.106  -3.028  0.00  0.00    -0.044 I 
ENDBRANCH  13  21
ENDBRANCH   1  13
TORSDOF 4
