REMARK  Name = ZINC49765422
REMARK  5 active torsions:
REMARK  status: ('A' for Active; 'I' for Inactive)
REMARK    1  A    between atoms: C_4  and  C_7
REMARK    2  A    between atoms: C_7  and  N_8
REMARK    3  A    between atoms: N_16  and  C_17
REMARK    4  A    between atoms: C_17  and  C_19
REMARK    5  A    between atoms: C_19  and  C_20
REMARK                            x       y       z     vdW  Elec       q    Type
REMARK                         _______ _______ _______ _____ _____    ______ ____
ROOT
ATOM      1  N   UNL     1       4.153  -0.953   1.342  0.00  0.00    +0.386 N 
ATOM      2  C   UNL     1       5.489  -1.562   1.326  0.00  0.00    -0.072 C 
ATOM      3  C   UNL     1       6.093  -1.550   2.734  0.00  0.00    +0.035 C 
ATOM      4  C   UNL     1       5.081  -2.175   3.686  0.00  0.00    +0.024 A 
ATOM      5  C   UNL     1       3.797  -2.294   3.308  0.00  0.00    -0.004 A 
ATOM      6  S   UNL     1       3.022  -3.059   4.702  0.00  0.00    -0.059 S 
ATOM      7  C   UNL     1       4.376  -3.184   5.695  0.00  0.00    +0.163 A 
ATOM      8  N   UNL     1       5.367  -2.644   4.938  0.00  0.00    -0.339 N 
ATOM      9  N   UNL     1       4.457  -3.690   6.928  0.00  0.00    -0.156 NA
ATOM     10  C   UNL     1       3.204  -1.866   2.007  0.00  0.00    -0.033 C 
ATOM     11  H   UNL     1       6.272  -2.592   5.283  0.00  0.00    +0.167 HD
ATOM     12  H   UNL     1       4.188  -0.079   1.845  0.00  0.00    -0.081 HD
ENDROOT
BRANCH   9  13
ATOM     13  C   UNL     1       5.620  -3.705   7.564  0.00  0.00    +0.244 C 
ATOM     14  O   UNL     1       6.614  -3.256   7.025  0.00  0.00    -0.273 OA
BRANCH  13  15
ATOM     15  C   UNL     1       5.712  -4.276   8.956  0.00  0.00    +0.155 C 
BRANCH  15  16
ATOM     16  C   UNL     1       7.132  -4.174   9.449  0.00  0.00    +0.078 A 
ATOM     17  C   UNL     1       7.481  -4.670  10.780  0.00  0.00    +0.011 A 
ATOM     18  C   UNL     1       6.530  -5.245  11.625  0.00  0.00    +0.010 A 
ATOM     19  C   UNL     1       6.906  -5.695  12.860  0.00  0.00    +0.001 A 
ATOM     20  C   UNL     1       8.223  -5.586  13.289  0.00  0.00    +0.001 A 
ATOM     21  C   UNL     1       9.183  -5.022  12.477  0.00  0.00    +0.014 A 
ATOM     22  C   UNL     1       8.822  -4.558  11.212  0.00  0.00    +0.050 A 
ATOM     23  C   UNL     1       9.798  -3.948  10.300  0.00  0.00    +0.272 A 
ATOM     24  O   UNL     1      10.965  -3.831  10.628  0.00  0.00    -0.266 OA
ATOM     25  N   UNL     1       9.377  -3.521   9.091  0.00  0.00    -0.242 N 
ATOM     26  H   UNL     1      10.017  -3.117   8.484  0.00  0.00    +0.192 HD
ATOM     27  N   UNL     1       8.047  -3.649   8.690  0.00  0.00    -0.175 NA
ENDBRANCH  15  16
ENDBRANCH  13  15
ENDBRANCH   9  13
BRANCH   1  28
ATOM     28  C   UNL     1       3.711  -0.707  -0.038  0.00  0.00    -0.043 C 
BRANCH  28  32
ATOM     29  C   UNL     1      -0.017   1.378   0.010  0.00  0.00    +0.000 A 
ATOM     30  C   UNL     1       1.171   2.086   0.002  0.00  0.00    +0.000 A 
ATOM     31  C   UNL     1       2.377   1.411  -0.013  0.00  0.00    +0.002 A 
ATOM     32  C   UNL     1       2.396   0.029  -0.020  0.00  0.00    -0.064 A 
ATOM     33  C   UNL     1       1.208  -0.679  -0.012  0.00  0.00    +0.002 A 
ATOM     34  C   UNL     1       0.002  -0.004   0.002  0.00  0.00    +0.000 A 
ENDBRANCH  28  32
ENDBRANCH   1  28
TORSDOF 5
