REMARK  Name = ZINC04017524
REMARK  6 active torsions:
REMARK  status: ('A' for Active; 'I' for Inactive)
REMARK    1  A    between atoms: C_4  and  O_28
REMARK    2  A    between atoms: C_5  and  C_7
REMARK    3  A    between atoms: N_8  and  N_9
REMARK    4  A    between atoms: C_10  and  S_12
REMARK    5  A    between atoms: S_12  and  C_13
REMARK    6  A    between atoms: N_18  and  C_21
REMARK                            x       y       z     vdW  Elec       q    Type
REMARK                         _______ _______ _______ _____ _____    ______ ____
ROOT
ATOM      1  N   UNL     1       1.788  -4.855  -0.382  0.00  0.00    -0.217 N 
ATOM      2  C   UNL     1       3.097  -5.279  -0.338  0.00  0.00    +0.146 C 
ATOM      3  N   UNL     1       4.068  -4.410  -0.414  0.00  0.00    -0.380 N 
ATOM      4  H   UNL     1       1.067  -5.501  -0.325  0.00  0.00    +0.176 HD
ATOM      5  H   UNL     1       4.990  -4.709  -0.383  0.00  0.00    +0.158 HD
ATOM      6  H   UNL     1       3.867  -3.466  -0.502  0.00  0.00    +0.158 HD
ENDROOT
BRANCH   1   8
ATOM      7  C   UNL     1       0.264  -3.090  -0.552  0.00  0.00    +0.141 C 
ATOM      8  N   UNL     1       1.498  -3.490  -0.510  0.00  0.00    -0.188 NA
BRANCH   7  13
ATOM      9  C   UNL     1      -1.646   0.125  -0.859  0.00  0.00    +0.001 A 
ATOM     10  C   UNL     1      -0.616   1.046  -0.940  0.00  0.00    +0.004 A 
ATOM     11  C   UNL     1       0.701   0.629  -0.896  0.00  0.00    +0.046 A 
ATOM     12  C   UNL     1       0.998  -0.718  -0.769  0.00  0.00    +0.125 A 
ATOM     13  C   UNL     1      -0.041  -1.655  -0.687  0.00  0.00    +0.036 A 
ATOM     14  C   UNL     1      -1.367  -1.220  -0.733  0.00  0.00    +0.013 A 
BRANCH  12  15
ATOM     15  O   UNL     1       2.292  -1.129  -0.726  0.00  0.00    -0.506 OA
ATOM     16  H   UNL     1       2.663  -1.167   0.167  0.00  0.00    +0.292 HD
ENDBRANCH  12  15
ENDBRANCH   7  13
ENDBRANCH   1   8
BRANCH   2  17
ATOM     17  S   UNL     1       3.462  -6.995  -0.177  0.00  0.00    -0.078 S 
BRANCH  17  18
ATOM     18  C   UNL     1       5.275  -7.059  -0.164  0.00  0.00    +0.149 C 
ATOM     19  C   UNL     1       5.766  -8.507   0.045  0.00  0.00    +0.120 C 
ATOM     20  C   UNL     1       6.548  -8.801  -1.217  0.00  0.00    +0.228 C 
ATOM     21  O   UNL     1       7.110  -9.845  -1.466  0.00  0.00    -0.275 OA
ATOM     22  N   UNL     1       6.519  -7.726  -2.014  0.00  0.00    -0.209 N 
ATOM     23  C   UNL     1       5.831  -6.684  -1.520  0.00  0.00    +0.240 C 
ATOM     24  O   UNL     1       5.678  -5.615  -2.070  0.00  0.00    -0.274 OA
BRANCH  22  25
ATOM     25  C   UNL     1       7.156  -7.689  -3.262  0.00  0.00    +0.044 A 
ATOM     26  C   UNL     1       8.250  -6.858  -3.460  0.00  0.00    +0.025 A 
ATOM     27  C   UNL     1       8.876  -6.824  -4.691  0.00  0.00    +0.017 A 
ATOM     28  C   UNL     1       8.415  -7.618  -5.726  0.00  0.00    +0.018 A 
ATOM     29  C   UNL     1       7.324  -8.447  -5.531  0.00  0.00    +0.017 A 
ATOM     30  C   UNL     1       6.698  -8.489  -4.301  0.00  0.00    +0.025 A 
ATOM     31 BR   UNL     1       9.274  -7.568  -7.409  0.00  0.00    -0.050 Br
ENDBRANCH  22  25
ENDBRANCH  17  18
ENDBRANCH   2  17
TORSDOF 6
