REMARK  Name = ZINC59461160
REMARK  7 active torsions:
REMARK  status: ('A' for Active; 'I' for Inactive)
REMARK    1  A    between atoms: C_4  and  C_7
REMARK    2  A    between atoms: C_7  and  O_8
REMARK    3  A    between atoms: O_8  and  C_9
REMARK    4  A    between atoms: C_13  and  C_15
REMARK    5  A    between atoms: N_16  and  C_17
REMARK    6  A    between atoms: C_20  and  S_23
REMARK    7  A    between atoms: S_23  and  N_26
REMARK                            x       y       z     vdW  Elec       q    Type
REMARK                         _______ _______ _______ _____ _____    ______ ____
ROOT
ATOM      1  C   UNL     1       9.114  -3.745   5.656  0.00  0.00    +0.064 A 
ATOM      2  C   UNL     1       9.084  -2.760   6.645  0.00  0.00    +0.029 A 
ATOM      3  C   UNL     1       9.562  -3.039   7.908  0.00  0.00    +0.031 A 
ATOM      4  C   UNL     1      10.072  -4.293   8.196  0.00  0.00    +0.113 A 
ATOM      5  C   UNL     1      10.105  -5.274   7.221  0.00  0.00    +0.031 A 
ATOM      6  C   UNL     1       9.624  -5.010   5.955  0.00  0.00    +0.029 A 
ENDROOT
BRANCH   4   7
ATOM      7  S   UNL     1      10.682  -4.641   9.812  0.00  0.00    +0.102 S 
ATOM      8  O   UNL     1      11.605  -5.713   9.675  0.00  0.00    -0.146 OA
ATOM      9  O   UNL     1      11.043  -3.393  10.387  0.00  0.00    -0.146 OA
BRANCH   7  10
ATOM     10  N   UNL     1       9.411  -5.222  10.700  0.00  0.00    -0.093 NA
ATOM     11  C   UNL     1       9.588  -5.562  11.946  0.00  0.00    +0.212 C 
ATOM     12  N   UNL     1      10.830  -5.438  12.523  0.00  0.00    -0.369 N 
ATOM     13  N   UNL     1       8.533  -6.045  12.684  0.00  0.00    -0.369 N 
ATOM     14  H   UNL     1      11.574  -5.097  12.002  0.00  0.00    +0.159 HD
ATOM     15  H   UNL     1       7.656  -6.132  12.277  0.00  0.00    +0.159 HD
ATOM     16  H   UNL     1       8.664  -6.297  13.611  0.00  0.00    +0.159 HD
ATOM     17  H   UNL     1      10.961  -5.691  13.450  0.00  0.00    +0.159 HD
ENDBRANCH   7  10
ENDBRANCH   4   7
BRANCH   1  19
ATOM     18  C   UNL     1       7.511  -2.843   4.253  0.00  0.00    +0.119 C 
ATOM     19  N   UNL     1       8.641  -3.475   4.401  0.00  0.00    -0.255 NA
BRANCH  18  24
ATOM     20  C   UNL     1       5.319  -1.605   1.466  0.00  0.00    +0.122 A 
ATOM     21  C   UNL     1       6.048  -2.007   0.355  0.00  0.00    +0.046 A 
ATOM     22  C   UNL     1       7.247  -2.677   0.513  0.00  0.00    +0.004 A 
ATOM     23  C   UNL     1       7.728  -2.952   1.776  0.00  0.00    +0.009 A 
ATOM     24  C   UNL     1       7.002  -2.551   2.902  0.00  0.00    -0.003 A 
ATOM     25  C   UNL     1       5.793  -1.869   2.740  0.00  0.00    +0.055 A 
BRANCH  20  26
ATOM     26  O   UNL     1       4.141  -0.946   1.304  0.00  0.00    -0.487 OA
BRANCH  26  27
ATOM     27  C   UNL     1       3.711  -0.707  -0.038  0.00  0.00    +0.264 C 
BRANCH  27  31
ATOM     28  C   UNL     1      -0.017   1.378   0.010  0.00  0.00    +0.000 A 
ATOM     29  C   UNL     1       1.171   2.086   0.002  0.00  0.00    +0.000 A 
ATOM     30  C   UNL     1       2.377   1.411  -0.013  0.00  0.00    +0.007 A 
ATOM     31  C   UNL     1       2.396   0.029  -0.020  0.00  0.00    -0.010 A 
ATOM     32  C   UNL     1       1.208  -0.679  -0.012  0.00  0.00    +0.007 A 
ATOM     33  C   UNL     1       0.002  -0.004   0.002  0.00  0.00    +0.000 A 
ENDBRANCH  27  31
ENDBRANCH  26  27
ENDBRANCH  20  26
ENDBRANCH  18  24
ENDBRANCH   1  19
TORSDOF 7
