REMARK  Name = ZINC12402300
REMARK  8 active torsions:
REMARK  status: ('A' for Active; 'I' for Inactive)
REMARK    1  A    between atoms: C_1  and  C_2
REMARK    2  A    between atoms: C_2  and  C_33
REMARK    3  A    between atoms: C_6  and  C_22
REMARK    4  A    between atoms: C_8  and  C_20
REMARK    5  A    between atoms: C_9  and  N_19
REMARK    6  A    between atoms: N_10  and  C_11
REMARK    7  A    between atoms: C_14  and  C_17
REMARK    8  A    between atoms: C_25  and  N_27
REMARK                            x       y       z     vdW  Elec       q    Type
REMARK                         _______ _______ _______ _____ _____    ______ ____
ROOT
ATOM      1  C   UNL     1      -1.163   2.329   2.409  0.00  0.00    +0.011 C 
ATOM      2  C   UNL     1      -1.940   1.269   3.193  0.00  0.00    -0.023 C 
ATOM      3  C   UNL     1      -3.187   0.860   2.408  0.00  0.00    +0.058 C 
ATOM      4  C   UNL     1      -2.779   0.260   1.085  0.00  0.00    +0.025 C 
ATOM      5  C   UNL     1      -1.614  -0.410   0.955  0.00  0.00    +0.026 C 
ATOM      6  C   UNL     1      -1.210  -1.014  -0.366  0.00  0.00    +0.104 C 
ATOM      7  C   UNL     1      -2.388  -1.141  -1.287  0.00  0.00    +0.077 C 
ATOM      8  C   UNL     1      -3.528  -0.436  -1.071  0.00  0.00    +0.107 C 
ATOM      9  N   UNL     1      -3.623   0.406   0.015  0.00  0.00    -0.260 N 
ATOM     10  C   UNL     1      -0.740  -0.563   2.046  0.00  0.00    +0.162 C 
ATOM     11  O   UNL     1       0.294  -1.184   1.900  0.00  0.00    -0.292 OA
ATOM     12  C   UNL     1      -1.062   0.029   3.392  0.00  0.00    +0.086 C 
ATOM     13  C   UNL     1      -2.352   1.836   4.554  0.00  0.00    +0.011 C 
ENDROOT
BRANCH   9  14
ATOM     14  C   UNL     1      -4.586   1.417   0.025  0.00  0.00    +0.040 A 
ATOM     15  C   UNL     1      -5.856   1.160   0.531  0.00  0.00    +0.025 A 
ATOM     16  C   UNL     1      -6.807   2.156   0.548  0.00  0.00    +0.021 A 
ATOM     17  C   UNL     1      -6.498   3.423   0.045  0.00  0.00    +0.052 A 
ATOM     18  C   UNL     1      -5.222   3.676  -0.467  0.00  0.00    +0.021 A 
ATOM     19  C   UNL     1      -4.275   2.677  -0.476  0.00  0.00    +0.025 A 
BRANCH  17  20
ATOM     20  C   UNL     1      -7.486   4.460   0.055  0.00  0.00    +0.099 C 
ATOM     21  N   UNL     1      -8.270   5.282   0.063  0.00  0.00    -0.191 NA
ENDBRANCH  17  20
ENDBRANCH   9  14
BRANCH   6  22
ATOM     22  C   UNL     1      -0.169  -0.137  -1.013  0.00  0.00    +0.005 A 
ATOM     23  C   UNL     1       1.102  -0.443  -1.371  0.00  0.00    +0.014 A 
ATOM     24  C   UNL     1       1.886   0.532  -1.958  0.00  0.00    +0.041 A 
ATOM     25  C   UNL     1       1.361   1.766  -2.157  0.00  0.00    +0.164 A 
ATOM     26  S   UNL     1      -0.290   1.574  -1.506  0.00  0.00    -0.068 S 
BRANCH  25  27
ATOM     27  N   UNL     1       1.993   2.962  -2.758  0.00  0.00    +0.063 N 
ATOM     28  O   UNL     1       3.144   2.909  -3.153  0.00  0.00    -0.126 OA
ATOM     29  O   UNL     1       1.363   3.999  -2.858  0.00  0.00    -0.126 OA
ENDBRANCH  25  27
ENDBRANCH   6  22
BRANCH   8  30
ATOM     30  N   UNL     1      -4.588  -0.563  -1.936  0.00  0.00    -0.345 N 
ATOM     31  H   UNL     1      -5.370   0.000  -1.830  0.00  0.00    +0.144 HD
ATOM     32  H   UNL     1      -4.554  -1.217  -2.652  0.00  0.00    +0.144 HD
ENDBRANCH   8  30
BRANCH   7  33
ATOM     33  C   UNL     1      -2.308  -2.021  -2.415  0.00  0.00    +0.099 C 
ATOM     34  N   UNL     1      -2.244  -2.718  -3.309  0.00  0.00    -0.191 NA
ENDBRANCH   7  33
TORSDOF 6
