REMARK  Name = ZINC55879639
REMARK  5 active torsions:
REMARK  status: ('A' for Active; 'I' for Inactive)
REMARK    1  A    between atoms: C_1  and  C_2
REMARK    2  A    between atoms: C_9  and  C_11
REMARK    3  A    between atoms: C_14  and  N_18
REMARK    4  A    between atoms: N_18  and  C_19
REMARK    5  A    between atoms: C_19  and  C_20
REMARK                            x       y       z     vdW  Elec       q    Type
REMARK                         _______ _______ _______ _____ _____    ______ ____
ROOT
ATOM      1  C   UNL     1       2.212  -0.122   3.096  0.00  0.00    +0.055 A 
ATOM      2  C   UNL     1       2.659  -1.447   3.079  0.00  0.00    +0.016 A 
ATOM      3  C   UNL     1       3.500  -1.898   4.056  0.00  0.00    +0.024 A 
ATOM      4  C   UNL     1       3.916  -1.042   5.073  0.00  0.00    +0.029 A 
ATOM      5  C   UNL     1       3.478   0.278   5.099  0.00  0.00    +0.043 A 
ATOM      6  C   UNL     1       2.634   0.742   4.113  0.00  0.00    +0.055 A 
ATOM      7 CL   UNL     1       2.089   2.390   4.138  0.00  0.00    -0.083 Cl
ENDROOT
BRANCH   1  15
ATOM      8  C   UNL     1       0.036   1.327  -0.124  0.00  0.00    +0.028 C 
ATOM      9  C   UNL     1      -0.457  -0.028   0.388  0.00  0.00    +0.073 C 
ATOM     10  C   UNL     1      -0.349  -1.070  -0.730  0.00  0.00    +0.022 C 
ATOM     11  C   UNL     1      -0.711  -2.449  -0.174  0.00  0.00    +0.003 C 
ATOM     12  C   UNL     1       0.272  -2.827   0.936  0.00  0.00    +0.019 C 
ATOM     13  C   UNL     1       0.171  -1.806   2.073  0.00  0.00    +0.108 C 
ATOM     14  N   UNL     1       0.373  -0.459   1.521  0.00  0.00    -0.295 N 
ATOM     15  C   UNL     1       1.304   0.365   2.042  0.00  0.00    +0.248 C 
ATOM     16  O   UNL     1       1.395   1.510   1.642  0.00  0.00    -0.270 OA
ENDBRANCH   1  15
BRANCH   4  17
ATOM     17  N   UNL     1       4.773  -1.509   6.065  0.00  0.00    -0.335 N 
ATOM     18  H   UNL     1       5.079  -2.429   6.048  0.00  0.00    +0.147 HD
BRANCH  17  19
ATOM     19  C   UNL     1       5.212  -0.610   7.135  0.00  0.00    +0.198 C 
BRANCH  19  20
ATOM     20  C   UNL     1       6.127  -1.355   8.073  0.00  0.00    +0.237 C 
ATOM     21  O   UNL     1       6.386  -2.522   7.867  0.00  0.00    -0.274 OA
ATOM     22  N   UNL     1       6.657  -0.725   9.140  0.00  0.00    -0.239 N 
ATOM     23  C   UNL     1       7.475  -1.391   9.978  0.00  0.00    +0.303 C 
ATOM     24  O   UNL     1       7.735  -2.561   9.772  0.00  0.00    -0.253 OA
ATOM     25  N   UNL     1       8.005  -0.761  11.045  0.00  0.00    -0.313 N 
ATOM     26  H   UNL     1       6.449   0.208   9.304  0.00  0.00    +0.159 HD
ATOM     27  H   UNL     1       7.797   0.172  11.210  0.00  0.00    +0.146 HD
ATOM     28  H   UNL     1       8.594  -1.241  11.649  0.00  0.00    +0.146 HD
ENDBRANCH  19  20
ENDBRANCH  17  19
ENDBRANCH   4  17
TORSDOF 4
