REMARK  Name = ZINC48026478
REMARK  12 active torsions:
REMARK  status: ('A' for Active; 'I' for Inactive)
REMARK    1  A    between atoms: C_1  and  C_2
REMARK    2  A    between atoms: C_4  and  O_12
REMARK    3  A    between atoms: C_5  and  C_9
REMARK    4  A    between atoms: C_9  and  C_10
REMARK    5  A    between atoms: C_9  and  C_11
REMARK    6  A    between atoms: O_12  and  C_13
REMARK    7  A    between atoms: C_13  and  C_14
REMARK    8  A    between atoms: C_14  and  C_16
REMARK    9  A    between atoms: C_14  and  O_27
REMARK   10  A    between atoms: C_16  and  N_17
REMARK   11  A    between atoms: C_20  and  C_23
REMARK   12  A    between atoms: C_23  and  C_24
REMARK                            x       y       z     vdW  Elec       q    Type
REMARK                         _______ _______ _______ _____ _____    ______ ____
ROOT
ATOM      1  C   UNL     1       0.017  -2.893  -4.798  0.00  0.00    +0.135 C 
ENDROOT
BRANCH   1   2
ATOM      2  O   UNL     1      -1.194  -3.651  -4.826  0.00  0.00    -0.390 OA
ATOM      3  H   UNL     1      -1.994  -3.111  -4.882  0.00  0.00    +0.210 HD
ENDBRANCH   1   2
BRANCH   1   4
ATOM      4  C   UNL     1       0.011  -1.966  -3.581  0.00  0.00    +0.258 C 
BRANCH   4   5
ATOM      5  O   UNL     1       0.028  -2.749  -2.386  0.00  0.00    -0.489 OA
BRANCH   5   9
ATOM      6  C   UNL     1      -0.018   1.503   0.010  0.00  0.00    +0.045 C 
ATOM      7  C   UNL     1       0.002  -0.004   0.002  0.00  0.00    -0.029 A 
ATOM      8  C   UNL     1       0.006  -0.688  -1.199  0.00  0.00    +0.050 A 
ATOM      9  C   UNL     1       0.025  -2.075  -1.206  0.00  0.00    +0.124 A 
ATOM     10  C   UNL     1       0.040  -2.773  -0.007  0.00  0.00    -0.002 A 
ATOM     11  C   UNL     1       0.036  -2.086   1.192  0.00  0.00    +0.027 A 
ATOM     12  C   UNL     1       0.023  -0.702   1.196  0.00  0.00    +0.044 A 
ATOM     13 CL   UNL     1       0.025   0.160   2.704  0.00  0.00    -0.083 Cl
BRANCH  10  14
ATOM     14  C   UNL     1       0.060  -4.279  -0.012  0.00  0.00    +0.016 C 
ATOM     15  C   UNL     1       1.319  -4.775   0.702  0.00  0.00    +0.012 C 
ATOM     16  C   UNL     1      -1.179  -4.808   0.714  0.00  0.00    +0.012 C 
ENDBRANCH  10  14
ENDBRANCH   5   9
ENDBRANCH   4   5
ENDBRANCH   1   4
BRANCH   1  17
ATOM     17  C   UNL     1       0.125  -2.056  -6.075  0.00  0.00    -0.044 C 
BRANCH  17  18
ATOM     18  N   UNL     1       0.131  -2.946  -7.244  0.00  0.00    +0.381 N 
ATOM     19  C   UNL     1       1.337  -3.782  -7.214  0.00  0.00    -0.078 C 
ATOM     20  C   UNL     1       1.309  -4.767  -8.385  0.00  0.00    -0.015 C 
ATOM     21  C   UNL     1       1.260  -3.985  -9.701  0.00  0.00    -0.006 C 
ATOM     22  C   UNL     1       0.039  -3.062  -9.690  0.00  0.00    -0.015 C 
ATOM     23  C   UNL     1       0.114  -2.140  -8.470  0.00  0.00    -0.078 C 
ATOM     24  H   UNL     1      -0.686  -3.537  -7.220  0.00  0.00    -0.082 HD
BRANCH  21  25
ATOM     25  C   UNL     1       1.151  -4.963 -10.873  0.00  0.00    +0.099 C 
BRANCH  25  26
ATOM     26  C   UNL     1       1.227  -4.201 -12.171  0.00  0.00    +0.211 C 
ATOM     27  O   UNL     1       1.355  -2.995 -12.160  0.00  0.00    -0.276 OA
ATOM     28  N   UNL     1       1.152  -4.860 -13.345  0.00  0.00    -0.329 N 
ATOM     29  H   UNL     1       1.050  -5.825 -13.353  0.00  0.00    +0.145 HD
ATOM     30  H   UNL     1       1.201  -4.370 -14.180  0.00  0.00    +0.145 HD
ENDBRANCH  25  26
ENDBRANCH  21  25
ENDBRANCH  17  18
ENDBRANCH   1  17
TORSDOF 9
