REMARK  Name = ZINC62789761
REMARK  5 active torsions:
REMARK  status: ('A' for Active; 'I' for Inactive)
REMARK    1  A    between atoms: C_1  and  C_2
REMARK    2  A    between atoms: C_6  and  S_8
REMARK    3  A    between atoms: S_8  and  C_9
REMARK    4  A    between atoms: C_14  and  C_15
REMARK    5  A    between atoms: N_16  and  O_17
REMARK                            x       y       z     vdW  Elec       q    Type
REMARK                         _______ _______ _______ _____ _____    ______ ____
ROOT
ATOM      1  C   UNL     1      -0.073  -4.668   2.210  0.00  0.00    +0.025 A 
ATOM      2  C   UNL     1      -0.050  -5.003   0.862  0.00  0.00    +0.035 A 
ATOM      3  C   UNL     1      -0.151  -6.326   0.477  0.00  0.00    +0.042 A 
ATOM      4  C   UNL     1      -0.277  -7.326   1.429  0.00  0.00    +0.021 A 
ATOM      5  C   UNL     1      -0.302  -7.010   2.771  0.00  0.00    +0.014 A 
ATOM      6  C   UNL     1      -0.195  -5.678   3.175  0.00  0.00    +0.032 A 
ATOM      7 CL   UNL     1      -0.121  -6.739  -1.209  0.00  0.00    -0.084 Cl
ENDROOT
BRANCH   6   8
ATOM      8  C   UNL     1      -0.215  -5.334   4.612  0.00  0.00    +0.163 C 
ATOM      9  N   UNL     1      -0.121  -4.090   4.985  0.00  0.00    -0.071 NA
ATOM     10  N   UNL     1      -0.336  -6.335   5.562  0.00  0.00    -0.340 N 
ATOM     11  H   UNL     1      -0.406  -7.262   5.284  0.00  0.00    +0.144 HD
ATOM     12  H   UNL     1      -0.349  -6.109   6.505  0.00  0.00    +0.144 HD
BRANCH   9  13
ATOM     13  O   UNL     1      -0.141  -3.761   6.362  0.00  0.00    -0.408 OA
ATOM     14  H   UNL     1      -0.065  -2.813   6.541  0.00  0.00    +0.328 HD
ENDBRANCH   9  13
ENDBRANCH   6   8
BRANCH   1  15
ATOM     15  S   UNL     1       0.056  -2.982   2.705  0.00  0.00    -0.089 S 
BRANCH  15  21
ATOM     16  C   UNL     1      -2.507  -0.684  -1.236  0.00  0.00    +0.044 C 
ATOM     17  C   UNL     1      -1.194  -1.051  -0.595  0.00  0.00    -0.049 A 
ATOM     18  C   UNL     1      -0.004  -0.686  -1.199  0.00  0.00    +0.003 A 
ATOM     19  C   UNL     1       1.203  -1.021  -0.614  0.00  0.00    +0.001 A 
ATOM     20  C   UNL     1       1.225  -1.721   0.576  0.00  0.00    +0.015 A 
ATOM     21  C   UNL     1       0.032  -2.089   1.186  0.00  0.00    +0.013 A 
ATOM     22  C   UNL     1      -1.179  -1.746   0.598  0.00  0.00    +0.018 A 
ENDBRANCH  15  21
ENDBRANCH   1  15
TORSDOF 4
