REMARK  Name = ZINC54275887
REMARK  14 active torsions:
REMARK  status: ('A' for Active; 'I' for Inactive)
REMARK    1  A    between atoms: C_1  and  C_2
REMARK    2  A    between atoms: C_2  and  N_3
REMARK    3  A    between atoms: N_3  and  C_4
REMARK    4  A    between atoms: N_3  and  C_6
REMARK    5  A    between atoms: C_4  and  C_5
REMARK    6  A    between atoms: C_9  and  C_12
REMARK    7  A    between atoms: C_18  and  S_31
REMARK    8  A    between atoms: C_27  and  C_29
REMARK    9  A    between atoms: C_27  and  C_30
REMARK   10  A    between atoms: S_31  and  C_32
REMARK   11  A    between atoms: C_32  and  C_33
REMARK   12  A    between atoms: C_33  and  C_34
REMARK   13  A    between atoms: C_34  and  C_35
REMARK   14  A    between atoms: C_34  and  C_36
REMARK                            x       y       z     vdW  Elec       q    Type
REMARK                         _______ _______ _______ _____ _____    ______ ____
ROOT
ATOM      1  C   UNL     1      -3.986  -1.519   4.943  0.00  0.00    +0.092 C 
ATOM      2  C   UNL     1      -4.341  -2.974   5.022  0.00  0.00    +0.069 A 
ATOM      3  C   UNL     1      -3.347  -3.933   5.317  0.00  0.00    +0.280 A 
ATOM      4  O   UNL     1      -2.193  -3.581   5.517  0.00  0.00    -0.265 OA
ATOM      5  N   UNL     1      -3.676  -5.232   5.377  0.00  0.00    -0.185 NA
ATOM      6  C   UNL     1      -4.915  -5.628   5.168  0.00  0.00    +0.171 A 
ATOM      7  N   UNL     1      -5.903  -4.733   4.884  0.00  0.00    -0.322 N 
ATOM      8  C   UNL     1      -5.617  -3.395   4.810  0.00  0.00    +0.111 A 
ATOM      9  N   UNL     1      -6.608  -2.485   4.529  0.00  0.00    -0.304 N 
ATOM     10  C   UNL     1      -6.445  -1.160   4.831  0.00  0.00    +0.017 C 
ATOM     11  C   UNL     1      -5.214  -0.650   5.038  0.00  0.00    +0.024 C 
ATOM     12  C   UNL     1      -5.038   0.711   5.345  0.00  0.00    +0.162 C 
ATOM     13  O   UNL     1      -3.918   1.138   5.542  0.00  0.00    -0.292 OA
ATOM     14  C   UNL     1      -6.211   1.648   5.435  0.00  0.00    +0.086 C 
ATOM     15  C   UNL     1      -7.328   1.138   4.517  0.00  0.00    -0.023 C 
ATOM     16  C   UNL     1      -7.674  -0.291   4.930  0.00  0.00    +0.058 C 
ATOM     17  C   UNL     1      -6.849   1.154   3.064  0.00  0.00    +0.011 C 
ATOM     18  C   UNL     1      -8.562   2.030   4.664  0.00  0.00    +0.011 C 
ATOM     19  H   UNL     1      -7.431  -2.785   4.112  0.00  0.00    +0.153 HD
ATOM     20  H   UNL     1      -6.809  -5.044   4.734  0.00  0.00    +0.169 HD
ENDROOT
BRANCH   1  24
ATOM     21  C   UNL     1      -2.016  -0.759   1.227  0.00  0.00    +0.030 A 
ATOM     22  C   UNL     1      -1.356  -0.520   2.426  0.00  0.00    +0.023 A 
ATOM     23  C   UNL     1      -1.996  -0.767   3.625  0.00  0.00    +0.006 A 
ATOM     24  C   UNL     1      -3.291  -1.251   3.633  0.00  0.00    -0.035 A 
ATOM     25  C   UNL     1      -3.951  -1.490   2.441  0.00  0.00    +0.006 A 
ATOM     26  C   UNL     1      -3.319  -1.240   1.239  0.00  0.00    +0.023 A 
BRANCH  21  27
ATOM     27  N   UNL     1      -1.372  -0.511   0.012  0.00  0.00    -0.330 N 
BRANCH  27  29
ATOM     28  C   UNL     1      -0.019   1.526   0.010  0.00  0.00    +0.024 C 
ATOM     29  C   UNL     1       0.002  -0.004   0.002  0.00  0.00    +0.102 C 
ENDBRANCH  27  29
BRANCH  27  30
ATOM     30  C   UNL     1      -2.072  -0.758  -1.251  0.00  0.00    +0.102 C 
ATOM     31  C   UNL     1      -1.816  -2.197  -1.703  0.00  0.00    +0.024 C 
ENDBRANCH  27  30
ENDBRANCH  21  27
ENDBRANCH   1  24
BRANCH   6  32
ATOM     32  S   UNL     1      -5.301  -7.345   5.256  0.00  0.00    -0.088 S 
BRANCH  32  33
ATOM     33  C   UNL     1      -3.715  -8.132   5.648  0.00  0.00    +0.077 C 
BRANCH  33  34
ATOM     34  C   UNL     1      -3.909  -9.646   5.755  0.00  0.00    +0.014 C 
BRANCH  34  35
ATOM     35  C   UNL     1      -2.571 -10.310   6.086  0.00  0.00    -0.016 C 
ATOM     36  C   UNL     1      -2.109  -9.863   7.474  0.00  0.00    +0.007 C 
ATOM     37  C   UNL     1      -2.739 -11.831   6.069  0.00  0.00    +0.007 C 
ENDBRANCH  34  35
ENDBRANCH  33  34
ENDBRANCH  32  33
ENDBRANCH   6  32
TORSDOF 8
