REMARK  Name = ZINC44465999
REMARK  9 active torsions:
REMARK  status: ('A' for Active; 'I' for Inactive)
REMARK    1  A    between atoms: C_4  and  C_7
REMARK    2  A    between atoms: C_7  and  C_8
REMARK    3  A    between atoms: C_7  and  C_14
REMARK    4  A    between atoms: C_7  and  N_20
REMARK    5  A    between atoms: C_24  and  C_25
REMARK    6  A    between atoms: C_25  and  CA_26
REMARK    7  A    between atoms: CA_26  and  C_28
REMARK    8  A    between atoms: CA_26  and  N_30
REMARK    9  A    between atoms: C_28  and  O_29
REMARK                            x       y       z     vdW  Elec       q    Type
REMARK                         _______ _______ _______ _____ _____    ______ ____
ROOT
ATOM      1  C   UNL     1       3.373  -0.940   0.033  0.00  0.00    +0.122 C 
ENDROOT
BRANCH   1   5
ATOM      2  C   UNL     1      -0.333   0.750   1.320  0.00  0.00    +0.000 A 
ATOM      3  C   UNL     1      -0.288  -0.032   0.181  0.00  0.00    +0.000 A 
ATOM      4  C   UNL     1       0.911  -0.579  -0.236  0.00  0.00    +0.006 A 
ATOM      5  C   UNL     1       2.066  -0.343   0.486  0.00  0.00    -0.013 A 
ATOM      6  C   UNL     1       2.022   0.440   1.625  0.00  0.00    +0.006 A 
ATOM      7  C   UNL     1       0.822   0.985   2.042  0.00  0.00    +0.000 A 
ENDBRANCH   1   5
BRANCH   1   8
ATOM      8  C   UNL     1       3.701  -0.440  -1.351  0.00  0.00    -0.013 A 
ATOM      9  C   UNL     1       3.920  -1.339  -2.377  0.00  0.00    +0.006 A 
ATOM     10  C   UNL     1       4.220  -0.880  -3.646  0.00  0.00    +0.000 A 
ATOM     11  C   UNL     1       4.302   0.479  -3.888  0.00  0.00    +0.000 A 
ATOM     12  C   UNL     1       4.082   1.378  -2.861  0.00  0.00    +0.000 A 
ATOM     13  C   UNL     1       3.777   0.919  -1.594  0.00  0.00    +0.006 A 
ENDBRANCH   1   8
BRANCH   1  14
ATOM     14  C   UNL     1       4.468  -0.536   0.986  0.00  0.00    -0.013 A 
ATOM     15  C   UNL     1       5.533   0.221   0.534  0.00  0.00    +0.006 A 
ATOM     16  C   UNL     1       6.537   0.592   1.408  0.00  0.00    +0.000 A 
ATOM     17  C   UNL     1       6.476   0.207   2.735  0.00  0.00    +0.000 A 
ATOM     18  C   UNL     1       5.410  -0.548   3.187  0.00  0.00    +0.000 A 
ATOM     19  C   UNL     1       4.404  -0.916   2.313  0.00  0.00    +0.006 A 
ENDBRANCH   1  14
BRANCH   1  20
ATOM     20  N   UNL     1       3.261  -2.401   0.009  0.00  0.00    -0.316 N 
ATOM     21  C   UNL     1       2.127  -3.132   0.237  0.00  0.00    +0.108 A 
ATOM     22  C   UNL     1       2.469  -4.429   0.118  0.00  0.00    +0.130 A 
ATOM     23  N   UNL     1       3.776  -4.488  -0.175  0.00  0.00    -0.241 NA
ATOM     24  C   UNL     1       4.256  -3.277  -0.247  0.00  0.00    +0.109 A 
BRANCH  24  25
ATOM     25  C   UNL     1       5.685  -2.916  -0.560  0.00  0.00    +0.060 C 
BRANCH  25  26
ATOM     26  CA  UNL     1       6.528  -3.020   0.712  0.00  0.00    -0.042 C 
BRANCH  26  27
ATOM     27  N   UNL     1       6.508  -4.405   1.201  0.00  0.00    +0.382 N 
ATOM     28  H1  UNL     1       6.888  -5.017   0.494  0.00  0.00    -0.090 HD
ATOM     29  H2  UNL     1       7.064  -4.475   2.040  0.00  0.00    -0.090 HD
ATOM     30  H3  UNL     1       5.557  -4.676   1.404  0.00  0.00    -0.090 HD
ENDBRANCH  26  27
BRANCH  26  31
ATOM     31  C   UNL     1       7.970  -2.610   0.404  0.00  0.00    +0.140 C 
BRANCH  31  32
ATOM     32  O   UNL     1       8.730  -2.595   1.615  0.00  0.00    -0.397 OA
ATOM     33  H   UNL     1       9.656  -2.343   1.494  0.00  0.00    +0.209 HD
ENDBRANCH  31  32
ENDBRANCH  26  31
ENDBRANCH  25  26
ENDBRANCH  24  25
ENDBRANCH   1  20
TORSDOF 9
