REMARK  Name = ZINC44322153
REMARK  8 active torsions:
REMARK  status: ('A' for Active; 'I' for Inactive)
REMARK    1  A    between atoms: C_1  and  C_2
REMARK    2  A    between atoms: C_3  and  C_11
REMARK    3  A    between atoms: C_11  and  CA_12
REMARK    4  A    between atoms: CA_12  and  C_14
REMARK    5  A    between atoms: CA_12  and  N_17
REMARK    6  A    between atoms: C_18  and  O_20
REMARK    7  A    between atoms: O_20  and  C_21
REMARK    8  A    between atoms: C_21  and  C_22
REMARK                            x       y       z     vdW  Elec       q    Type
REMARK                         _______ _______ _______ _____ _____    ______ ____
ROOT
ATOM      1  N   UNL     1      -2.090  -1.495  -3.028  0.00  0.00    -0.267 N 
ATOM      2  C   UNL     1      -3.429  -1.599  -2.915  0.00  0.00    +0.401 C 
ATOM      3  O   UNL     1      -4.108  -0.598  -2.797  0.00  0.00    -0.226 OA
ATOM      4  H   UNL     1      -1.548  -2.294  -3.122  0.00  0.00    +0.153 HD
ENDROOT
BRANCH   1   5
ATOM      5  CA  UNL     1      -1.454  -0.176  -3.008  0.00  0.00    +0.195 C 
BRANCH   5   6
ATOM      6  C   UNL     1      -1.471   0.411  -4.396  0.00  0.00    +0.376 C 
ATOM      7  O   UNL     1      -1.799  -0.279  -5.346  0.00  0.00    -0.244 OA
ATOM      8  OXT UNL     1      -1.157   1.576  -4.569  0.00  0.00    -0.244 OA
ENDBRANCH   5   6
BRANCH   5   9
ATOM      9  C   UNL     1      -0.006  -0.315  -2.531  0.00  0.00    +0.089 C 
BRANCH   9  12
ATOM     10  C   UNL     1      -0.018   1.503   0.010  0.00  0.00    +0.065 C 
ATOM     11  C   UNL     1       0.002  -0.004   0.002  0.00  0.00    +0.034 A 
ATOM     12  C   UNL     1       0.008  -0.786  -1.100  0.00  0.00    +0.046 A 
ATOM     13  N   UNL     1       0.028  -2.086  -0.672  0.00  0.00    -0.305 N 
ATOM     14  C   UNL     1       0.042  -3.277  -1.339  0.00  0.00    +0.093 A 
ATOM     15  C   UNL     1       0.062  -4.444  -0.661  0.00  0.00    +0.018 A 
ATOM     16  C   UNL     1       0.069  -4.447   0.743  0.00  0.00    +0.005 A 
ATOM     17  C   UNL     1       0.055  -3.267   1.420  0.00  0.00    +0.045 A 
ATOM     18  C   UNL     1       0.034  -2.057   0.698  0.00  0.00    +0.116 A 
ATOM     19  N   UNL     1       0.024  -0.789   1.082  0.00  0.00    -0.343 N 
ATOM     20  H   UNL     1       0.028  -0.479   2.002  0.00  0.00    +0.167 HD
ENDBRANCH   9  12
ENDBRANCH   5   9
ENDBRANCH   1   5
BRANCH   2  21
ATOM     21  O   UNL     1      -4.014  -2.811  -2.933  0.00  0.00    -0.449 OA
BRANCH  21  22
ATOM     22  C   UNL     1      -5.438  -2.847  -2.809  0.00  0.00    +0.246 C 
BRANCH  22  23
ATOM     23  C   UNL     1      -5.917  -4.299  -2.851  0.00  0.00    +0.088 C 
ATOM     24  C   UNL     1      -5.702  -4.878  -4.228  0.00  0.00    -0.029 A 
ATOM     25  C   UNL     1      -4.565  -5.076  -4.982  0.00  0.00    +0.005 A 
ATOM     26  C   UNL     1      -4.659  -5.639  -6.242  0.00  0.00    +0.000 A 
ATOM     27  C   UNL     1      -5.893  -6.006  -6.748  0.00  0.00    +0.001 A 
ATOM     28  C   UNL     1      -7.036  -5.812  -6.000  0.00  0.00    +0.009 A 
ATOM     29  C   UNL     1      -6.949  -5.244  -4.728  0.00  0.00    -0.014 A 
ATOM     30  C   UNL     1      -7.996  -4.927  -3.725  0.00  0.00    -0.014 A 
ATOM     31  C   UNL     1      -7.404  -4.363  -2.599  0.00  0.00    -0.029 A 
ATOM     32  C   UNL     1      -8.177  -3.981  -1.523  0.00  0.00    +0.005 A 
ATOM     33  C   UNL     1      -9.549  -4.158  -1.559  0.00  0.00    +0.000 A 
ATOM     34  C   UNL     1     -10.147  -4.718  -2.674  0.00  0.00    +0.001 A 
ATOM     35  C   UNL     1      -9.381  -5.102  -3.755  0.00  0.00    +0.009 A 
ENDBRANCH  22  23
ENDBRANCH  21  22
ENDBRANCH   2  21
TORSDOF 7
