REMARK  Name = ZINC13016425
REMARK  4 active torsions:
REMARK  status: ('A' for Active; 'I' for Inactive)
REMARK    1  A    between atoms: C_7  and  C_11
REMARK    2  A    between atoms: N_19  and  C_20
REMARK    3  A    between atoms: C_20  and  C_21
REMARK    4  A    between atoms: C_21  and  C_22
REMARK                            x       y       z     vdW  Elec       q    Type
REMARK                         _______ _______ _______ _____ _____    ______ ____
ROOT
ATOM      1  C   UNL     1      -0.737   6.409   0.043  0.00  0.00    +0.024 C 
ATOM      2  C   UNL     1      -0.538   7.273  -1.205  0.00  0.00    +0.027 C 
ATOM      3  C   UNL     1      -1.565   8.409  -1.204  0.00  0.00    +0.110 C 
ATOM      4  N   UNL     1      -1.456   9.145   0.063  0.00  0.00    -0.286 N 
ATOM      5  C   UNL     1      -1.542   8.397   1.325  0.00  0.00    +0.110 C 
ATOM      6  C   UNL     1      -0.514   7.261   1.295  0.00  0.00    +0.027 C 
ATOM      7  C   UNL     1      -1.279  10.481   0.068  0.00  0.00    +0.302 C 
ATOM      8  O   UNL     1      -1.281  11.091   1.119  0.00  0.00    -0.253 OA
ATOM      9  N   UNL     1      -1.100  11.141  -1.094  0.00  0.00    -0.299 N 
ATOM     10  H   UNL     1      -1.172  10.667  -1.937  0.00  0.00    +0.150 HD
ENDROOT
BRANCH   1  17
ATOM     11  C   UNL     1      -1.218   1.747   0.018  0.00  0.00    +0.001 A 
ATOM     12  C   UNL     1      -0.002   1.077   0.009  0.00  0.00    +0.002 A 
ATOM     13  C   UNL     1       1.185   1.777   0.001  0.00  0.00    +0.026 A 
ATOM     14  C   UNL     1       1.167   3.168   0.009  0.00  0.00    +0.047 A 
ATOM     15  C   UNL     1      -0.068   3.841   0.024  0.00  0.00    +0.003 A 
ATOM     16  C   UNL     1      -1.259   3.112   0.031  0.00  0.00    +0.010 A 
ATOM     17  C   UNL     1       0.251   5.271   0.029  0.00  0.00    -0.019 A 
ATOM     18  C   UNL     1       1.589   5.375   0.016  0.00  0.00    +0.087 A 
ATOM     19  N   UNL     1       2.153   4.128   0.004  0.00  0.00    -0.360 N 
ATOM     20  H   UNL     1       3.107   3.948  -0.005  0.00  0.00    +0.165 HD
ENDBRANCH   1  17
BRANCH   9  21
ATOM     21  C   UNL     1      -0.797  12.574  -1.083  0.00  0.00    +0.110 C 
BRANCH  21  22
ATOM     22  C   UNL     1      -0.643  13.074  -2.520  0.00  0.00    +0.054 C 
BRANCH  22  23
ATOM     23  C   UNL     1      -0.331  14.549  -2.509  0.00  0.00    -0.046 A 
ATOM     24  C   UNL     1      -1.359  15.472  -2.549  0.00  0.00    +0.006 A 
ATOM     25  C   UNL     1      -1.075  16.825  -2.533  0.00  0.00    +0.038 A 
ATOM     26  C   UNL     1       0.240  17.255  -2.488  0.00  0.00    +0.123 A 
ATOM     27  C   UNL     1       1.269  16.329  -2.453  0.00  0.00    +0.038 A 
ATOM     28  C   UNL     1       0.982  14.977  -2.464  0.00  0.00    +0.006 A 
ATOM     29  F   UNL     1       0.519  18.576  -2.478  0.00  0.00    -0.205 F 
ENDBRANCH  22  23
ENDBRANCH  21  22
ENDBRANCH   9  21
TORSDOF 4
