REMARK  Name = ZINC10580741
REMARK  12 active torsions:
REMARK  status: ('A' for Active; 'I' for Inactive)
REMARK    1  A    between atoms: C_1  and  C_2
REMARK    2  A    between atoms: C_2  and  C_3
REMARK    3  A    between atoms: C_3  and  N_4
REMARK    4  A    between atoms: C_13  and  S_14
REMARK    5  A    between atoms: S_14  and  C_15
REMARK    6  A    between atoms: C_15  and  C_16
REMARK    7  A    between atoms: C_16  and  C_18
REMARK    8  A    between atoms: C_19  and  N_31
REMARK    9  A    between atoms: N_20  and  C_27
REMARK   10  A    between atoms: C_27  and  C_28
REMARK   11  A    between atoms: C_28  and  C_29
REMARK   12  A    between atoms: C_28  and  C_30
REMARK                            x       y       z     vdW  Elec       q    Type
REMARK                         _______ _______ _______ _____ _____    ______ ____
ROOT
ATOM      1  C   UNL     1      -0.744   8.201   0.130  0.00  0.00    +0.157 C 
ENDROOT
BRANCH   1   2
ATOM      2  C   UNL     1      -1.077   9.671   0.104  0.00  0.00    +0.182 C 
ATOM      3  O   UNL     1      -0.186  10.496   0.086  0.00  0.00    -0.291 OA
BRANCH   2   4
ATOM      4  C   UNL     1      -2.425  10.089   0.100  0.00  0.00    +0.120 A 
ATOM      5  C   UNL     1      -2.763  11.449   0.200  0.00  0.00    +0.116 A 
ATOM      6  N   UNL     1      -4.082  11.805   0.186  0.00  0.00    -0.281 N 
ATOM      7  C   UNL     1      -5.052  10.883   0.090  0.00  0.00    +0.331 A 
ATOM      8  O   UNL     1      -6.211  11.251   0.087  0.00  0.00    -0.246 OA
ATOM      9  N   UNL     1      -4.790   9.569  -0.003  0.00  0.00    -0.274 N 
ATOM     10  H   UNL     1      -5.617   8.848  -0.080  0.00  0.00    +0.173 HD
ATOM     11  C   UNL     1      -3.520   9.115  -0.004  0.00  0.00    +0.266 A 
ATOM     12  O   UNL     1      -3.286   7.924  -0.089  0.00  0.00    -0.267 OA
BRANCH   5  13
ATOM     13  N   UNL     1      -1.792  12.397   0.304  0.00  0.00    -0.344 N 
ATOM     14  H   UNL     1      -2.067  13.459   0.382  0.00  0.00    +0.144 HD
ATOM     15  H   UNL     1      -0.733  12.101   0.310  0.00  0.00    +0.144 HD
ENDBRANCH   5  13
BRANCH   6  16
ATOM     16  C   UNL     1      -4.444  13.221   0.284  0.00  0.00    +0.131 C 
BRANCH  16  17
ATOM     17  C   UNL     1      -4.609  13.604   1.756  0.00  0.00    +0.003 C 
ATOM     18  C   UNL     1      -4.864  15.109   1.866  0.00  0.00    +0.009 C 
ATOM     19  C   UNL     1      -5.793  12.841   2.353  0.00  0.00    +0.009 C 
ENDBRANCH  16  17
ENDBRANCH   6  16
ENDBRANCH   2   4
ENDBRANCH   1   2
BRANCH   1  20
ATOM     20  S   UNL     1       1.054   7.991   0.129  0.00  0.00    -0.080 S 
BRANCH  20  30
ATOM     21  N   UNL     1       2.380   5.629   0.169  0.00  0.00    -0.287 N 
ATOM     22  C   UNL     1       2.498   4.288   0.192  0.00  0.00    +0.263 A 
ATOM     23  O   UNL     1       3.598   3.763   0.197  0.00  0.00    -0.267 OA
ATOM     24  C   UNL     1       1.312   3.489   0.209  0.00  0.00    +0.076 A 
ATOM     25  C   UNL     1       1.210   2.021   0.234  0.00  0.00    -0.023 A 
ATOM     26  C   UNL     1      -0.027   1.498   0.251  0.00  0.00    -0.004 A 
ATOM     27  S   UNL     1      -1.120   2.901   0.223  0.00  0.00    -0.073 S 
ATOM     28  C   UNL     1       0.098   4.190   0.201  0.00  0.00    +0.117 A 
ATOM     29  N   UNL     1       0.048   5.518   0.177  0.00  0.00    -0.216 NA
ATOM     30  C   UNL     1       1.156   6.232   0.161  0.00  0.00    +0.173 A 
ATOM     31  C   UNL     1      -0.008  -0.006   0.280  0.00  0.00    +0.043 C 
ATOM     32  C   UNL     1       1.429  -0.367   0.717  0.00  0.00    +0.010 C 
ATOM     33  C   UNL     1       2.219   0.869   0.246  0.00  0.00    +0.037 C 
BRANCH  21  34
ATOM     34  C   UNL     1       3.589   6.457   0.152  0.00  0.00    +0.127 C 
BRANCH  34  36
ATOM     35  C   UNL     1       5.269   7.585  -1.314  0.00  0.00    +0.005 C 
ATOM     36  C   UNL     1       4.006   6.720  -1.296  0.00  0.00    +0.018 C 
ENDBRANCH  34  36
ENDBRANCH  21  34
ENDBRANCH  20  30
ENDBRANCH   1  20
TORSDOF 9
