REMARK  Name = ZINC05072695
REMARK  4 active torsions:
REMARK  status: ('A' for Active; 'I' for Inactive)
REMARK    1  A    between atoms: C_1  and  O_2
REMARK    2  A    between atoms: O_2  and  C_3
REMARK    3  A    between atoms: C_5  and  C_10
REMARK    4  A    between atoms: C_8  and  O_9
REMARK                            x       y       z     vdW  Elec       q    Type
REMARK                         _______ _______ _______ _____ _____    ______ ____
ROOT
ATOM      1  C   UNL     1      -4.871   0.257   0.037  0.00  0.00    +0.092 C 
ATOM      2  C   UNL     1      -5.646  -0.067   1.281  0.00  0.00    +0.067 A 
ATOM      3  C   UNL     1      -6.728  -0.894   1.236  0.00  0.00    +0.111 A 
ATOM      4  N   UNL     1      -7.414  -1.177   2.392  0.00  0.00    -0.323 N 
ATOM      5  H   UNL     1      -8.183  -1.768   2.365  0.00  0.00    +0.169 HD
ATOM      6  C   UNL     1      -7.023  -0.640   3.563  0.00  0.00    +0.159 A 
ATOM      7  S   UNL     1      -7.891  -1.010   4.992  0.00  0.00    -0.013 S 
ATOM      8  N   UNL     1      -5.960   0.182   3.627  0.00  0.00    -0.302 N 
ATOM      9  H   UNL     1      -5.696   0.560   4.480  0.00  0.00    +0.171 HD
ATOM     10  C   UNL     1      -5.260   0.485   2.516  0.00  0.00    +0.258 A 
ATOM     11  O   UNL     1      -4.298   1.231   2.581  0.00  0.00    -0.267 OA
ATOM     12  N   UNL     1      -7.132  -1.436   0.042  0.00  0.00    -0.304 N 
ATOM     13  C   UNL     1      -6.741  -0.879  -1.146  0.00  0.00    +0.017 C 
ATOM     14  C   UNL     1      -5.668  -0.065  -1.202  0.00  0.00    +0.024 C 
ATOM     15  C   UNL     1      -5.257   0.508  -2.419  0.00  0.00    +0.162 C 
ATOM     16  O   UNL     1      -4.295   1.250  -2.434  0.00  0.00    -0.292 OA
ATOM     17  C   UNL     1      -5.986   0.218  -3.702  0.00  0.00    +0.080 C 
ATOM     18  C   UNL     1      -6.628  -1.170  -3.608  0.00  0.00    +0.014 C 
ATOM     19  C   UNL     1      -7.543  -1.196  -2.385  0.00  0.00    +0.051 C 
ATOM     20  H   UNL     1      -7.700  -2.223   0.040  0.00  0.00    +0.153 HD
ENDROOT
BRANCH   1  23
ATOM     21  C   UNL     1      -1.201  -0.638   0.010  0.00  0.00    +0.162 A 
ATOM     22  C   UNL     1      -2.374   0.099   0.019  0.00  0.00    +0.054 A 
ATOM     23  C   UNL     1      -3.596  -0.546   0.027  0.00  0.00    -0.032 A 
ATOM     24  C   UNL     1      -3.652  -1.928   0.026  0.00  0.00    +0.008 A 
ATOM     25  C   UNL     1      -2.485  -2.669   0.017  0.00  0.00    +0.049 A 
ATOM     26  C   UNL     1      -1.257  -2.028   0.003  0.00  0.00    +0.158 A 
BRANCH  21  28
ATOM     27  C   UNL     1      -0.017   1.425   0.010  0.00  0.00    +0.277 C 
ATOM     28  O   UNL     1       0.002  -0.004   0.002  0.00  0.00    -0.491 OA
ENDBRANCH  21  28
BRANCH  26  29
ATOM     29  O   UNL     1      -0.108  -2.756  -0.012  0.00  0.00    -0.503 OA
ATOM     30  H   UNL     1       0.232  -2.972   0.867  0.00  0.00    +0.292 HD
ENDBRANCH  26  29
ENDBRANCH   1  23
TORSDOF 3
