REMARK  Name = ZINC35746452
REMARK  15 active torsions:
REMARK  status: ('A' for Active; 'I' for Inactive)
REMARK    1  A    between atoms: C_1  and  C_2
REMARK    2  A    between atoms: C_5  and  C_9
REMARK    3  A    between atoms: C_6  and  C_8
REMARK    4  A    between atoms: C_18  and  C_20
REMARK    5  A    between atoms: C_20  and  N_21
REMARK    6  A    between atoms: N_21  and  C_22
REMARK    7  A    between atoms: N_21  and  C_25
REMARK    8  A    between atoms: C_22  and  C_23
REMARK    9  A    between atoms: C_25  and  C_26
REMARK   10  A    between atoms: C_26  and  C_28
REMARK   11  A    between atoms: C_26  and  O_33
REMARK   12  A    between atoms: C_28  and  O_29
REMARK   13  A    between atoms: O_29  and  C_30
REMARK   14  A    between atoms: C_30  and  C_31
REMARK   15  A    between atoms: C_30  and  C_32
REMARK                            x       y       z     vdW  Elec       q    Type
REMARK                         _______ _______ _______ _____ _____    ______ ____
ROOT
ATOM      1  C   UNL     1       1.308  -4.936   0.115  0.00  0.00    +0.004 A 
ATOM      2  C   UNL     1       2.410  -5.718   0.210  0.00  0.00    +0.056 A 
ATOM      3  S   UNL     1       1.741  -7.330   0.574  0.00  0.00    -0.076 S 
ATOM      4  C   UNL     1       0.015  -6.920   0.590  0.00  0.00    +0.116 A 
ATOM      5  C   UNL     1      -0.003  -5.542   0.319  0.00  0.00    +0.080 A 
ATOM      6  C   UNL     1      -1.298  -4.935   0.276  0.00  0.00    +0.260 A 
ATOM      7  O   UNL     1      -1.416  -3.744   0.042  0.00  0.00    -0.267 OA
ATOM      8  N   UNL     1      -2.384  -5.698   0.497  0.00  0.00    -0.312 N 
ATOM      9  H   UNL     1      -3.265  -5.292   0.469  0.00  0.00    +0.170 HD
ATOM     10  C   UNL     1      -2.272  -7.026   0.757  0.00  0.00    +0.094 A 
ATOM     11  N   UNL     1      -1.104  -7.611   0.792  0.00  0.00    -0.229 NA
ENDROOT
BRANCH   1  16
ATOM     12  C   UNL     1       1.790   0.683  -1.049  0.00  0.00    +0.044 C 
ATOM     13  C   UNL     1       1.664  -0.788  -0.744  0.00  0.00    -0.050 A 
ATOM     14  C   UNL     1       2.045  -1.722  -1.690  0.00  0.00    +0.004 A 
ATOM     15  C   UNL     1       1.932  -3.070  -1.417  0.00  0.00    +0.009 A 
ATOM     16  C   UNL     1       1.432  -3.489  -0.184  0.00  0.00    -0.014 A 
ATOM     17  C   UNL     1       1.050  -2.543   0.765  0.00  0.00    -0.042 A 
ATOM     18  C   UNL     1       1.173  -1.197   0.482  0.00  0.00    +0.007 A 
ATOM     19  C   UNL     1       0.509  -2.987   2.099  0.00  0.00    +0.044 C 
ENDBRANCH   1  16
BRANCH  10  20
ATOM     20  C   UNL     1      -3.516  -7.842   0.998  0.00  0.00    -0.003 C 
BRANCH  20  21
ATOM     21  N   UNL     1      -3.148  -9.252   1.185  0.00  0.00    +0.388 N 
ATOM     22  H   UNL     1      -2.570  -9.554   0.415  0.00  0.00    -0.081 HD
BRANCH  21  23
ATOM     23  C   UNL     1      -4.366 -10.072   1.235  0.00  0.00    -0.051 C 
BRANCH  23  24
ATOM     24  C   UNL     1      -5.103  -9.957  -0.074  0.00  0.00    -0.053 C 
ATOM     25  C   UNL     1      -5.407 -11.036  -0.752  0.00  0.00    +0.002 C 
ENDBRANCH  23  24
ENDBRANCH  21  23
BRANCH  21  26
ATOM     26  C   UNL     1      -2.405  -9.401   2.443  0.00  0.00    -0.044 C 
BRANCH  26  27
ATOM     27  C   UNL     1      -1.859 -10.826   2.547  0.00  0.00    +0.124 C 
BRANCH  27  28
ATOM     28  O   UNL     1      -2.943 -11.740   2.726  0.00  0.00    -0.391 OA
ATOM     29  H   UNL     1      -3.467 -11.577   3.521  0.00  0.00    +0.210 HD
ENDBRANCH  27  28
BRANCH  27  30
ATOM     30  C   UNL     1      -0.908 -10.923   3.742  0.00  0.00    +0.189 C 
BRANCH  30  31
ATOM     31  O   UNL     1      -0.309 -12.220   3.770  0.00  0.00    -0.375 OA
BRANCH  31  32
ATOM     32  C   UNL     1       0.602 -12.415   4.854  0.00  0.00    +0.112 C 
ATOM     33  C   UNL     1       0.605 -13.891   5.257  0.00  0.00    +0.037 C 
ATOM     34  C   UNL     1       2.009 -12.003   4.418  0.00  0.00    +0.037 C 
ENDBRANCH  31  32
ENDBRANCH  30  31
ENDBRANCH  27  30
ENDBRANCH  26  27
ENDBRANCH  21  26
ENDBRANCH  20  21
ENDBRANCH  10  20
TORSDOF 11
