REMARK  Name = ZINC00732336
REMARK  5 active torsions:
REMARK  status: ('A' for Active; 'I' for Inactive)
REMARK    1  A    between atoms: C_4  and  N_17
REMARK    2  A    between atoms: C_6  and  N_7
REMARK    3  A    between atoms: N_7  and  C_8
REMARK    4  A    between atoms: C_8  and  C_9
REMARK    5  A    between atoms: C_14  and  O_15
REMARK                            x       y       z     vdW  Elec       q    Type
REMARK                         _______ _______ _______ _____ _____    ______ ____
ROOT
ATOM      1  N   UNL     1      -1.236   2.068   0.019  0.00  0.00    -0.340 N 
ATOM      2  H   UNL     1      -2.070   1.573   0.020  0.00  0.00    +0.146 HD
ENDROOT
BRANCH   1   8
ATOM      3  C   UNL     1       1.177   2.093   0.002  0.00  0.00    +0.026 A 
ATOM      4  C   UNL     1       2.381   1.416  -0.013  0.00  0.00    +0.042 A 
ATOM      5  C   UNL     1       2.398   0.032  -0.020  0.00  0.00    +0.154 A 
ATOM      6  C   UNL     1       1.208  -0.677  -0.013  0.00  0.00    +0.163 A 
ATOM      7  C   UNL     1       0.002  -0.004   0.002  0.00  0.00    +0.058 A 
ATOM      8  C   UNL     1      -0.017   1.385   0.010  0.00  0.00    +0.030 A 
ATOM      9  F   UNL     1       3.576  -0.629  -0.034  0.00  0.00    -0.203 F 
BRANCH   6  10
ATOM     10  N   UNL     1       1.228  -2.157  -0.021  0.00  0.00    +0.059 N 
ATOM     11  O   UNL     1       0.182  -2.781  -0.015  0.00  0.00    -0.126 OA
ATOM     12  O   UNL     1       2.292  -2.751  -0.035  0.00  0.00    -0.126 OA
ENDBRANCH   6  10
ENDBRANCH   1   8
BRANCH   1  13
ATOM     13  C   UNL     1      -1.255   3.533   0.027  0.00  0.00    +0.140 C 
BRANCH  13  14
ATOM     14  C   UNL     1      -2.682   4.017   0.037  0.00  0.00    +0.012 A 
ATOM     15  C   UNL     1      -3.276   4.443  -1.136  0.00  0.00    +0.024 A 
ATOM     16  C   UNL     1      -4.585   4.887  -1.128  0.00  0.00    +0.018 A 
ATOM     17  C   UNL     1      -5.304   4.907   0.054  0.00  0.00    +0.019 A 
ATOM     18  C   UNL     1      -4.714   4.483   1.229  0.00  0.00    +0.047 A 
ATOM     19  C   UNL     1      -3.402   4.031   1.222  0.00  0.00    +0.122 A 
ATOM     20 BR   UNL     1      -5.395   5.468  -2.735  0.00  0.00    -0.050 Br
BRANCH  19  21
ATOM     21  O   UNL     1      -2.822   3.608   2.376  0.00  0.00    -0.506 OA
ATOM     22  H   UNL     1      -2.374   4.307   2.870  0.00  0.00    +0.292 HD
ENDBRANCH  19  21
ENDBRANCH  13  14
ENDBRANCH   1  13
TORSDOF 5
