REMARK  Name = ZINC37546170
REMARK  7 active torsions:
REMARK  status: ('A' for Active; 'I' for Inactive)
REMARK    1  A    between atoms: C_1  and  C_2
REMARK    2  A    between atoms: C_2  and  C_3
REMARK    3  A    between atoms: C_2  and  N_4
REMARK    4  A    between atoms: C_9  and  C_22
REMARK    5  A    between atoms: C_13  and  C_15
REMARK    6  A    between atoms: N_24  and  C_25
REMARK    7  A    between atoms: C_25  and  C_26
REMARK                            x       y       z     vdW  Elec       q    Type
REMARK                         _______ _______ _______ _____ _____    ______ ____
ROOT
ATOM      1  N   UNL     1      -0.002  -2.263   1.074  0.00  0.00    -0.297 N 
ATOM      2  C   UNL     1      -0.416  -1.800   2.270  0.00  0.00    +0.303 C 
ATOM      3  O   UNL     1      -1.538  -1.347   2.390  0.00  0.00    -0.253 OA
ATOM      4  N   UNL     1       0.412  -1.839   3.332  0.00  0.00    -0.278 N 
ATOM      5  C   UNL     1       1.807  -2.276   3.178  0.00  0.00    +0.122 C 
ATOM      6  C   UNL     1       2.728  -1.198   3.756  0.00  0.00    +0.092 C 
ATOM      7  C   UNL     1       2.318  -0.903   5.201  0.00  0.00    +0.016 C 
ATOM      8  C   UNL     1       0.882  -0.376   5.228  0.00  0.00    +0.028 C 
ATOM      9  C   UNL     1      -0.059  -1.438   4.665  0.00  0.00    +0.108 C 
ATOM     10  H   UNL     1       0.915  -2.558   0.960  0.00  0.00    +0.150 HD
ENDROOT
BRANCH   9  11
ATOM     11  C   UNL     1      -1.452  -0.872   4.559  0.00  0.00    -0.027 A 
ATOM     12  C   UNL     1      -1.670   0.299   3.857  0.00  0.00    +0.008 A 
ATOM     13  C   UNL     1      -2.947   0.819   3.759  0.00  0.00    +0.038 A 
ATOM     14  C   UNL     1      -4.008   0.166   4.364  0.00  0.00    +0.123 A 
ATOM     15  C   UNL     1      -3.788  -1.007   5.066  0.00  0.00    +0.038 A 
ATOM     16  C   UNL     1      -2.511  -1.528   5.159  0.00  0.00    +0.008 A 
ATOM     17  F   UNL     1      -5.256   0.673   4.269  0.00  0.00    -0.205 F 
ENDBRANCH   9  11
BRANCH   6  18
ATOM     18  C   UNL     1       4.154  -1.686   3.727  0.00  0.00    +0.218 C 
ATOM     19  O   UNL     1       4.782  -1.786   4.760  0.00  0.00    -0.275 OA
ATOM     20  N   UNL     1       4.731  -2.012   2.554  0.00  0.00    -0.311 N 
ATOM     21  H   UNL     1       4.229  -1.932   1.728  0.00  0.00    +0.149 HD
BRANCH  20  22
ATOM     22  C   UNL     1       6.116  -2.487   2.525  0.00  0.00    +0.139 C 
BRANCH  22  23
ATOM     23  C   UNL     1       6.518  -2.780   1.103  0.00  0.00    -0.028 A 
ATOM     24  C   UNL     1       6.313  -4.041   0.573  0.00  0.00    +0.005 A 
ATOM     25  C   UNL     1       6.681  -4.311  -0.732  0.00  0.00    +0.003 A 
ATOM     26  C   UNL     1       7.254  -3.322  -1.508  0.00  0.00    +0.038 A 
ATOM     27  C   UNL     1       7.460  -2.059  -0.979  0.00  0.00    +0.124 A 
ATOM     28  C   UNL     1       7.086  -1.788   0.327  0.00  0.00    +0.043 A 
ATOM     29  F   UNL     1       8.021  -1.091  -1.736  0.00  0.00    -0.205 F 
ENDBRANCH  22  23
ENDBRANCH  20  22
ENDBRANCH   6  18
BRANCH   1  31
ATOM     30  C   UNL     1      -0.972  -0.964  -0.756  0.00  0.00    +0.027 C 
ATOM     31  C   UNL     1      -0.936  -2.322  -0.053  0.00  0.00    +0.068 C 
ATOM     32  C   UNL     1      -0.477  -3.396  -1.041  0.00  0.00    +0.027 C 
ENDBRANCH   1  31
TORSDOF 5
