REMARK  Name = ZINC08790263
REMARK  7 active torsions:
REMARK  status: ('A' for Active; 'I' for Inactive)
REMARK    1  A    between atoms: C_1  and  C_2
REMARK    2  A    between atoms: C_13  and  C_15
REMARK    3  A    between atoms: C_15  and  C_16
REMARK    4  A    between atoms: C_16  and  C_17
REMARK    5  A    between atoms: N_22  and  C_25
REMARK    6  A    between atoms: C_25  and  C_26
REMARK    7  A    between atoms: C_26  and  C_27
REMARK                            x       y       z     vdW  Elec       q    Type
REMARK                         _______ _______ _______ _____ _____    ______ ____
ROOT
ATOM      1  C   UNL     1       9.040  -8.641  -1.313  0.00  0.00    +0.044 C 
ATOM      2  C   UNL     1       8.144  -7.742  -2.125  0.00  0.00    -0.050 A 
ATOM      3  C   UNL     1       7.207  -8.288  -2.984  0.00  0.00    +0.005 A 
ATOM      4  C   UNL     1       6.385  -7.470  -3.729  0.00  0.00    +0.024 A 
ATOM      5  C   UNL     1       6.492  -6.085  -3.624  0.00  0.00    +0.036 A 
ATOM      6  C   UNL     1       7.438  -5.546  -2.757  0.00  0.00    -0.027 A 
ATOM      7  C   UNL     1       8.256  -6.367  -2.014  0.00  0.00    +0.008 A 
ATOM      8  C   UNL     1       7.300  -4.055  -2.874  0.00  0.00    +0.050 C 
ATOM      9  C   UNL     1       6.957  -3.413  -1.524  0.00  0.00    +0.088 C 
ATOM     10  C   UNL     1       7.716  -2.057  -1.530  0.00  0.00    +0.073 C 
ATOM     11  C   UNL     1       8.424  -2.006  -2.901  0.00  0.00    -0.057 C 
ATOM     12  C   UNL     1       6.602  -1.034  -1.516  0.00  0.00    +0.224 C 
ATOM     13  O   UNL     1       6.755   0.168  -1.514  0.00  0.00    -0.275 OA
ATOM     14  N   UNL     1       5.421  -1.663  -1.502  0.00  0.00    -0.241 N 
ATOM     15  C   UNL     1       5.503  -2.999  -1.510  0.00  0.00    +0.225 C 
ATOM     16  O   UNL     1       4.558  -3.759  -1.506  0.00  0.00    -0.275 OA
ATOM     17  C   UNL     1       6.202  -3.841  -3.879  0.00  0.00    +0.211 C 
ATOM     18  O   UNL     1       5.772  -2.775  -4.268  0.00  0.00    -0.277 OA
ATOM     19  N   UNL     1       5.787  -5.064  -4.264  0.00  0.00    -0.286 N 
ATOM     20  H   UNL     1       5.080  -5.217  -4.910  0.00  0.00    +0.155 HD
ATOM     21  N   UNL     1       8.533  -3.413  -3.295  0.00  0.00    +0.394 N 
ATOM     22  H   UNL     1       8.643  -3.489  -4.313  0.00  0.00    -0.083 HD
ATOM     23  H   UNL     1       9.337  -3.850  -2.830  0.00  0.00    -0.083 HD
ENDROOT
BRANCH  11  24
ATOM     24  C   UNL     1       9.802  -1.356  -2.764  0.00  0.00    -0.006 C 
BRANCH  24  25
ATOM     25  C   UNL     1      10.466  -1.274  -4.140  0.00  0.00    +0.094 C 
BRANCH  25  26
ATOM     26  C   UNL     1      11.824  -0.634  -4.006  0.00  0.00    +0.210 C 
ATOM     27  O   UNL     1      12.221  -0.278  -2.916  0.00  0.00    -0.276 OA
ATOM     28  N   UNL     1      12.596  -0.456  -5.096  0.00  0.00    -0.329 N 
ATOM     29  H   UNL     1      12.278  -0.740  -5.967  0.00  0.00    +0.145 HD
ATOM     30  H   UNL     1      13.470  -0.044  -5.009  0.00  0.00    +0.145 HD
ENDBRANCH  25  26
ENDBRANCH  24  25
ENDBRANCH  11  24
BRANCH  14  31
ATOM     31  C   UNL     1       4.142  -0.948  -1.486  0.00  0.00    +0.121 C 
BRANCH  31  32
ATOM     32  C   UNL     1       3.711  -0.707  -0.038  0.00  0.00    +0.054 C 
BRANCH  32  33
ATOM     33  C   UNL     1       2.396   0.029  -0.021  0.00  0.00    -0.046 A 
ATOM     34  C   UNL     1       1.208  -0.679  -0.014  0.00  0.00    +0.004 A 
ATOM     35  C   UNL     1       0.002  -0.004   0.002  0.00  0.00    +0.000 A 
ATOM     36  C   UNL     1      -0.017   1.378   0.010  0.00  0.00    +0.000 A 
ATOM     37  C   UNL     1       1.171   2.086   0.002  0.00  0.00    +0.000 A 
ATOM     38  C   UNL     1       2.377   1.411  -0.014  0.00  0.00    +0.004 A 
ENDBRANCH  32  33
ENDBRANCH  31  32
ENDBRANCH  14  31
TORSDOF 6
