REMARK  Name = ZINC14273303
REMARK  13 active torsions:
REMARK  status: ('A' for Active; 'I' for Inactive)
REMARK    1  A    between atoms: C_1  and  C_2
REMARK    2  A    between atoms: C_2  and  C_3
REMARK    3  A    between atoms: C_2  and  C_4
REMARK    4  A    between atoms: C_2  and  C_5
REMARK    5  A    between atoms: C_8  and  O_11
REMARK    6  A    between atoms: O_11  and  C_12
REMARK    7  A    between atoms: C_12  and  C_13
REMARK    8  A    between atoms: N_15  and  C_16
REMARK    9  A    between atoms: C_17  and  C_30
REMARK   10  A    between atoms: C_22  and  C_26
REMARK   11  A    between atoms: C_26  and  C_27
REMARK   12  A    between atoms: C_26  and  C_28
REMARK   13  A    between atoms: C_26  and  C_29
REMARK                            x       y       z     vdW  Elec       q    Type
REMARK                         _______ _______ _______ _____ _____    ______ ____
ROOT
ATOM      1  C   UNL     1       1.175   2.053   0.002  0.00  0.00    +0.084 A 
ATOM      2  C   UNL     1       1.359   3.429   0.007  0.00  0.00    +0.068 A 
ATOM      3  C   UNL     1       2.726   3.923  -0.002  0.00  0.00    -0.023 A 
ATOM      4  C   UNL     1       3.682   2.970  -0.017  0.00  0.00    -0.004 A 
ATOM      5  S   UNL     1       2.795   1.438  -0.009  0.00  0.00    -0.077 S 
ATOM      6  C   UNL     1       5.165   3.178  -0.030  0.00  0.00    +0.046 C 
ATOM      7  C   UNL     1       5.445   4.641  -0.403  0.00  0.00    -0.000 C 
ATOM      8  C   UNL     1       4.549   5.547   0.447  0.00  0.00    +0.009 C 
ATOM      9  C   UNL     1       3.092   5.402   0.003  0.00  0.00    +0.037 C 
ENDROOT
BRANCH   2  10
ATOM     10  C   UNL     1       0.218   4.349   0.022  0.00  0.00    +0.244 C 
ATOM     11  O   UNL     1      -0.246   4.725   1.083  0.00  0.00    -0.270 OA
ATOM     12  N   UNL     1      -0.317   4.777  -1.138  0.00  0.00    -0.325 N 
ATOM     13  H   UNL     1       0.053   4.477  -1.983  0.00  0.00    +0.145 HD
ATOM     14  H   UNL     1      -1.072   5.386  -1.128  0.00  0.00    +0.145 HD
ENDBRANCH   2  10
BRANCH   1  17
ATOM     15  C   UNL     1       0.002  -0.004   0.002  0.00  0.00    +0.255 C 
ATOM     16  O   UNL     1       1.060  -0.596  -0.011  0.00  0.00    -0.272 OA
ATOM     17  N   UNL     1      -0.016   1.344   0.009  0.00  0.00    -0.277 N 
ATOM     18  H   UNL     1      -0.863   1.817   0.016  0.00  0.00    +0.155 HD
BRANCH  15  19
ATOM     19  C   UNL     1      -1.293  -0.775   0.010  0.00  0.00    +0.324 C 
BRANCH  19  20
ATOM     20  O   UNL     1      -1.012  -2.176   0.000  0.00  0.00    -0.483 OA
BRANCH  20  24
ATOM     21  C   UNL     1      -4.250  -4.734   0.017  0.00  0.00    -0.042 A 
ATOM     22  C   UNL     1      -2.966  -5.246   0.002  0.00  0.00    +0.008 A 
ATOM     23  C   UNL     1      -1.880  -4.392  -0.004  0.00  0.00    +0.046 A 
ATOM     24  C   UNL     1      -2.079  -3.019   0.006  0.00  0.00    +0.121 A 
ATOM     25  C   UNL     1      -3.368  -2.507   0.026  0.00  0.00    +0.046 A 
ATOM     26  C   UNL     1      -4.451  -3.366   0.026  0.00  0.00    +0.008 A 
BRANCH  21  28
ATOM     27  C   UNL     1      -5.373  -6.557   1.267  0.00  0.00    +0.015 C 
ATOM     28  C   UNL     1      -5.432  -5.668   0.023  0.00  0.00    -0.013 C 
ATOM     29  C   UNL     1      -6.726  -4.852   0.040  0.00  0.00    +0.015 C 
ATOM     30  C   UNL     1      -5.397  -6.543  -1.231  0.00  0.00    +0.015 C 
ENDBRANCH  21  28
ENDBRANCH  20  24
ENDBRANCH  19  20
ENDBRANCH  15  19
ENDBRANCH   1  17
BRANCH   7  31
ATOM     31  C   UNL     1       6.913   4.969  -0.128  0.00  0.00    -0.035 C 
ATOM     32  C   UNL     1       7.218   4.740   1.354  0.00  0.00    +0.011 C 
ATOM     33  C   UNL     1       7.806   4.063  -0.978  0.00  0.00    +0.011 C 
ATOM     34  C   UNL     1       7.185   6.432  -0.484  0.00  0.00    +0.011 C 
ENDBRANCH   7  31
TORSDOF 7
