REMARK  Name = ZINC09121192
REMARK  9 active torsions:
REMARK  status: ('A' for Active; 'I' for Inactive)
REMARK    1  A    between atoms: C_1  and  N_2
REMARK    2  A    between atoms: C_5  and  C_18
REMARK    3  A    between atoms: C_6  and  N_17
REMARK    4  A    between atoms: N_7  and  C_10
REMARK    5  A    between atoms: C_10  and  C_11
REMARK    6  A    between atoms: C_18  and  C_20
REMARK    7  A    between atoms: C_20  and  N_21
REMARK    8  A    between atoms: N_21  and  C_22
REMARK    9  A    between atoms: C_27  and  N_28
REMARK                            x       y       z     vdW  Elec       q    Type
REMARK                         _______ _______ _______ _____ _____    ______ ____
ROOT
ATOM      1  C   UNL     1       5.779   4.629   0.188  0.00  0.00    +0.157 C 
ATOM      2  N   UNL     1       4.378   5.046   0.094  0.00  0.00    -0.263 N 
ATOM      3  C   UNL     1       3.404   4.113   0.095  0.00  0.00    +0.269 A 
ATOM      4  O   UNL     1       3.678   2.930   0.174  0.00  0.00    -0.267 OA
ATOM      5  C   UNL     1       2.007   4.554  -0.006  0.00  0.00    +0.121 A 
ATOM      6  C   UNL     1       1.758   5.935  -0.088  0.00  0.00    +0.116 A 
ATOM      7  N   UNL     1       2.817   6.799  -0.075  0.00  0.00    -0.277 N 
ATOM      8  C   UNL     1       4.080   6.353   0.013  0.00  0.00    +0.333 A 
ATOM      9  O   UNL     1       4.987   7.162   0.020  0.00  0.00    -0.246 OA
ENDROOT
BRANCH   6  10
ATOM     10  N   UNL     1       0.485   6.404  -0.178  0.00  0.00    -0.344 N 
ATOM     11  H   UNL     1      -0.264   5.792  -0.105  0.00  0.00    +0.144 HD
ATOM     12  H   UNL     1       0.325   7.351  -0.317  0.00  0.00    +0.144 HD
ENDBRANCH   6  10
BRANCH   5  13
ATOM     13  C   UNL     1       0.948   3.622  -0.014  0.00  0.00    +0.188 C 
ATOM     14  O   UNL     1      -0.203   4.010   0.015  0.00  0.00    -0.290 OA
BRANCH  13  15
ATOM     15  C   UNL     1       1.244   2.145  -0.060  0.00  0.00    +0.181 C 
BRANCH  15  16
ATOM     16  N   UNL     1      -0.014   1.394  -0.060  0.00  0.00    -0.335 N 
ATOM     17  H   UNL     1      -0.861   1.867  -0.037  0.00  0.00    +0.147 HD
BRANCH  16  18
ATOM     18  C   UNL     1       0.006  -0.005  -0.099  0.00  0.00    +0.049 A 
ATOM     19  C   UNL     1       1.215  -0.682  -0.144  0.00  0.00    +0.025 A 
ATOM     20  C   UNL     1       1.232  -2.065  -0.177  0.00  0.00    +0.002 A 
ATOM     21  C   UNL     1       0.046  -2.775  -0.177  0.00  0.00    +0.002 A 
ATOM     22  C   UNL     1      -1.164  -2.108  -0.139  0.00  0.00    +0.025 A 
ATOM     23  C   UNL     1      -1.191  -0.722  -0.100  0.00  0.00    +0.051 A 
BRANCH  23  24
ATOM     24  N   UNL     1      -2.415  -0.044  -0.061  0.00  0.00    -0.328 N 
ATOM     25  C   UNL     1      -3.144  -0.345   1.178  0.00  0.00    +0.105 C 
ATOM     26  C   UNL     1      -4.404   0.521   1.253  0.00  0.00    +0.019 C 
ATOM     27  C   UNL     1      -5.288   0.235   0.036  0.00  0.00    +0.003 C 
ATOM     28  C   UNL     1      -4.489   0.510  -1.241  0.00  0.00    +0.019 C 
ATOM     29  C   UNL     1      -3.227  -0.356  -1.244  0.00  0.00    +0.105 C 
ENDBRANCH  23  24
ENDBRANCH  16  18
ENDBRANCH  15  16
ENDBRANCH  13  15
ENDBRANCH   5  13
BRANCH   7  30
ATOM     30  C   UNL     1       2.568   8.240  -0.161  0.00  0.00    +0.163 C 
BRANCH  30  31
ATOM     31  C   UNL     1       2.409   8.805   1.227  0.00  0.00    -0.028 A 
ATOM     32  C   UNL     1       1.156   8.864   1.810  0.00  0.00    +0.005 A 
ATOM     33  C   UNL     1       1.010   9.378   3.084  0.00  0.00    +0.000 A 
ATOM     34  C   UNL     1       2.115   9.843   3.773  0.00  0.00    +0.000 A 
ATOM     35  C   UNL     1       3.367   9.790   3.188  0.00  0.00    +0.000 A 
ATOM     36  C   UNL     1       3.513   9.271   1.915  0.00  0.00    +0.005 A 
ENDBRANCH  30  31
ENDBRANCH   7  30
TORSDOF 8
