REMARK  Name = ZINC39710089
REMARK  7 active torsions:
REMARK  status: ('A' for Active; 'I' for Inactive)
REMARK    1  A    between atoms: C_7  and  C_10
REMARK    2  A    between atoms: C_10  and  C_11
REMARK    3  A    between atoms: C_11  and  N_12
REMARK    4  A    between atoms: C_13  and  C_15
REMARK    5  A    between atoms: C_18  and  N_22
REMARK    6  A    between atoms: N_22  and  S_23
REMARK    7  A    between atoms: S_23  and  C_26
REMARK                            x       y       z     vdW  Elec       q    Type
REMARK                         _______ _______ _______ _____ _____    ______ ____
ROOT
ATOM      1  C   UNL     1      -5.627   7.039  -2.508  0.00  0.00    +0.086 C 
ATOM      2  C   UNL     1      -5.690   7.748  -3.654  0.00  0.00    +0.021 C 
ATOM      3  N   UNL     1      -5.377   7.195  -4.844  0.00  0.00    -0.322 N 
ATOM      4  C   UNL     1      -5.965   7.823  -6.048  0.00  0.00    +0.220 C 
ATOM      5  S   UNL     1      -6.117   9.569  -5.473  0.00  0.00    -0.116 S 
ATOM      6  C   UNL     1      -6.123   9.205  -3.666  0.00  0.00    +0.122 C 
ATOM      7  H   UNL     1      -4.794   6.422  -4.908  0.00  0.00    +0.148 HD
ENDROOT
BRANCH   1   9
ATOM      8  N   UNL     1      -5.181   4.965  -1.402  0.00  0.00    -0.311 N 
ATOM      9  C   UNL     1      -5.361   5.651  -2.548  0.00  0.00    +0.238 C 
ATOM     10  O   UNL     1      -5.295   5.075  -3.619  0.00  0.00    -0.271 OA
ATOM     11  H   UNL     1      -5.233   5.424  -0.549  0.00  0.00    +0.149 HD
BRANCH   8  12
ATOM     12  C   UNL     1      -4.905   3.527  -1.444  0.00  0.00    +0.109 C 
BRANCH  12  13
ATOM     13  C   UNL     1      -4.743   2.997  -0.018  0.00  0.00    +0.056 C 
BRANCH  13  20
ATOM     14  C   UNL     1      -0.812   0.499  -0.550  0.00  0.00    +0.001 A 
ATOM     15  C   UNL     1      -1.034  -0.871  -0.525  0.00  0.00    +0.002 A 
ATOM     16  C   UNL     1      -2.306  -1.374  -0.359  0.00  0.00    +0.026 A 
ATOM     17  C   UNL     1      -3.380  -0.502  -0.213  0.00  0.00    +0.047 A 
ATOM     18  N   UNL     1      -4.733  -0.685  -0.035  0.00  0.00    -0.360 N 
ATOM     19  C   UNL     1      -5.359   0.528   0.053  0.00  0.00    +0.087 A 
ATOM     20  C   UNL     1      -4.459   1.518  -0.061  0.00  0.00    -0.021 A 
ATOM     21  C   UNL     1      -3.149   0.886  -0.237  0.00  0.00    +0.003 A 
ATOM     22  C   UNL     1      -1.851   1.373  -0.402  0.00  0.00    +0.010 A 
ATOM     23  H   UNL     1      -5.176  -1.546   0.020  0.00  0.00    +0.165 HD
ENDBRANCH  13  20
ENDBRANCH  12  13
ENDBRANCH   8  12
ENDBRANCH   1   9
BRANCH   4  24
ATOM     24  N   UNL     1      -5.061   7.718  -7.196  0.00  0.00    -0.161 NA
ATOM     25  H   UNL     1      -4.101   7.699  -7.057  0.00  0.00    +0.151 HD
BRANCH  24  26
ATOM     26  S   UNL     1      -5.677   7.633  -8.731  0.00  0.00    +0.061 S 
ATOM     27  O   UNL     1      -4.565   7.568  -9.612  0.00  0.00    -0.153 OA
ATOM     28  O   UNL     1      -6.690   6.637  -8.707  0.00  0.00    -0.153 OA
BRANCH  26  29
ATOM     29  C   UNL     1      -6.486   9.165  -9.053  0.00  0.00    +0.105 A 
ATOM     30  C   UNL     1      -7.823   9.320  -8.739  0.00  0.00    +0.030 A 
ATOM     31  C   UNL     1      -8.458  10.522  -8.992  0.00  0.00    +0.022 A 
ATOM     32  C   UNL     1      -7.754  11.570  -9.559  0.00  0.00    +0.041 A 
ATOM     33  C   UNL     1      -6.416  11.414  -9.873  0.00  0.00    +0.022 A 
ATOM     34  C   UNL     1      -5.781  10.214  -9.615  0.00  0.00    +0.030 A 
ATOM     35 CL   UNL     1      -8.551  13.079  -9.877  0.00  0.00    -0.084 Cl
ENDBRANCH  26  29
ENDBRANCH  24  26
ENDBRANCH   4  24
TORSDOF 7
