REMARK  Name = ZINC19904992
REMARK  8 active torsions:
REMARK  status: ('A' for Active; 'I' for Inactive)
REMARK    1  A    between atoms: C_4  and  C_7
REMARK    2  A    between atoms: C_10  and  C_12
REMARK    3  A    between atoms: C_13  and  C_14
REMARK    4  A    between atoms: C_13  and  C_16
REMARK    5  A    between atoms: C_17  and  C_26
REMARK    6  A    between atoms: C_18  and  N_25
REMARK    7  A    between atoms: C_19  and  C_23
REMARK    8  A    between atoms: C_20  and  N_22
REMARK                            x       y       z     vdW  Elec       q    Type
REMARK                         _______ _______ _______ _____ _____    ______ ____
ROOT
ATOM      1  C   UNL     1       0.002  -0.004   0.002  0.00  0.00    +0.103 A 
ATOM      2  C   UNL     1       1.223  -0.710  -0.013  0.00  0.00    +0.100 A 
ATOM      3  C   UNL     1       2.429   0.016  -0.021  0.00  0.00    +0.065 A 
ATOM      4  C   UNL     1       2.358   1.421  -0.013  0.00  0.00    +0.113 A 
ATOM      5  C   UNL     1       1.095   2.042   0.003  0.00  0.00    +0.136 A 
ATOM      6  N   UNL     1      -0.016   1.325   0.009  0.00  0.00    -0.229 NA
ENDROOT
BRANCH   5   7
ATOM      7  N   UNL     1       1.015   3.421   0.011  0.00  0.00    -0.342 N 
ATOM      8  H   UNL     1       0.032   3.914   0.023  0.00  0.00    +0.144 HD
ATOM      9  H   UNL     1       1.934   4.025   0.005  0.00  0.00    +0.144 HD
ENDBRANCH   5   7
BRANCH   3  10
ATOM     10  N   UNL     1       3.648  -0.633  -0.037  0.00  0.00    -0.356 N 
ATOM     11  H   UNL     1       4.581  -0.051  -0.042  0.00  0.00    +0.142 HD
ATOM     12  H   UNL     1       3.686  -1.733  -0.043  0.00  0.00    +0.142 HD
ENDBRANCH   3  10
BRANCH   1  14
ATOM     13  C   UNL     1      -2.472  -0.065   0.024  0.00  0.00    +0.067 C 
ATOM     14  C   UNL     1      -1.269  -0.749   0.010  0.00  0.00    +0.082 C 
BRANCH  13  18
ATOM     15  C   UNL     1      -5.121  -2.442   0.036  0.00  0.00    +0.136 A 
ATOM     16  C   UNL     1      -5.861  -1.280   0.049  0.00  0.00    +0.050 A 
ATOM     17  C   UNL     1      -4.954  -0.219   0.052  0.00  0.00    +0.050 A 
ATOM     18  C   UNL     1      -3.686  -0.776   0.032  0.00  0.00    +0.130 A 
ATOM     19  O   UNL     1      -3.816  -2.120   0.026  0.00  0.00    -0.455 OA
BRANCH  15  23
ATOM     20  C   UNL     1      -6.700  -6.383   0.032  0.00  0.00    +0.000 A 
ATOM     21  C   UNL     1      -5.330  -6.190   0.020  0.00  0.00    +0.001 A 
ATOM     22  C   UNL     1      -4.810  -4.913   0.021  0.00  0.00    +0.011 A 
ATOM     23  C   UNL     1      -5.670  -3.812   0.034  0.00  0.00    +0.017 A 
ATOM     24  C   UNL     1      -7.053  -4.014   0.051  0.00  0.00    +0.011 A 
ATOM     25  C   UNL     1      -7.558  -5.298   0.044  0.00  0.00    +0.001 A 
ENDBRANCH  15  23
ENDBRANCH  13  18
BRANCH  14  26
ATOM     26  C   UNL     1      -1.259  -2.181   0.002  0.00  0.00    +0.101 C 
ATOM     27  N   UNL     1      -1.252  -3.317  -0.004  0.00  0.00    -0.191 NA
ENDBRANCH  14  26
ENDBRANCH   1  14
BRANCH   4  28
ATOM     28  C   UNL     1       3.554   2.209  -0.021  0.00  0.00    +0.104 C 
ATOM     29  N   UNL     1       4.503   2.834  -0.027  0.00  0.00    -0.191 NA
ENDBRANCH   4  28
BRANCH   2  30
ATOM     30  C   UNL     1       1.236  -2.142  -0.022  0.00  0.00    +0.103 C 
ATOM     31  N   UNL     1       1.246  -3.278  -0.028  0.00  0.00    -0.191 NA
ENDBRANCH   2  30
TORSDOF 8
