REMARK  Name = ZINC59449300
REMARK  5 active torsions:
REMARK  status: ('A' for Active; 'I' for Inactive)
REMARK    1  A    between atoms: C_10  and  C_11
REMARK    2  A    between atoms: C_11  and  S_12
REMARK    3  A    between atoms: S_12  and  C_13
REMARK    4  A    between atoms: C_18  and  N_22
REMARK    5  A    between atoms: C_29  and  N_33
REMARK                            x       y       z     vdW  Elec       q    Type
REMARK                         _______ _______ _______ _____ _____    ______ ____
ROOT
ATOM      1  C   UNL     1       6.998   1.367   1.482  0.00  0.00    +0.136 A 
ATOM      2  N   UNL     1       7.604   1.749   0.380  0.00  0.00    -0.233 NA
ATOM      3  C   UNL     1       8.764   2.443   0.394  0.00  0.00    +0.080 A 
ATOM      4  C   UNL     1       9.513   2.910  -0.712  0.00  0.00    +0.031 A 
ATOM      5  C   UNL     1      10.679   3.604  -0.526  0.00  0.00    +0.026 A 
ATOM      6  C   UNL     1      11.168   3.875   0.749  0.00  0.00    +0.046 A 
ATOM      7  C   UNL     1      10.456   3.431   1.855  0.00  0.00    +0.041 A 
ATOM      8  C   UNL     1       9.288   2.735   1.673  0.00  0.00    +0.042 A 
ATOM      9  S   UNL     1       8.081   2.003   2.753  0.00  0.00    -0.061 S 
ENDROOT
BRANCH   6  10
ATOM     10  N   UNL     1      12.366   4.587   0.914  0.00  0.00    -0.202 N 
ATOM     11  C   UNL     1      12.914   4.888   2.105  0.00  0.00    +0.258 C 
ATOM     12  O   UNL     1      12.459   4.591   3.191  0.00  0.00    -0.269 OA
ATOM     13  C   UNL     1      14.165   5.641   1.871  0.00  0.00    +0.052 A 
ATOM     14  C   UNL     1      15.127   6.199   2.696  0.00  0.00    +0.014 A 
ATOM     15  C   UNL     1      16.211   6.860   2.139  0.00  0.00    +0.003 A 
ATOM     16  C   UNL     1      16.337   6.966   0.767  0.00  0.00    +0.033 A 
ATOM     17  C   UNL     1      15.381   6.413  -0.071  0.00  0.00    +0.139 A 
ATOM     18  C   UNL     1      14.293   5.750   0.471  0.00  0.00    +0.080 A 
ATOM     19  C   UNL     1      13.120   5.054  -0.098  0.00  0.00    +0.260 C 
ATOM     20  O   UNL     1      12.875   4.927  -1.281  0.00  0.00    -0.269 OA
BRANCH  17  21
ATOM     21  N   UNL     1      15.523   6.532  -1.540  0.00  0.00    +0.057 N 
ATOM     22  O   UNL     1      16.474   7.112  -2.011  0.00  0.00    -0.126 OA
ATOM     23  O   UNL     1      14.688   6.050  -2.269  0.00  0.00    -0.126 OA
ENDBRANCH  17  21
ENDBRANCH   6  10
BRANCH   1  24
ATOM     24  S   UNL     1       5.496   0.464   1.661  0.00  0.00    -0.094 S 
BRANCH  24  25
ATOM     25  C   UNL     1       4.960   0.161  -0.046  0.00  0.00    +0.112 C 
BRANCH  25  35
ATOM     26  C   UNL     1      -0.016   1.357   0.009  0.00  0.00    +0.001 A 
ATOM     27  C   UNL     1       1.169   2.091   0.002  0.00  0.00    +0.001 A 
ATOM     28  C   UNL     1       2.378   1.468  -0.013  0.00  0.00    +0.009 A 
ATOM     29  C   UNL     1       2.438   0.064  -0.021  0.00  0.00    -0.014 A 
ATOM     30  C   UNL     1       1.233  -0.683  -0.013  0.00  0.00    -0.018 A 
ATOM     31  C   UNL     1       0.002  -0.004   0.002  0.00  0.00    +0.008 A 
ATOM     32  C   UNL     1       1.292  -2.087  -0.021  0.00  0.00    +0.008 A 
ATOM     33  C   UNL     1       2.502  -2.709  -0.036  0.00  0.00    +0.001 A 
ATOM     34  C   UNL     1       3.687  -1.976  -0.043  0.00  0.00    +0.005 A 
ATOM     35  C   UNL     1       3.668  -0.615  -0.037  0.00  0.00    -0.029 A 
ENDBRANCH  25  35
ENDBRANCH  24  25
ENDBRANCH   1  24
TORSDOF 5
