REMARK  Name = ZINC38766419
REMARK  4 active torsions:
REMARK  status: ('A' for Active; 'I' for Inactive)
REMARK    1  A    between atoms: C_7  and  C_19
REMARK    2  A    between atoms: N_9  and  C_10
REMARK    3  A    between atoms: C_10  and  C_11
REMARK    4  A    between atoms: N_20  and  N_21
REMARK                            x       y       z     vdW  Elec       q    Type
REMARK                         _______ _______ _______ _____ _____    ______ ____
ROOT
ATOM      1  C   UNL     1       0.693  -3.256  -0.022  0.00  0.00    +0.140 C 
ATOM      2  N   UNL     1      -0.593  -3.069  -0.007  0.00  0.00    -0.187 NA
ENDROOT
BRANCH   2   3
ATOM      3  N   UNL     1      -1.461  -4.169  -0.004  0.00  0.00    -0.206 N 
ATOM      4  C   UNL     1      -2.825  -3.971   0.011  0.00  0.00    +0.227 C 
ATOM      5  N   UNL     1      -3.271  -2.737   0.017  0.00  0.00    -0.220 NA
ATOM      6  C   UNL     1      -4.715  -2.536   0.113  0.00  0.00    +0.253 C 
ATOM      7  C   UNL     1      -5.361  -3.764  -0.514  0.00  0.00    +0.115 C 
ATOM      8  C   UNL     1      -6.292  -3.283  -1.383  0.00  0.00    +0.025 A 
ATOM      9  C   UNL     1      -7.276  -3.926  -2.174  0.00  0.00    +0.012 A 
ATOM     10  C   UNL     1      -8.055  -3.140  -2.965  0.00  0.00    +0.001 A 
ATOM     11  C   UNL     1      -7.942  -1.748  -3.045  0.00  0.00    +0.002 A 
ATOM     12  C   UNL     1      -7.040  -1.027  -2.327  0.00  0.00    +0.026 A 
ATOM     13  C   UNL     1      -6.156  -1.795  -1.434  0.00  0.00    +0.046 A 
ATOM     14  N   UNL     1      -5.225  -1.390  -0.625  0.00  0.00    -0.358 N 
ATOM     15  N   UNL     1      -4.892  -4.992  -0.272  0.00  0.00    -0.171 NA
ATOM     16  N   UNL     1      -3.629  -5.062   0.013  0.00  0.00    -0.247 N 
ATOM     17  H   UNL     1      -1.102  -5.070  -0.013  0.00  0.00    +0.177 HD
ATOM     18  H   UNL     1      -3.248  -5.925   0.240  0.00  0.00    +0.192 HD
ATOM     19  H   UNL     1      -4.920  -0.474  -0.528  0.00  0.00    +0.162 HD
ENDBRANCH   2   3
BRANCH   1  26
ATOM     20  C   UNL     1      -0.017   1.373   0.010  0.00  0.00    +0.001 A 
ATOM     21  C   UNL     1       1.172   2.090   0.002  0.00  0.00    +0.002 A 
ATOM     22  C   UNL     1       2.385   1.438  -0.013  0.00  0.00    +0.026 A 
ATOM     23  C   UNL     1       2.425   0.047  -0.021  0.00  0.00    +0.050 A 
ATOM     24  C   UNL     1       1.222  -0.677  -0.013  0.00  0.00    +0.009 A 
ATOM     25  C   UNL     1       0.002  -0.004   0.002  0.00  0.00    +0.010 A 
ATOM     26  C   UNL     1       1.604  -2.101  -0.025  0.00  0.00    +0.020 A 
ATOM     27  C   UNL     1       2.964  -2.138  -0.039  0.00  0.00    +0.096 A 
ATOM     28  N   UNL     1       3.458  -0.867  -0.037  0.00  0.00    -0.342 N 
BRANCH  28  29
ATOM     29  C   UNL     1       4.882  -0.521  -0.050  0.00  0.00    +0.158 C 
BRANCH  29  30
ATOM     30  C   UNL     1       5.356  -0.290   1.361  0.00  0.00    -0.009 A 
ATOM     31  C   UNL     1       5.383   0.991   1.880  0.00  0.00    +0.008 A 
ATOM     32  C   UNL     1       5.817   1.204   3.175  0.00  0.00    +0.020 A 
ATOM     33  C   UNL     1       6.225   0.135   3.953  0.00  0.00    +0.042 A 
ATOM     34  C   UNL     1       6.198  -1.147   3.434  0.00  0.00    +0.040 A 
ATOM     35  C   UNL     1       5.758  -1.360   2.140  0.00  0.00    +0.047 A 
ATOM     36 CL   UNL     1       5.718  -2.970   1.491  0.00  0.00    -0.083 Cl
ATOM     37 CL   UNL     1       6.772   0.404   5.578  0.00  0.00    -0.083 Cl
ENDBRANCH  29  30
ENDBRANCH  28  29
ENDBRANCH   1  26
TORSDOF 4
