REMARK  Name = ZINC58425377
REMARK  4 active torsions:
REMARK  status: ('A' for Active; 'I' for Inactive)
REMARK    1  A    between atoms: C_1  and  C_2
REMARK    2  A    between atoms: C_2  and  C_3
REMARK    3  A    between atoms: C_3  and  C_5
REMARK    4  A    between atoms: C_3  and  C_6
REMARK                            x       y       z     vdW  Elec       q    Type
REMARK                         _______ _______ _______ _____ _____    ______ ____
ROOT
ATOM      1  C   UNL     1       0.849  -2.021  -1.205  0.00  0.00    +0.095 C 
ATOM      2  C   UNL     1      -0.543  -2.655  -1.256  0.00  0.00    +0.251 C 
ATOM      3  O   UNL     1      -0.408  -4.082  -1.260  0.00  0.00    -0.462 OA
ATOM      4  C   UNL     1       0.433  -4.578  -2.194  0.00  0.00    +0.328 C 
ATOM      5  O   UNL     1       0.104  -5.497  -2.906  0.00  0.00    -0.249 OA
ATOM      6  C   UNL     1       1.801  -3.946  -2.317  0.00  0.00    +0.117 C 
ATOM      7  N   UNL     1       1.641  -2.484  -2.354  0.00  0.00    -0.295 NA
ATOM      8  C   UNL     1       2.470  -4.423  -3.605  0.00  0.00    +0.033 C 
ATOM      9  C   UNL     1       3.854  -3.783  -3.729  0.00  0.00    +0.002 C 
ATOM     10  C   UNL     1       4.710  -4.182  -2.525  0.00  0.00    +0.000 C 
ATOM     11  C   UNL     1       4.039  -3.699  -1.238  0.00  0.00    +0.002 C 
ATOM     12  C   UNL     1       2.655  -4.340  -1.113  0.00  0.00    +0.033 C 
ATOM     13  H   UNL     1       1.225  -2.188  -3.224  0.00  0.00    +0.123 HD
ENDROOT
BRANCH   1  14
ATOM     14  C   UNL     1       0.718  -0.497  -1.257  0.00  0.00    +0.006 C 
ATOM     15  C   UNL     1      -0.089  -0.097  -2.493  0.00  0.00    +0.009 C 
BRANCH  14  17
ATOM     16  C   UNL     1      -0.019   1.526   0.010  0.00  0.00    +0.004 C 
ATOM     17  C   UNL     1       0.002  -0.004   0.002  0.00  0.00    +0.001 C 
ENDBRANCH  14  17
ENDBRANCH   1  14
TORSDOF 2
