REMARK  Name = ZINC44713645
REMARK  11 active torsions:
REMARK  status: ('A' for Active; 'I' for Inactive)
REMARK    1  A    between atoms: C_1  and  C_2
REMARK    2  A    between atoms: C_3  and  C_9
REMARK    3  A    between atoms: C_4  and  C_8
REMARK    4  A    between atoms: C_9  and  C_11
REMARK    5  A    between atoms: C_9  and  N_12
REMARK    6  A    between atoms: C_13  and  C_15
REMARK    7  A    between atoms: C_26  and  C_28
REMARK    8  A    between atoms: C_30  and  O_36
REMARK    9  A    between atoms: C_32  and  O_34
REMARK   10  A    between atoms: O_34  and  C_35
REMARK   11  A    between atoms: O_36  and  C_37
REMARK                            x       y       z     vdW  Elec       q    Type
REMARK                         _______ _______ _______ _____ _____    ______ ____
ROOT
ATOM      1  C   UNL     1      -2.098  -1.536  -5.247  0.00  0.00    +0.100 C 
ATOM      2  C   UNL     1      -1.733  -2.965  -5.709  0.00  0.00    +0.121 C 
ATOM      3  N   UNL     1      -2.481  -3.152  -6.974  0.00  0.00    -0.296 N 
ATOM      4  C   UNL     1      -2.379  -1.841  -7.660  0.00  0.00    +0.115 C 
ATOM      5  C   UNL     1      -2.521  -0.802  -6.531  0.00  0.00    -0.004 C 
ATOM      6  C   UNL     1      -1.598   0.386  -6.789  0.00  0.00    -0.010 C 
ATOM      7  C   UNL     1      -2.073   1.134  -8.037  0.00  0.00    -0.082 C 
ATOM      8  N   UNL     1      -3.453   1.594  -7.838  0.00  0.00    +0.379 N 
ATOM      9  C   UNL     1      -4.348   0.442  -7.684  0.00  0.00    -0.082 C 
ATOM     10  C   UNL     1      -3.969  -0.336  -6.420  0.00  0.00    -0.010 C 
ATOM     11  C   UNL     1      -3.112  -4.262  -7.404  0.00  0.00    +0.247 C 
ATOM     12  O   UNL     1      -3.195  -5.234  -6.678  0.00  0.00    -0.270 OA
ATOM     13  H   UNL     1      -3.499   2.167  -7.009  0.00  0.00    -0.086 HD
ATOM     14  H   UNL     1      -3.743   2.139  -8.637  0.00  0.00    -0.086 HD
ENDROOT
BRANCH  11  15
ATOM     15  C   UNL     1      -3.704  -4.299  -8.758  0.00  0.00    +0.044 A 
ATOM     16  C   UNL     1      -3.250  -3.422  -9.744  0.00  0.00    +0.059 A 
ATOM     17  C   UNL     1      -3.807  -3.460 -11.012  0.00  0.00    +0.124 A 
ATOM     18  C   UNL     1      -4.815  -4.368 -11.302  0.00  0.00    +0.091 A 
ATOM     19  C   UNL     1      -5.269  -5.242 -10.325  0.00  0.00    +0.124 A 
ATOM     20  C   UNL     1      -4.714  -5.214  -9.056  0.00  0.00    +0.059 A 
BRANCH  19  21
ATOM     21  O   UNL     1      -6.257  -6.129 -10.614  0.00  0.00    -0.495 OA
ATOM     22  C   UNL     1      -6.780  -6.107 -11.944  0.00  0.00    +0.277 C 
ENDBRANCH  19  21
BRANCH  17  23
ATOM     23  O   UNL     1      -3.365  -2.607 -11.973  0.00  0.00    -0.495 OA
ATOM     24  C   UNL     1      -3.983  -2.700 -13.258  0.00  0.00    +0.277 C 
ENDBRANCH  17  23
ENDBRANCH  11  15
BRANCH   1  26
ATOM     25  N   UNL     1      -1.072   0.067  -3.667  0.00  0.00    -0.308 N 
ATOM     26  C   UNL     1      -0.901  -0.863  -4.628  0.00  0.00    +0.219 C 
ATOM     27  O   UNL     1       0.218  -1.157  -4.993  0.00  0.00    -0.275 OA
ATOM     28  H   UNL     1      -1.967   0.303  -3.375  0.00  0.00    +0.149 HD
BRANCH  25  29
ATOM     29  C   UNL     1       0.092   0.722  -3.065  0.00  0.00    +0.104 C 
ATOM     30  C   UNL     1       0.626  -0.141  -1.920  0.00  0.00    +0.033 C 
BRANCH  29  33
ATOM     31  C   UNL     1      -2.408   1.326  -1.284  0.00  0.00    +0.065 C 
ATOM     32  C   UNL     1      -1.393   2.333  -1.760  0.00  0.00    +0.038 A 
ATOM     33  C   UNL     1      -0.312   2.072  -2.531  0.00  0.00    +0.015 A 
ATOM     34  C   UNL     1       0.365   3.277  -2.744  0.00  0.00    +0.065 A 
ATOM     35  N   UNL     1      -0.286   4.227  -2.123  0.00  0.00    -0.179 NA
ATOM     36  N   UNL     1      -1.403   3.656  -1.499  0.00  0.00    -0.281 N 
ATOM     37  H   UNL     1      -2.065   4.129  -0.971  0.00  0.00    +0.189 HD
ATOM     38  C   UNL     1       1.628   3.451  -3.548  0.00  0.00    +0.068 C 
ENDBRANCH  29  33
ENDBRANCH  25  29
ENDBRANCH   1  26
TORSDOF 6
