REMARK  Name = ZINC02084591
REMARK  11 active torsions:
REMARK  status: ('A' for Active; 'I' for Inactive)
REMARK    1  A    between atoms: C_1  and  C_2
REMARK    2  A    between atoms: C_2  and  C_3
REMARK    3  A    between atoms: C_3  and  C_4
REMARK    4  A    between atoms: C_4  and  C_5
REMARK    5  A    between atoms: C_5  and  S_6
REMARK    6  A    between atoms: S_6  and  C_7
REMARK    7  A    between atoms: C_20  and  C_23
REMARK    8  A    between atoms: C_26  and  O_32
REMARK    9  A    between atoms: C_27  and  O_29
REMARK   10  A    between atoms: O_29  and  C_30
REMARK   11  A    between atoms: C_30  and  C_31
REMARK                            x       y       z     vdW  Elec       q    Type
REMARK                         _______ _______ _______ _____ _____    ______ ____
ROOT
ATOM      1  C   UNL     1      -4.990   3.540   2.127  0.00  0.00    +0.212 A 
ATOM      2  N   UNL     1      -4.034   2.649   1.877  0.00  0.00    -0.184 NA
ATOM      3  C   UNL     1      -2.811   3.072   1.609  0.00  0.00    +0.248 A 
ATOM      4  C   UNL     1      -2.562   4.464   1.592  0.00  0.00    +0.156 A 
ATOM      5  N   UNL     1      -3.558   5.297   1.851  0.00  0.00    -0.141 NA
ATOM      6  N   UNL     1      -4.734   4.842   2.111  0.00  0.00    -0.122 NA
ATOM      7  C   UNL     1      -1.203   4.958   1.286  0.00  0.00    +0.028 A 
ATOM      8  C   UNL     1      -0.595   5.939   2.059  0.00  0.00    +0.012 A 
ATOM      9  C   UNL     1       0.664   6.397   1.721  0.00  0.00    +0.001 A 
ATOM     10  C   UNL     1       1.322   5.886   0.616  0.00  0.00    +0.002 A 
ATOM     11  C   UNL     1       0.731   4.904  -0.159  0.00  0.00    +0.024 A 
ATOM     12  C   UNL     1      -0.526   4.431   0.170  0.00  0.00    +0.039 A 
ATOM     13  N   UNL     1      -1.147   3.429  -0.581  0.00  0.00    -0.305 N 
ATOM     14  C   UNL     1      -1.333   2.112   0.020  0.00  0.00    +0.294 C 
ATOM     15  O   UNL     1      -1.801   2.206   1.361  0.00  0.00    -0.449 OA
ATOM     16  H   UNL     1      -1.450   3.606  -1.486  0.00  0.00    +0.150 HD
ENDROOT
BRANCH  14  17
ATOM     17  C   UNL     1      -0.017   1.378   0.010  0.00  0.00    +0.015 A 
ATOM     18  C   UNL     1       0.825   1.486  -1.082  0.00  0.00    +0.013 A 
ATOM     19  C   UNL     1       2.031   0.810  -1.099  0.00  0.00    +0.049 A 
ATOM     20  C   UNL     1       2.398   0.022  -0.020  0.00  0.00    +0.158 A 
ATOM     21  C   UNL     1       1.551  -0.087   1.079  0.00  0.00    +0.162 A 
ATOM     22  C   UNL     1       0.344   0.594   1.089  0.00  0.00    +0.058 A 
BRANCH  20  23
ATOM     23  O   UNL     1       3.584  -0.644  -0.035  0.00  0.00    -0.503 OA
ATOM     24  H   UNL     1       3.531  -1.532  -0.413  0.00  0.00    +0.292 HD
ENDBRANCH  20  23
BRANCH  21  25
ATOM     25  O   UNL     1       1.907  -0.859   2.140  0.00  0.00    -0.489 OA
BRANCH  25  26
ATOM     26  C   UNL     1       0.989  -0.923   3.233  0.00  0.00    +0.226 C 
ATOM     27  C   UNL     1       1.558  -1.832   4.324  0.00  0.00    +0.048 C 
ENDBRANCH  25  26
ENDBRANCH  21  25
ENDBRANCH  14  17
BRANCH   1  28
ATOM     28  S   UNL     1      -6.623   2.981   2.484  0.00  0.00    -0.084 S 
BRANCH  28  29
ATOM     29  C   UNL     1      -7.453   4.571   2.727  0.00  0.00    +0.077 C 
BRANCH  29  30
ATOM     30  C   UNL     1      -8.927   4.332   3.058  0.00  0.00    +0.011 C 
BRANCH  30  31
ATOM     31  C   UNL     1      -9.629   5.676   3.263  0.00  0.00    +0.001 C 
BRANCH  31  33
ATOM     32  C   UNL     1     -11.805   6.781   3.800  0.00  0.00    +0.004 C 
ATOM     33  C   UNL     1     -11.103   5.436   3.594  0.00  0.00    -0.003 C 
ENDBRANCH  31  33
ENDBRANCH  30  31
ENDBRANCH  29  30
ENDBRANCH  28  29
ENDBRANCH   1  28
TORSDOF 9
