REMARK  Name = ZINC28848001
REMARK  6 active torsions:
REMARK  status: ('A' for Active; 'I' for Inactive)
REMARK    1  A    between atoms: C_4  and  C_7
REMARK    2  A    between atoms: C_9  and  C_12
REMARK    3  A    between atoms: C_12  and  C_13
REMARK    4  A    between atoms: N_15  and  N_16
REMARK    5  A    between atoms: C_19  and  C_24
REMARK    6  A    between atoms: C_24  and  C_25
REMARK                            x       y       z     vdW  Elec       q    Type
REMARK                         _______ _______ _______ _____ _____    ______ ____
ROOT
ATOM      1  N   UNL     1       1.724  -2.262  -2.474  0.00  0.00    -0.137 N 
ATOM      2  C   UNL     1       1.194  -2.792  -3.593  0.00  0.00    +0.260 C 
ATOM      3  O   UNL     1       0.018  -2.963  -3.837  0.00  0.00    -0.272 OA
ATOM      4  C   UNL     1       2.372  -3.129  -4.485  0.00  0.00    +0.167 C 
ATOM      5  N   UNL     1       3.540  -2.718  -3.687  0.00  0.00    -0.286 N 
ATOM      6  C   UNL     1       3.061  -2.224  -2.531  0.00  0.00    +0.326 C 
ATOM      7  O   UNL     1       3.763  -1.792  -1.638  0.00  0.00    -0.251 OA
ATOM      8  H   UNL     1       4.555  -2.849  -4.089  0.00  0.00    +0.151 HD
ENDROOT
BRANCH   1  11
ATOM      9  C   UNL     1       0.813  -0.489  -1.172  0.00  0.00    +0.235 C 
ATOM     10  O   UNL     1       1.324   0.310  -1.927  0.00  0.00    -0.274 OA
ATOM     11  N   UNL     1       0.971  -1.811  -1.382  0.00  0.00    -0.223 N 
ATOM     12  H   UNL     1       0.507  -2.536  -0.697  0.00  0.00    +0.174 HD
BRANCH   9  13
ATOM     13  C   UNL     1       0.002  -0.004   0.002  0.00  0.00    +0.153 C 
BRANCH  13  16
ATOM     14  C   UNL     1       1.119   3.501   0.010  0.00  0.00    +0.109 A 
ATOM     15  N   UNL     1       1.108   2.175   0.003  0.00  0.00    -0.243 NA
ATOM     16  C   UNL     1      -0.018   1.503   0.010  0.00  0.00    +0.058 A 
ATOM     17  C   UNL     1      -1.204   2.168   0.019  0.00  0.00    +0.071 A 
ATOM     18  S   UNL     1      -0.632   3.862   0.029  0.00  0.00    -0.075 S 
BRANCH  14  22
ATOM     19  C   UNL     1       4.422   6.171  -0.007  0.00  0.00    +0.000 A 
ATOM     20  C   UNL     1       3.132   6.671   0.008  0.00  0.00    +0.001 A 
ATOM     21  C   UNL     1       2.055   5.809   0.014  0.00  0.00    +0.010 A 
ATOM     22  C   UNL     1       2.269   4.431   0.004  0.00  0.00    +0.007 A 
ATOM     23  C   UNL     1       3.572   3.932  -0.005  0.00  0.00    +0.010 A 
ATOM     24  C   UNL     1       4.641   4.805  -0.017  0.00  0.00    +0.001 A 
ENDBRANCH  14  22
ENDBRANCH  13  16
ENDBRANCH   9  13
ENDBRANCH   1  11
BRANCH   4  25
ATOM     25  C   UNL     1       2.307  -2.337  -5.792  0.00  0.00    +0.069 C 
BRANCH  25  26
ATOM     26  C   UNL     1       3.480  -2.707  -6.663  0.00  0.00    -0.020 A 
ATOM     27  C   UNL     1       4.652  -2.057  -6.742  0.00  0.00    +0.087 A 
ATOM     28  N   UNL     1       5.474  -2.685  -7.638  0.00  0.00    -0.360 N 
ATOM     29  H   UNL     1       6.481  -2.288  -7.832  0.00  0.00    +0.165 HD
ATOM     30  C   UNL     1       4.835  -3.782  -8.170  0.00  0.00    +0.047 A 
ATOM     31  C   UNL     1       3.560  -3.847  -7.579  0.00  0.00    +0.003 A 
ATOM     32  C   UNL     1       2.677  -4.867  -7.937  0.00  0.00    +0.010 A 
ATOM     33  C   UNL     1       3.060  -5.805  -8.855  0.00  0.00    +0.001 A 
ATOM     34  C   UNL     1       4.319  -5.749  -9.437  0.00  0.00    +0.002 A 
ATOM     35  C   UNL     1       5.204  -4.747  -9.101  0.00  0.00    +0.026 A 
ENDBRANCH  25  26
ENDBRANCH   4  25
TORSDOF 6
