REMARK  Name = ZINC37401204
REMARK  10 active torsions:
REMARK  status: ('A' for Active; 'I' for Inactive)
REMARK    1  A    between atoms: C_1  and  C_2
REMARK    2  A    between atoms: N_4  and  C_5
REMARK    3  A    between atoms: C_8  and  S_11
REMARK    4  A    between atoms: S_11  and  O_14
REMARK    5  A    between atoms: O_14  and  C_15
REMARK    6  A    between atoms: C_20  and  C_21
REMARK    7  A    between atoms: C_21  and  N_22
REMARK    8  A    between atoms: N_22  and  C_23
REMARK    9  A    between atoms: C_23  and  C_24
REMARK   10  A    between atoms: C_29  and  C_31
REMARK                            x       y       z     vdW  Elec       q    Type
REMARK                         _______ _______ _______ _____ _____    ______ ____
ROOT
ATOM      1  C   UNL     1      -2.365  -6.997  -2.033  0.00  0.00    +0.161 A 
ATOM      2  C   UNL     1      -2.872  -5.832  -2.591  0.00  0.00    +0.049 A 
ATOM      3  C   UNL     1      -3.261  -5.815  -3.916  0.00  0.00    +0.004 A 
ATOM      4  C   UNL     1      -3.146  -6.957  -4.687  0.00  0.00    +0.001 A 
ATOM      5  C   UNL     1      -2.641  -8.119  -4.133  0.00  0.00    +0.009 A 
ATOM      6  C   UNL     1      -2.245  -8.140  -2.809  0.00  0.00    +0.014 A 
ENDROOT
BRANCH   1   7
ATOM      7  O   UNL     1      -1.981  -7.015  -0.730  0.00  0.00    -0.342 OA
BRANCH   7   8
ATOM      8  S   UNL     1      -0.523  -6.637  -0.508  0.00  0.00    +0.151 S 
ATOM      9  O   UNL     1       0.215  -7.224  -1.572  0.00  0.00    -0.131 OA
ATOM     10  O   UNL     1      -0.236  -6.907   0.857  0.00  0.00    -0.131 OA
BRANCH   8  14
ATOM     11  C   UNL     1      -0.209  -2.150  -1.034  0.00  0.00    +0.033 A 
ATOM     12  C   UNL     1      -0.475  -2.687   0.219  0.00  0.00    +0.025 A 
ATOM     13  C   UNL     1      -0.570  -4.056   0.376  0.00  0.00    +0.032 A 
ATOM     14  C   UNL     1      -0.401  -4.892  -0.713  0.00  0.00    +0.128 A 
ATOM     15  C   UNL     1      -0.135  -4.360  -1.961  0.00  0.00    +0.032 A 
ATOM     16  C   UNL     1      -0.045  -2.992  -2.126  0.00  0.00    +0.025 A 
BRANCH  11  20
ATOM     17  C   UNL     1      -0.559   1.321  -2.450  0.00  0.00    +0.109 C 
ATOM     18  C   UNL     1      -0.617  -0.178  -2.300  0.00  0.00    +0.214 C 
ATOM     19  O   UNL     1      -1.117  -0.856  -3.172  0.00  0.00    -0.276 OA
ATOM     20  N   UNL     1      -0.112  -0.764  -1.196  0.00  0.00    -0.286 N 
ATOM     21  H   UNL     1       0.319  -0.225  -0.515  0.00  0.00    +0.155 HD
ENDBRANCH  11  20
ENDBRANCH   8  14
ENDBRANCH   7   8
ENDBRANCH   1   7
BRANCH   6  22
ATOM     22  C   UNL     1      -1.690  -9.405  -2.208  0.00  0.00    +0.147 C 
BRANCH  22  23
ATOM     23  N   UNL     1      -2.738 -10.081  -1.439  0.00  0.00    -0.285 N 
ATOM     24  C   UNL     1      -2.902  -9.799  -0.131  0.00  0.00    +0.254 C 
ATOM     25  O   UNL     1      -2.113  -9.068   0.438  0.00  0.00    -0.269 OA
BRANCH  24  26
ATOM     26  C   UNL     1      -4.032 -10.373   0.606  0.00  0.00    +0.074 A 
ATOM     27  C   UNL     1      -4.404 -10.175   1.927  0.00  0.00    +0.021 A 
ATOM     28  C   UNL     1      -5.523 -10.858   2.340  0.00  0.00    +0.008 A 
ATOM     29  C   UNL     1      -6.171 -11.657   1.457  0.00  0.00    +0.046 A 
ATOM     30  S   UNL     1      -5.288 -11.501   0.036  0.00  0.00    -0.092 S 
ENDBRANCH  24  26
BRANCH  23  31
ATOM     31  C   UNL     1      -3.607 -11.064  -2.091  0.00  0.00    +0.182 C 
BRANCH  31  32
ATOM     32  C   UNL     1      -3.021 -12.442  -1.923  0.00  0.00    +0.122 A 
ATOM     33  C   UNL     1      -3.183 -13.240  -0.852  0.00  0.00    +0.046 A 
ATOM     34  C   UNL     1      -2.467 -14.430  -1.116  0.00  0.00    +0.041 A 
ATOM     35  C   UNL     1      -1.911 -14.288  -2.333  0.00  0.00    +0.195 A 
ATOM     36  O   UNL     1      -2.255 -13.084  -2.819  0.00  0.00    -0.466 OA
ENDBRANCH  31  32
ENDBRANCH  23  31
ENDBRANCH  22  23
ENDBRANCH   6  22
TORSDOF 9
