REMARK  Name = ZINC39533902
REMARK  8 active torsions:
REMARK  status: ('A' for Active; 'I' for Inactive)
REMARK    1  A    between atoms: C_4  and  C_7
REMARK    2  A    between atoms: C_10  and  C_13
REMARK    3  A    between atoms: C_13  and  C_15
REMARK    4  A    between atoms: C_13  and  N_18
REMARK    5  A    between atoms: C_15  and  N_16
REMARK    6  A    between atoms: C_22  and  S_25
REMARK    7  A    between atoms: S_25  and  O_28
REMARK    8  A    between atoms: O_28  and  C_29
REMARK                            x       y       z     vdW  Elec       q    Type
REMARK                         _______ _______ _______ _____ _____    ______ ____
ROOT
ATOM      1  N   UNL     1       7.370  -4.006   0.704  0.00  0.00    -0.296 NA
ATOM      2  C   UNL     1       6.983  -3.725   2.094  0.00  0.00    +0.066 C 
ATOM      3  C   UNL     1       6.870  -5.042   2.865  0.00  0.00    -0.064 C 
ATOM      4  N   UNL     1       8.161  -5.742   2.829  0.00  0.00    +0.398 N 
ATOM      5  C   UNL     1       8.522  -6.038   1.437  0.00  0.00    +0.130 C 
ATOM      6  C   UNL     1       8.649  -4.729   0.654  0.00  0.00    +0.095 C 
ATOM      7  H   UNL     1       8.871  -5.159   3.244  0.00  0.00    -0.083 HD
ATOM      8  H   UNL     1       8.089  -6.605   3.348  0.00  0.00    -0.083 HD
ENDROOT
BRANCH   5   9
ATOM      9  S   UNL     1      10.105  -6.922   1.397  0.00  0.00    +0.109 S 
ATOM     10  O   UNL     1      10.382  -7.371   0.077  0.00  0.00    -0.138 OA
ATOM     11  O   UNL     1      11.084  -6.207   2.139  0.00  0.00    -0.138 OA
BRANCH   9  12
ATOM     12  O   UNL     1       9.864  -8.193   2.197  0.00  0.00    -0.347 OA
BRANCH  12  13
ATOM     13  C   UNL     1       9.131  -9.130   1.539  0.00  0.00    +0.156 A 
ATOM     14  C   UNL     1       7.748  -9.132   1.646  0.00  0.00    +0.048 A 
ATOM     15  C   UNL     1       7.006 -10.085   0.976  0.00  0.00    +0.004 A 
ATOM     16  C   UNL     1       7.640 -11.036   0.199  0.00  0.00    +0.000 A 
ATOM     17  C   UNL     1       9.019 -11.037   0.091  0.00  0.00    +0.004 A 
ATOM     18  C   UNL     1       9.765 -10.083   0.755  0.00  0.00    +0.048 A 
ENDBRANCH  12  13
ENDBRANCH   9  12
ENDBRANCH   5   9
BRANCH   1  19
ATOM     19  C   UNL     1       7.434  -2.768  -0.085  0.00  0.00    +0.103 C 
BRANCH  19  23
ATOM     20  C   UNL     1       6.152  -3.560  -4.086  0.00  0.00    -0.018 A 
ATOM     21  C   UNL     1       5.694  -2.426  -3.416  0.00  0.00    +0.009 A 
ATOM     22  C   UNL     1       6.112  -2.176  -2.125  0.00  0.00    +0.006 A 
ATOM     23  C   UNL     1       6.982  -3.047  -1.495  0.00  0.00    -0.029 A 
ATOM     24  C   UNL     1       7.439  -4.173  -2.155  0.00  0.00    +0.006 A 
ATOM     25  C   UNL     1       7.024  -4.437  -3.445  0.00  0.00    +0.009 A 
BRANCH  20  29
ATOM     26  C   UNL     1       4.876  -4.347  -8.065  0.00  0.00    +0.000 A 
ATOM     27  C   UNL     1       4.423  -3.218  -7.407  0.00  0.00    +0.001 A 
ATOM     28  C   UNL     1       4.834  -2.957  -6.116  0.00  0.00    +0.008 A 
ATOM     29  C   UNL     1       5.706  -3.835  -5.474  0.00  0.00    -0.018 A 
ATOM     30  C   UNL     1       6.159  -4.971  -6.142  0.00  0.00    +0.008 A 
ATOM     31  C   UNL     1       5.742  -5.221  -7.434  0.00  0.00    +0.001 A 
ENDBRANCH  20  29
ENDBRANCH  19  23
BRANCH  19  32
ATOM     32  C   UNL     1       8.873  -2.249  -0.104  0.00  0.00    +0.140 C 
BRANCH  32  33
ATOM     33  N   UNL     1       9.336  -2.036   1.274  0.00  0.00    -0.157 NA
ATOM     34  F   UNL     1      10.558  -1.594   1.292  0.00  0.00    -0.136 F 
ATOM     35  H   UNL     1       8.718  -1.411   1.770  0.00  0.00    +0.159 HD
ENDBRANCH  32  33
ENDBRANCH  19  32
ENDBRANCH   1  19
TORSDOF 8
