REMARK  Name = ZINC36384789
REMARK  6 active torsions:
REMARK  status: ('A' for Active; 'I' for Inactive)
REMARK    1  A    between atoms: C_1  and  C_2
REMARK    2  A    between atoms: N_11  and  C_15
REMARK    3  A    between atoms: C_15  and  C_16
REMARK    4  A    between atoms: N_18  and  C_19
REMARK    5  A    between atoms: C_23  and  S_25
REMARK    6  A    between atoms: S_25  and  N_28
REMARK                            x       y       z     vdW  Elec       q    Type
REMARK                         _______ _______ _______ _____ _____    ______ ____
ROOT
ATOM      1  C   UNL     1       3.426   2.875   2.252  0.00  0.00    +0.235 C 
ATOM      2  O   UNL     1       2.508   3.233   1.546  0.00  0.00    -0.274 OA
ATOM      3  N   UNL     1       4.441   3.721   2.519  0.00  0.00    -0.284 N 
ATOM      4  H   UNL     1       5.141   3.459   3.137  0.00  0.00    +0.155 HD
ENDROOT
BRANCH   3   5
ATOM      5  C   UNL     1       4.484   4.978   1.905  0.00  0.00    +0.035 A 
ATOM      6  C   UNL     1       5.704   5.535   1.545  0.00  0.00    +0.023 A 
ATOM      7  C   UNL     1       5.743   6.775   0.939  0.00  0.00    +0.004 A 
ATOM      8  C   UNL     1       4.569   7.463   0.691  0.00  0.00    +0.029 A 
ATOM      9  C   UNL     1       3.352   6.911   1.048  0.00  0.00    +0.114 A 
ATOM     10  C   UNL     1       3.306   5.668   1.649  0.00  0.00    +0.052 A 
BRANCH   9  11
ATOM     11  S   UNL     1       1.859   7.791   0.731  0.00  0.00    +0.100 S 
ATOM     12  O   UNL     1       0.895   7.302   1.654  0.00  0.00    -0.146 OA
ATOM     13  O   UNL     1       2.208   9.166   0.651  0.00  0.00    -0.146 OA
BRANCH  11  14
ATOM     14  N   UNL     1       1.340   7.346  -0.777  0.00  0.00    -0.118 NA
ATOM     15  C   UNL     1       0.252   7.851  -1.261  0.00  0.00    +0.117 C 
ATOM     16  N   UNL     1      -0.547   8.763  -0.625  0.00  0.00    -0.331 N 
ATOM     17  C   UNL     1      -1.379   9.457  -1.623  0.00  0.00    +0.103 C 
ATOM     18  C   UNL     1      -1.589   8.414  -2.743  0.00  0.00    +0.026 C 
ATOM     19  C   UNL     1      -0.330   7.530  -2.620  0.00  0.00    +0.074 C 
ATOM     20  H   UNL     1      -0.563   8.927   0.331  0.00  0.00    +0.147 HD
ENDBRANCH  11  14
ENDBRANCH   9  11
ENDBRANCH   3   5
BRANCH   1  21
ATOM     21  C   UNL     1       3.433   1.484   2.831  0.00  0.00    +0.214 C 
BRANCH  21  31
ATOM     22  C   UNL     1      -0.006   1.516  -0.003  0.00  0.00    +0.010 C 
ATOM     23  C   UNL     1       0.014  -0.014  -0.004  0.00  0.00    +0.018 C 
ATOM     24  C   UNL     1      -1.423  -0.543   0.002  0.00  0.00    +0.006 C 
ATOM     25  C   UNL     1      -1.402  -2.072   0.021  0.00  0.00    +0.000 C 
ATOM     26  C   UNL     1      -0.684  -2.559   1.282  0.00  0.00    +0.003 C 
ATOM     27  C   UNL     1       0.755  -2.037   1.282  0.00  0.00    +0.035 C 
ATOM     28  C   UNL     1       0.744  -0.513   1.238  0.00  0.00    +0.115 C 
ATOM     29  C   UNL     1       2.156   0.026   1.272  0.00  0.00    +0.247 C 
ATOM     30  O   UNL     1       3.035  -0.168   0.460  0.00  0.00    -0.273 OA
ATOM     31  N   UNL     1       2.231   0.768   2.396  0.00  0.00    -0.215 N 
ATOM     32  C   UNL     1       1.072   0.768   3.065  0.00  0.00    +0.310 C 
ATOM     33  O   UNL     1       0.894   1.366   4.109  0.00  0.00    -0.252 OA
ATOM     34  N   UNL     1       0.125   0.032   2.453  0.00  0.00    -0.285 N 
ATOM     35  H   UNL     1      -0.786  -0.110   2.754  0.00  0.00    +0.151 HD
ENDBRANCH  21  31
ENDBRANCH   1  21
TORSDOF 5
