REMARK  Name = ZINC60338359
REMARK  5 active torsions:
REMARK  status: ('A' for Active; 'I' for Inactive)
REMARK    1  A    between atoms: C_5  and  S_6
REMARK    2  A    between atoms: S_6  and  N_9
REMARK    3  A    between atoms: N_9  and  C_10
REMARK    4  A    between atoms: C_10  and  C_11
REMARK    5  A    between atoms: N_13  and  C_14
REMARK                            x       y       z     vdW  Elec       q    Type
REMARK                         _______ _______ _______ _____ _____    ______ ____
ROOT
ATOM      1  C   UNL     1      -1.496  -2.608  -3.682  0.00  0.00    +0.233 C 
ATOM      2  O   UNL     1      -2.680  -2.389  -3.828  0.00  0.00    -0.274 OA
ATOM      3  N   UNL     1      -0.811  -3.271  -4.635  0.00  0.00    -0.283 N 
ATOM      4  H   UNL     1       0.150  -3.377  -4.557  0.00  0.00    +0.155 HD
ENDROOT
BRANCH   3   5
ATOM      5  C   UNL     1      -1.488  -3.808  -5.738  0.00  0.00    +0.056 A 
ATOM      6  C   UNL     1      -2.836  -4.127  -5.637  0.00  0.00    +0.072 A 
ATOM      7  C   UNL     1      -3.501  -4.656  -6.728  0.00  0.00    +0.144 A 
ATOM      8  C   UNL     1      -2.818  -4.868  -7.925  0.00  0.00    +0.077 A 
ATOM      9  C   UNL     1      -1.474  -4.548  -8.024  0.00  0.00    +0.048 A 
ATOM     10  C   UNL     1      -0.811  -4.014  -6.934  0.00  0.00    +0.064 A 
ATOM     11 CL   UNL     1       0.872  -3.607  -7.058  0.00  0.00    -0.082 Cl
ATOM     12  N   UNL     1      -3.508  -5.407  -9.022  0.00  0.00    -0.280 N 
ATOM     13  C   UNL     1      -4.859  -5.413  -9.007  0.00  0.00    +0.255 C 
ATOM     14  O   UNL     1      -5.476  -5.901  -9.930  0.00  0.00    -0.272 OA
ATOM     15  C   UNL     1      -5.596  -4.812  -7.838  0.00  0.00    +0.325 C 
ATOM     16  O   UNL     1      -4.822  -4.973  -6.647  0.00  0.00    -0.481 OA
ATOM     17  H   UNL     1      -3.023  -5.769  -9.780  0.00  0.00    +0.155 HD
ENDBRANCH   3   5
BRANCH   1  18
ATOM     18  C   UNL     1      -0.791  -2.140  -2.435  0.00  0.00    +0.201 C 
BRANCH  18  19
ATOM     19  N   UNL     1      -1.746  -1.451  -1.563  0.00  0.00    -0.181 NA
ATOM     20  H   UNL     1      -2.605  -1.168  -1.913  0.00  0.00    +0.149 HD
BRANCH  19  21
ATOM     21  S   UNL     1      -1.359  -1.158   0.020  0.00  0.00    +0.065 S 
ATOM     22  O   UNL     1      -0.875  -2.383   0.554  0.00  0.00    -0.153 OA
ATOM     23  O   UNL     1      -2.461  -0.462   0.585  0.00  0.00    -0.153 OA
BRANCH  21  28
ATOM     24  C   UNL     1      -0.013   1.319   0.040  0.00  0.00    +0.038 A 
ATOM     25  C   UNL     1       1.190   2.002   0.040  0.00  0.00    +0.030 A 
ATOM     26  C   UNL     1       2.347   1.293   0.025  0.00  0.00    +0.080 A 
ATOM     27  S   UNL     1       1.750  -0.389   0.010  0.00  0.00    -0.057 S 
ATOM     28  C   UNL     1      -0.000  -0.035   0.024  0.00  0.00    +0.144 A 
ATOM     29 CL   UNL     1       3.983   1.873   0.022  0.00  0.00    -0.076 Cl
ENDBRANCH  21  28
ENDBRANCH  19  21
ENDBRANCH  18  19
ENDBRANCH   1  18
TORSDOF 5
