REMARK  Name = ZINC57049691
REMARK  11 active torsions:
REMARK  status: ('A' for Active; 'I' for Inactive)
REMARK    1  A    between atoms: C_1  and  C_2
REMARK    2  A    between atoms: C_2  and  O_3
REMARK    3  A    between atoms: O_3  and  C_4
REMARK    4  A    between atoms: C_6  and  C_21
REMARK    5  A    between atoms: C_9  and  O_10
REMARK    6  A    between atoms: O_10  and  C_11
REMARK    7  A    between atoms: C_11  and  C_12
REMARK    8  A    between atoms: C_12  and  C_13
REMARK    9  A    between atoms: C_13  and  O_14
REMARK   10  A    between atoms: O_14  and  C_15
REMARK   11  A    between atoms: C_26  and  C_33
REMARK                            x       y       z     vdW  Elec       q    Type
REMARK                         _______ _______ _______ _____ _____    ______ ____
ROOT
ATOM      1  C   UNL     1      -1.971  -2.123   0.917  0.00  0.00    +0.162 A 
ATOM      2  C   UNL     1      -0.815  -2.848   0.716  0.00  0.00    +0.057 A 
ATOM      3  C   UNL     1      -0.850  -4.248   0.780  0.00  0.00    -0.021 A 
ATOM      4  C   UNL     1      -2.060  -4.902   1.050  0.00  0.00    +0.012 A 
ATOM      5  C   UNL     1      -3.208  -4.170   1.250  0.00  0.00    +0.050 A 
ATOM      6  C   UNL     1      -3.170  -2.782   1.190  0.00  0.00    +0.162 A 
ENDROOT
BRANCH   3   7
ATOM      7  C   UNL     1       0.374  -5.024   0.567  0.00  0.00    +0.024 C 
ATOM      8  C   UNL     1       0.317  -6.231  -0.092  0.00  0.00    +0.082 C 
ATOM      9  C   UNL     1       1.495  -7.142  -0.170  0.00  0.00    +0.144 C 
ATOM     10  N   UNL     1       2.730  -6.715  -0.249  0.00  0.00    -0.282 NA
ATOM     11  N   UNL     1       1.151  -8.503  -0.150  0.00  0.00    -0.278 N 
ATOM     12  C   UNL     1       1.942  -9.413   0.353  0.00  0.00    +0.045 C 
ATOM     13  C   UNL     1       1.442 -10.851   0.313  0.00  0.00    +0.131 C 
ATOM     14  S   UNL     1      -0.052 -10.614  -0.743  0.00  0.00    -0.084 S 
ATOM     15  C   UNL     1      -0.086  -8.838  -0.645  0.00  0.00    +0.168 C 
ATOM     16  N   UNL     1      -1.066  -8.026  -0.961  0.00  0.00    -0.152 NA
ATOM     17  C   UNL     1      -0.922  -6.702  -0.759  0.00  0.00    +0.273 C 
ATOM     18  O   UNL     1      -1.781  -5.915  -1.119  0.00  0.00    -0.268 OA
ATOM     19  H   UNL     1       2.919  -5.765  -0.188  0.00  0.00    +0.188 HD
BRANCH  12  20
ATOM     20  C   UNL     1       3.244  -9.067   0.926  0.00  0.00    -0.004 A 
ATOM     21  C   UNL     1       3.357  -8.002   1.831  0.00  0.00    +0.009 A 
ATOM     22  C   UNL     1       4.586  -7.684   2.365  0.00  0.00    +0.001 A 
ATOM     23  C   UNL     1       5.709  -8.413   2.011  0.00  0.00    +0.000 A 
ATOM     24  C   UNL     1       5.608  -9.467   1.119  0.00  0.00    +0.001 A 
ATOM     25  C   UNL     1       4.386  -9.803   0.579  0.00  0.00    +0.009 A 
ENDBRANCH  12  20
ENDBRANCH   3   7
BRANCH   1  26
ATOM     26  O   UNL     1      -1.941  -0.764   0.856  0.00  0.00    -0.489 OA
BRANCH  26  28
ATOM     27  C   UNL     1      -0.843   1.365   0.543  0.00  0.00    +0.048 C 
ATOM     28  C   UNL     1      -0.680  -0.155   0.572  0.00  0.00    +0.226 C 
ENDBRANCH  26  28
ENDBRANCH   1  26
BRANCH   6  29
ATOM     29  O   UNL     1      -4.305  -2.065   1.394  0.00  0.00    -0.488 OA
BRANCH  29  30
ATOM     30  C   UNL     1      -5.498  -2.803   1.669  0.00  0.00    +0.232 C 
BRANCH  30  31
ATOM     31  C   UNL     1      -6.663  -1.832   1.868  0.00  0.00    +0.082 C 
BRANCH  31  32
ATOM     32  C   UNL     1      -7.940  -2.622   2.162  0.00  0.00    +0.232 C 
BRANCH  32  33
ATOM     33  O   UNL     1      -9.029  -1.715   2.349  0.00  0.00    -0.492 OA
BRANCH  33  34
ATOM     34  C   UNL     1     -10.245  -2.258   2.620  0.00  0.00    +0.121 A 
ATOM     35  C   UNL     1     -10.386  -3.635   2.711  0.00  0.00    +0.045 A 
ATOM     36  C   UNL     1     -11.623  -4.185   2.988  0.00  0.00    +0.004 A 
ATOM     37  C   UNL     1     -12.720  -3.364   3.174  0.00  0.00    +0.000 A 
ATOM     38  C   UNL     1     -12.582  -1.991   3.083  0.00  0.00    +0.004 A 
ATOM     39  C   UNL     1     -11.346  -1.436   2.812  0.00  0.00    +0.045 A 
ENDBRANCH  33  34
ENDBRANCH  32  33
ENDBRANCH  31  32
ENDBRANCH  30  31
ENDBRANCH  29  30
ENDBRANCH   6  29
TORSDOF 10
