REMARK  Name = ZINC19858038
REMARK  6 active torsions:
REMARK  status: ('A' for Active; 'I' for Inactive)
REMARK    1  A    between atoms: C_1  and  C_2
REMARK    2  A    between atoms: C_5  and  C_7
REMARK    3  A    between atoms: C_8  and  C_18
REMARK    4  A    between atoms: C_9  and  C_17
REMARK    5  A    between atoms: C_11  and  C_16
REMARK    6  A    between atoms: C_12  and  C_13
REMARK                            x       y       z     vdW  Elec       q    Type
REMARK                         _______ _______ _______ _____ _____    ______ ____
ROOT
ATOM      1  C   UNL     1       1.680  -3.212   0.048  0.00  0.00    +0.128 C 
ATOM      2  C   UNL     1       2.419  -3.063  -1.251  0.00  0.00    +0.046 C 
ATOM      3  C   UNL     1       3.715  -2.709  -1.284  0.00  0.00    +0.014 C 
ATOM      4  N   UNL     1       4.408  -2.479  -0.126  0.00  0.00    -0.321 N 
ATOM      5  C   UNL     1       3.927  -2.942   1.069  0.00  0.00    +0.014 C 
ATOM      6  C   UNL     1       2.641  -3.306   1.199  0.00  0.00    +0.046 C 
ATOM      7  C   UNL     1       4.853  -3.044   2.254  0.00  0.00    +0.061 C 
ATOM      8  C   UNL     1       4.413  -2.564  -2.611  0.00  0.00    +0.061 C 
ATOM      9  H   UNL     1       5.243  -1.987  -0.153  0.00  0.00    +0.152 HD
ENDROOT
BRANCH   1  14
ATOM     10  C   UNL     1       0.146   1.552   0.678  0.00  0.00    +0.086 C 
ATOM     11  C   UNL     1       0.115   0.053   0.521  0.00  0.00    +0.102 A 
ATOM     12  C   UNL     1      -0.988  -0.716   0.530  0.00  0.00    +0.044 A 
ATOM     13  C   UNL     1      -0.558  -2.051   0.353  0.00  0.00    +0.046 A 
ATOM     14  C   UNL     1       0.782  -2.018   0.247  0.00  0.00    +0.117 A 
ATOM     15  O   UNL     1       1.184  -0.740   0.344  0.00  0.00    -0.464 OA
ENDBRANCH   1  14
BRANCH   6  16
ATOM     16  C   UNL     1       2.180  -3.788   2.449  0.00  0.00    +0.240 C 
ATOM     17  O   UNL     1       2.947  -3.869   3.391  0.00  0.00    -0.271 OA
ATOM     18  N   UNL     1       0.892  -4.156   2.595  0.00  0.00    -0.326 N 
ATOM     19  H   UNL     1       0.280  -4.091   1.845  0.00  0.00    +0.145 HD
ATOM     20  H   UNL     1       0.576  -4.486   3.451  0.00  0.00    +0.145 HD
ENDBRANCH   6  16
BRANCH   2  21
ATOM     21  C   UNL     1       1.735  -3.301  -2.469  0.00  0.00    +0.240 C 
ATOM     22  O   UNL     1       1.472  -4.441  -2.806  0.00  0.00    -0.271 OA
ATOM     23  N   UNL     1       1.376  -2.266  -3.253  0.00  0.00    -0.326 N 
ATOM     24  H   UNL     1       1.585  -1.358  -2.984  0.00  0.00    +0.145 HD
ATOM     25  H   UNL     1       0.907  -2.429  -4.087  0.00  0.00    +0.145 HD
ENDBRANCH   2  21
TORSDOF 3
