REMARK  Name = ZINC04201226
REMARK  4 active torsions:
REMARK  status: ('A' for Active; 'I' for Inactive)
REMARK    1  A    between atoms: C_7  and  C_11
REMARK    2  A    between atoms: C_7  and  O_31
REMARK    3  A    between atoms: C_16  and  C_20
REMARK    4  A    between atoms: C_20  and  O_30
REMARK                            x       y       z     vdW  Elec       q    Type
REMARK                         _______ _______ _______ _____ _____    ______ ____
ROOT
ATOM      1  C   UNL     1       2.085   1.825   1.289  0.00  0.00    +0.101 C 
ATOM      2  C   UNL     1       2.527   0.358   1.277  0.00  0.00    +0.015 C 
ATOM      3  C   UNL     1       3.413   0.104   0.057  0.00  0.00    +0.002 C 
ATOM      4  C   UNL     1       4.691   0.938   0.162  0.00  0.00    +0.015 C 
ATOM      5  C   UNL     1       4.330   2.427   0.132  0.00  0.00    +0.101 C 
ATOM      6  C   UNL     1       3.317   2.699   1.222  0.00  0.00    +0.147 C 
ATOM      7  O   UNL     1       3.488   3.591   2.017  0.00  0.00    -0.297 OA
ENDROOT
BRANCH   1  14
ATOM      8  C   UNL     1       0.187   5.817   0.377  0.00  0.00    +0.000 A 
ATOM      9  C   UNL     1      -1.180   5.607   0.407  0.00  0.00    +0.002 A 
ATOM     10  C   UNL     1      -1.690   4.328   0.332  0.00  0.00    +0.024 A 
ATOM     11  C   UNL     1      -0.830   3.236   0.226  0.00  0.00    +0.040 A 
ATOM     12  C   UNL     1       0.540   3.461   0.197  0.00  0.00    +0.015 A 
ATOM     13  C   UNL     1       1.047   4.739   0.272  0.00  0.00    +0.009 A 
ATOM     14  C   UNL     1       1.191   2.102   0.079  0.00  0.00    +0.178 C 
ATOM     15  C   UNL     1       0.025   1.137   0.048  0.00  0.00    +0.254 C 
ATOM     16  O   UNL     1       0.092  -0.071  -0.041  0.00  0.00    -0.272 OA
ATOM     17  N   UNL     1      -1.098   1.870   0.131  0.00  0.00    -0.282 N 
ATOM     18  H   UNL     1      -1.991   1.493   0.128  0.00  0.00    +0.155 HD
BRANCH  14  19
ATOM     19  O   UNL     1       1.947   2.013  -1.131  0.00  0.00    -0.374 OA
ATOM     20  H   UNL     1       1.437   2.208  -1.929  0.00  0.00    +0.211 HD
ENDBRANCH  14  19
ENDBRANCH   1  14
BRANCH   5  21
ATOM     21  C   UNL     1       5.587   3.265   0.377  0.00  0.00    +0.178 C 
ATOM     22  C   UNL     1       6.619   2.998  -0.694  0.00  0.00    +0.015 A 
ATOM     23  C   UNL     1       6.618   3.172  -2.059  0.00  0.00    +0.009 A 
ATOM     24  C   UNL     1       7.737   2.830  -2.799  0.00  0.00    +0.000 A 
ATOM     25  C   UNL     1       8.851   2.314  -2.163  0.00  0.00    +0.002 A 
ATOM     26  C   UNL     1       8.855   2.139  -0.795  0.00  0.00    +0.024 A 
ATOM     27  C   UNL     1       7.732   2.481  -0.043  0.00  0.00    +0.040 A 
ATOM     28  N   UNL     1       7.495   2.400   1.329  0.00  0.00    -0.282 N 
ATOM     29  C   UNL     1       6.266   2.840   1.662  0.00  0.00    +0.254 C 
ATOM     30  O   UNL     1       5.791   2.885   2.777  0.00  0.00    -0.272 OA
ATOM     31  H   UNL     1       8.141   2.067   1.972  0.00  0.00    +0.155 HD
BRANCH  21  32
ATOM     32  O   UNL     1       5.259   4.655   0.421  0.00  0.00    -0.374 OA
ATOM     33  H   UNL     1       6.019   5.234   0.574  0.00  0.00    +0.211 HD
ENDBRANCH  21  32
ENDBRANCH   5  21
TORSDOF 4
