REMARK  Name = ZINC36359267
REMARK  3 active torsions:
REMARK  status: ('A' for Active; 'I' for Inactive)
REMARK    1  A    between atoms: C_6  and  C_7
REMARK    2  A    between atoms: C_10  and  O_24
REMARK    3  A    between atoms: N_16  and  C_17
REMARK                            x       y       z     vdW  Elec       q    Type
REMARK                         _______ _______ _______ _____ _____    ______ ____
ROOT
ATOM      1  C   UNL     1      -1.293  -0.775   0.010  0.00  0.00    +0.080 C 
ATOM      2  C   UNL     1      -1.350  -1.682   1.245  0.00  0.00    +0.110 C 
ATOM      3  C   UNL     1      -0.507  -2.910   1.064  0.00  0.00    +0.190 C 
ATOM      4  N   UNL     1      -0.326  -3.489  -0.086  0.00  0.00    -0.197 NA
ATOM      5  C   UNL     1      -0.897  -2.943  -1.198  0.00  0.00    +0.165 A 
ATOM      6  C   UNL     1      -1.372  -1.654  -1.213  0.00  0.00    +0.094 A 
ATOM      7  N   UNL     1      -1.859  -1.405  -2.421  0.00  0.00    -0.237 NA
ATOM      8  C   UNL     1      -1.724  -2.468  -3.174  0.00  0.00    +0.206 A 
ATOM      9  N   UNL     1      -1.124  -3.458  -2.441  0.00  0.00    -0.283 N 
ENDROOT
BRANCH   1  15
ATOM     10  C   UNL     1      -0.017   1.378   0.010  0.00  0.00    +0.007 A 
ATOM     11  C   UNL     1       1.170   2.086   0.002  0.00  0.00    +0.038 A 
ATOM     12  C   UNL     1       2.379   1.410  -0.013  0.00  0.00    +0.123 A 
ATOM     13  C   UNL     1       2.396   0.026  -0.021  0.00  0.00    +0.038 A 
ATOM     14  C   UNL     1       1.208  -0.680  -0.013  0.00  0.00    +0.007 A 
ATOM     15  C   UNL     1       0.002  -0.004   0.002  0.00  0.00    -0.038 A 
ATOM     16  F   UNL     1       3.540   2.101  -0.021  0.00  0.00    -0.205 F 
ENDBRANCH   1  15
BRANCH   9  17
ATOM     17  C   UNL     1      -0.806  -4.751  -2.881  0.00  0.00    +0.050 A 
ATOM     18  C   UNL     1       0.467  -5.262  -2.672  0.00  0.00    +0.029 A 
ATOM     19  C   UNL     1       0.778  -6.536  -3.107  0.00  0.00    +0.040 A 
ATOM     20  C   UNL     1      -0.179  -7.302  -3.751  0.00  0.00    +0.124 A 
ATOM     21  C   UNL     1      -1.449  -6.793  -3.961  0.00  0.00    +0.040 A 
ATOM     22  C   UNL     1      -1.766  -5.522  -3.522  0.00  0.00    +0.029 A 
ATOM     23  F   UNL     1       0.128  -8.547  -4.176  0.00  0.00    -0.205 F 
ENDBRANCH   9  17
BRANCH   3  24
ATOM     24  O   UNL     1       0.092  -3.442   2.150  0.00  0.00    -0.495 OA
ATOM     25  H   UNL     1       0.619  -4.231   1.962  0.00  0.00    +0.293 HD
ENDBRANCH   3  24
TORSDOF 3
