REMARK  Name = ZINC12490001
REMARK  12 active torsions:
REMARK  status: ('A' for Active; 'I' for Inactive)
REMARK    1  A    between atoms: C_1  and  C_2
REMARK    2  A    between atoms: C_2  and  O_3
REMARK    3  A    between atoms: O_3  and  C_4
REMARK    4  A    between atoms: C_7  and  N_10
REMARK    5  A    between atoms: N_10  and  C_11
REMARK    6  A    between atoms: C_11  and  C_13
REMARK    7  A    between atoms: C_11  and  C_19
REMARK    8  A    between atoms: N_21  and  C_22
REMARK    9  A    between atoms: C_22  and  C_23
REMARK   10  A    between atoms: C_29  and  C_31
REMARK   11  A    between atoms: C_31  and  N_32
REMARK   12  A    between atoms: C_33  and  C_35
REMARK                            x       y       z     vdW  Elec       q    Type
REMARK                         _______ _______ _______ _____ _____    ______ ____
ROOT
ATOM      1  N   UNL     1       4.958   1.813   0.404  0.00  0.00    -0.254 N 
ATOM      2  C   UNL     1       3.723   2.141   0.832  0.00  0.00    +0.238 C 
ATOM      3  O   UNL     1       3.308   3.270   0.679  0.00  0.00    -0.274 OA
ENDROOT
BRANCH   1   7
ATOM      4  C   UNL     1       6.263  -2.141   0.636  0.00  0.00    +0.121 A 
ATOM      5  C   UNL     1       6.827  -1.175   1.457  0.00  0.00    +0.047 A 
ATOM      6  C   UNL     1       6.395   0.134   1.381  0.00  0.00    +0.027 A 
ATOM      7  C   UNL     1       5.396   0.484   0.482  0.00  0.00    +0.038 A 
ATOM      8  C   UNL     1       4.828  -0.484  -0.335  0.00  0.00    +0.027 A 
ATOM      9  C   UNL     1       5.266  -1.792  -0.262  0.00  0.00    +0.047 A 
BRANCH   4  10
ATOM     10  O   UNL     1       6.690  -3.430   0.711  0.00  0.00    -0.492 OA
BRANCH  10  12
ATOM     11  C   UNL     1       6.671  -5.758   0.063  0.00  0.00    +0.048 C 
ATOM     12  C   UNL     1       6.066  -4.371  -0.164  0.00  0.00    +0.225 C 
ENDBRANCH  10  12
ENDBRANCH   4  10
ENDBRANCH   1   7
BRANCH   1  13
ATOM     13  C   UNL     1       5.842   2.845  -0.142  0.00  0.00    +0.197 C 
BRANCH  13  14
ATOM     14  C   UNL     1       7.200   2.251  -0.413  0.00  0.00    -0.018 A 
ATOM     15  C   UNL     1       7.332   1.206  -1.307  0.00  0.00    +0.006 A 
ATOM     16  C   UNL     1       8.579   0.664  -1.559  0.00  0.00    +0.000 A 
ATOM     17  C   UNL     1       9.693   1.161  -0.908  0.00  0.00    +0.000 A 
ATOM     18  C   UNL     1       9.560   2.204  -0.010  0.00  0.00    +0.000 A 
ATOM     19  C   UNL     1       8.314   2.749   0.238  0.00  0.00    +0.006 A 
ENDBRANCH  13  14
BRANCH  13  20
ATOM     20  C   UNL     1       5.261   3.376  -1.427  0.00  0.00    +0.239 C 
ATOM     21  O   UNL     1       4.211   2.935  -1.845  0.00  0.00    -0.273 OA
ATOM     22  N   UNL     1       5.907   4.340  -2.112  0.00  0.00    -0.311 N 
ATOM     23  H   UNL     1       6.747   4.693  -1.777  0.00  0.00    +0.149 HD
BRANCH  22  24
ATOM     24  C   UNL     1       5.342   4.856  -3.361  0.00  0.00    +0.135 C 
BRANCH  24  25
ATOM     25  C   UNL     1       6.265   5.934  -3.932  0.00  0.00    +0.135 C 
ATOM     26  C   UNL     1       5.646   6.553  -5.204  0.00  0.00    +0.035 C 
ATOM     27  C   UNL     1       6.859   6.799  -6.130  0.00  0.00    +0.031 C 
ATOM     28  C   UNL     1       8.067   6.299  -5.307  0.00  0.00    +0.160 C 
ATOM     29  O   UNL     1       7.510   5.349  -4.371  0.00  0.00    -0.375 OA
ENDBRANCH  24  25
ENDBRANCH  22  24
ENDBRANCH  13  20
ENDBRANCH   1  13
BRANCH   2  30
ATOM     30  C   UNL     1       2.857   1.104   1.501  0.00  0.00    +0.201 C 
BRANCH  30  31
ATOM     31  N   UNL     1       1.628   1.735   1.988  0.00  0.00    -0.302 N 
ATOM     32  C   UNL     1       0.697   0.996   2.624  0.00  0.00    +0.251 C 
ATOM     33  O   UNL     1       0.878  -0.195   2.793  0.00  0.00    -0.270 OA
ATOM     34  H   UNL     1       1.484   2.685   1.853  0.00  0.00    +0.150 HD
BRANCH  32  35
ATOM     35  C   UNL     1      -0.535   1.626   3.106  0.00  0.00    +0.074 A 
ATOM     36  C   UNL     1      -1.608   1.053   3.771  0.00  0.00    +0.021 A 
ATOM     37  C   UNL     1      -2.647   1.881   4.113  0.00  0.00    +0.008 A 
ATOM     38  C   UNL     1      -2.578   3.200   3.791  0.00  0.00    +0.046 A 
ATOM     39  S   UNL     1      -1.043   3.333   2.997  0.00  0.00    -0.092 S 
ENDBRANCH  32  35
ENDBRANCH  30  31
ENDBRANCH   2  30
TORSDOF 11
