REMARK  Name = ZINC18088027
REMARK  9 active torsions:
REMARK  status: ('A' for Active; 'I' for Inactive)
REMARK    1  A    between atoms: C_1  and  C_2
REMARK    2  A    between atoms: C_2  and  C_3
REMARK    3  A    between atoms: C_2  and  C_4
REMARK    4  A    between atoms: C_4  and  C_6
REMARK    5  A    between atoms: C_4  and  N_14
REMARK    6  A    between atoms: C_9  and  O_12
REMARK    7  A    between atoms: O_12  and  C_13
REMARK    8  A    between atoms: C_15  and  C_17
REMARK    9  A    between atoms: N_22  and  C_24
REMARK                            x       y       z     vdW  Elec       q    Type
REMARK                         _______ _______ _______ _____ _____    ______ ____
ROOT
ATOM      1  N   UNL     1       2.187   4.110  -0.872  0.00  0.00    -0.308 N 
ATOM      2  C   UNL     1       2.064   5.335  -1.420  0.00  0.00    +0.219 C 
ATOM      3  O   UNL     1       1.096   6.019  -1.164  0.00  0.00    -0.275 OA
ATOM      4  H   UNL     1       2.961   3.562  -1.077  0.00  0.00    +0.149 HD
ENDROOT
BRANCH   2   5
ATOM      5  C   UNL     1       3.129   5.854  -2.352  0.00  0.00    +0.101 C 
ATOM      6  C   UNL     1       4.474   6.033  -1.609  0.00  0.00    +0.110 C 
ATOM      7  C   UNL     1       5.067   7.287  -2.215  0.00  0.00    +0.221 C 
ATOM      8  O   UNL     1       6.228   7.623  -2.118  0.00  0.00    -0.275 OA
ATOM      9  N   UNL     1       4.120   7.973  -2.877  0.00  0.00    -0.271 N 
ATOM     10  C   UNL     1       2.818   7.300  -2.796  0.00  0.00    +0.127 C 
BRANCH   9  11
ATOM     11  C   UNL     1       4.346   9.177  -3.558  0.00  0.00    +0.040 A 
ATOM     12  C   UNL     1       3.330   9.750  -4.312  0.00  0.00    +0.027 A 
ATOM     13  C   UNL     1       3.553  10.936  -4.984  0.00  0.00    +0.051 A 
ATOM     14  C   UNL     1       4.791  11.558  -4.908  0.00  0.00    +0.162 A 
ATOM     15  C   UNL     1       5.809  10.988  -4.152  0.00  0.00    +0.164 A 
ATOM     16  C   UNL     1       5.583   9.800  -3.475  0.00  0.00    +0.073 A 
ATOM     17  O   UNL     1       7.027  11.587  -4.060  0.00  0.00    -0.485 OA
ATOM     18  C   UNL     1       7.334  12.577  -5.048  0.00  0.00    +0.270 C 
ATOM     19  C   UNL     1       6.123  13.509  -5.186  0.00  0.00    +0.270 C 
ATOM     20  O   UNL     1       4.995  12.723  -5.584  0.00  0.00    -0.485 OA
ENDBRANCH   9  11
ENDBRANCH   2   5
BRANCH   1  21
ATOM     21  C   UNL     1       1.152   3.605   0.033  0.00  0.00    +0.106 C 
BRANCH  21  22
ATOM     22  C   UNL     1       1.166   2.098   0.022  0.00  0.00    -0.027 A 
ATOM     23  C   UNL     1      -0.026   1.397   0.041  0.00  0.00    +0.009 A 
ATOM     24  C   UNL     1      -0.015   0.015   0.031  0.00  0.00    +0.046 A 
ATOM     25  C   UNL     1       1.191  -0.668   0.001  0.00  0.00    +0.120 A 
ATOM     26  C   UNL     1       2.385   0.038  -0.018  0.00  0.00    +0.046 A 
ATOM     27  C   UNL     1       2.370   1.419  -0.008  0.00  0.00    +0.009 A 
BRANCH  25  28
ATOM     28  O   UNL     1       1.204  -2.027  -0.010  0.00  0.00    -0.495 OA
ATOM     29  C   UNL     1       2.483  -2.664  -0.041  0.00  0.00    +0.277 C 
ENDBRANCH  25  28
ENDBRANCH  21  22
BRANCH  21  31
ATOM     30  C   UNL     1       0.345   3.580   2.398  0.00  0.00    +0.009 C 
ATOM     31  C   UNL     1       1.426   4.107   1.452  0.00  0.00    +0.008 C 
ATOM     32  C   UNL     1       2.796   3.606   1.915  0.00  0.00    +0.009 C 
ENDBRANCH  21  31
ENDBRANCH   1  21
TORSDOF 6
