REMARK  Name = ZINC39639052
REMARK  14 active torsions:
REMARK  status: ('A' for Active; 'I' for Inactive)
REMARK    1  A    between atoms: C_1  and  O_2
REMARK    2  A    between atoms: O_2  and  C_3
REMARK    3  A    between atoms: C_5  and  C_11
REMARK    4  A    between atoms: C_7  and  O_9
REMARK    5  A    between atoms: O_9  and  C_10
REMARK    6  A    between atoms: C_15  and  C_24
REMARK    7  A    between atoms: N_26  and  C_27
REMARK    8  A    between atoms: C_27  and  C_28
REMARK    9  A    between atoms: C_29  and  O_38
REMARK   10  A    between atoms: C_31  and  O_36
REMARK   11  A    between atoms: C_33  and  O_34
REMARK   12  A    between atoms: O_34  and  C_35
REMARK   13  A    between atoms: O_36  and  C_37
REMARK   14  A    between atoms: O_38  and  C_39
REMARK                            x       y       z     vdW  Elec       q    Type
REMARK                         _______ _______ _______ _____ _____    ______ ____
ROOT
ATOM      1  C   UNL     1      -2.546  -4.155   0.013  0.00  0.00    +0.247 C 
ATOM      2  O   UNL     1      -1.527  -4.807  -0.105  0.00  0.00    -0.270 OA
ATOM      3  N   UNL     1      -3.736  -4.778   0.124  0.00  0.00    -0.296 N 
ATOM      4  C   UNL     1      -5.085  -4.164   0.147  0.00  0.00    +0.121 C 
ATOM      5  C   UNL     1      -5.965  -5.124  -0.684  0.00  0.00    +0.100 C 
ATOM      6  C   UNL     1      -5.244  -6.480  -0.611  0.00  0.00    -0.004 C 
ATOM      7  C   UNL     1      -3.992  -6.234   0.243  0.00  0.00    +0.115 C 
ATOM      8  C   UNL     1      -4.839  -6.939  -2.009  0.00  0.00    -0.010 C 
ATOM      9  C   UNL     1      -4.175  -8.316  -1.916  0.00  0.00    -0.082 C 
ATOM     10  N   UNL     1      -5.112  -9.274  -1.317  0.00  0.00    +0.379 N 
ATOM     11  C   UNL     1      -5.424  -8.874   0.061  0.00  0.00    -0.082 C 
ATOM     12  C   UNL     1      -6.141  -7.521   0.052  0.00  0.00    -0.010 C 
ATOM     13  H   UNL     1      -5.962  -9.296  -1.860  0.00  0.00    -0.086 HD
ATOM     14  H   UNL     1      -4.695 -10.193  -1.313  0.00  0.00    -0.086 HD
ENDROOT
BRANCH   1  17
ATOM     15  C   UNL     1      -1.352  -0.632  -0.544  0.00  0.00    +0.124 A 
ATOM     16  C   UNL     1      -1.410  -2.016  -0.567  0.00  0.00    +0.059 A 
ATOM     17  C   UNL     1      -2.480  -2.678   0.036  0.00  0.00    +0.044 A 
ATOM     18  C   UNL     1      -3.489  -1.942   0.659  0.00  0.00    +0.059 A 
ATOM     19  C   UNL     1      -3.423  -0.559   0.677  0.00  0.00    +0.124 A 
ATOM     20  C   UNL     1      -2.354   0.095   0.082  0.00  0.00    +0.091 A 
BRANCH  15  22
ATOM     21  C   UNL     1      -0.311   1.440  -1.064  0.00  0.00    +0.277 C 
ATOM     22  O   UNL     1      -0.310   0.013  -1.130  0.00  0.00    -0.495 OA
ENDBRANCH  15  22
BRANCH  19  23
ATOM     23  O   UNL     1      -4.405   0.159   1.284  0.00  0.00    -0.495 OA
ATOM     24  C   UNL     1      -4.274   1.582   1.266  0.00  0.00    +0.277 C 
ENDBRANCH  19  23
ENDBRANCH   1  17
BRANCH   5  25
ATOM     25  C   UNL     1      -6.055  -4.651  -2.112  0.00  0.00    +0.218 C 
ATOM     26  O   UNL     1      -5.101  -4.114  -2.634  0.00  0.00    -0.275 OA
ATOM     27  N   UNL     1      -7.195  -4.824  -2.809  0.00  0.00    -0.311 N 
ATOM     28  H   UNL     1      -7.958  -5.253  -2.392  0.00  0.00    +0.149 HD
BRANCH  27  29
ATOM     29  C   UNL     1      -7.282  -4.364  -4.197  0.00  0.00    +0.147 C 
BRANCH  29  30
ATOM     30  C   UNL     1      -8.652  -4.674  -4.744  0.00  0.00    +0.053 A 
ATOM     31  C   UNL     1      -8.889  -5.888  -5.370  0.00  0.00    +0.132 A 
ATOM     32  C   UNL     1     -10.149  -6.174  -5.874  0.00  0.00    +0.091 A 
ATOM     33  C   UNL     1     -11.172  -5.245  -5.751  0.00  0.00    +0.127 A 
ATOM     34  C   UNL     1     -10.935  -4.031  -5.124  0.00  0.00    +0.091 A 
ATOM     35  C   UNL     1      -9.676  -3.747  -4.617  0.00  0.00    +0.132 A 
BRANCH  35  36
ATOM     36  O   UNL     1      -9.444  -2.560  -3.999  0.00  0.00    -0.495 OA
ATOM     37  C   UNL     1     -10.544  -1.653  -3.903  0.00  0.00    +0.277 C 
ENDBRANCH  35  36
BRANCH  33  38
ATOM     38  O   UNL     1     -12.407  -5.525  -6.245  0.00  0.00    -0.495 OA
ATOM     39  C   UNL     1     -13.412  -4.523  -6.084  0.00  0.00    +0.277 C 
ENDBRANCH  33  38
BRANCH  31  40
ATOM     40  O   UNL     1      -7.887  -6.798  -5.490  0.00  0.00    -0.495 OA
ATOM     41  C   UNL     1      -8.203  -8.028  -6.146  0.00  0.00    +0.277 C 
ENDBRANCH  31  40
ENDBRANCH  29  30
ENDBRANCH  27  29
ENDBRANCH   5  25
TORSDOF 9
