REMARK  Name = ZINC07125732
REMARK  5 active torsions:
REMARK  status: ('A' for Active; 'I' for Inactive)
REMARK    1  A    between atoms: C_1  and  C_2
REMARK    2  A    between atoms: C_2  and  O_3
REMARK    3  A    between atoms: O_3  and  C_4
REMARK    4  A    between atoms: C_6  and  C_11
REMARK    5  A    between atoms: C_9  and  O_10
REMARK                            x       y       z     vdW  Elec       q    Type
REMARK                         _______ _______ _______ _____ _____    ______ ____
ROOT
ATOM      1  C   UNL     1       0.654  -4.954  -0.018  0.00  0.00    +0.209 C 
ATOM      2  N   UNL     1       0.407  -6.118  -0.888  0.00  0.00    -0.294 N 
ATOM      3  C   UNL     1      -0.295  -7.191  -0.407  0.00  0.00    +0.160 C 
ATOM      4  N   UNL     1      -0.265  -7.514   0.874  0.00  0.00    -0.302 N 
ATOM      5  C   UNL     1       0.429  -6.722   1.723  0.00  0.00    +0.213 A 
ATOM      6  N   UNL     1       0.901  -5.477   1.331  0.00  0.00    -0.287 N 
ATOM      7  C   UNL     1       1.565  -4.936   2.390  0.00  0.00    +0.072 A 
ATOM      8  C   UNL     1       2.247  -3.738   2.568  0.00  0.00    +0.028 A 
ATOM      9  C   UNL     1       2.814  -3.512   3.812  0.00  0.00    +0.002 A 
ATOM     10  C   UNL     1       2.714  -4.430   4.843  0.00  0.00    +0.002 A 
ATOM     11  C   UNL     1       2.042  -5.630   4.692  0.00  0.00    +0.030 A 
ATOM     12  C   UNL     1       1.461  -5.881   3.443  0.00  0.00    +0.091 A 
ATOM     13  N   UNL     1       0.752  -6.934   2.977  0.00  0.00    -0.212 NA
ATOM     14  N   UNL     1      -1.042  -7.945  -1.271  0.00  0.00    -0.332 N 
ATOM     15  H   UNL     1      -1.071  -7.717  -2.214  0.00  0.00    +0.145 HD
ATOM     16  H   UNL     1      -1.543  -8.707  -0.942  0.00  0.00    +0.145 HD
ATOM     17  H   UNL     1       0.740  -6.123  -1.799  0.00  0.00    +0.151 HD
ATOM     18  H   UNL     1      -0.730  -8.301   1.198  0.00  0.00    +0.171 HD
ENDROOT
BRANCH   1  21
ATOM     19  C   UNL     1      -1.498  -1.849   0.006  0.00  0.00    +0.162 A 
ATOM     20  C   UNL     1      -0.389  -2.680  -0.003  0.00  0.00    +0.056 A 
ATOM     21  C   UNL     1      -0.553  -4.052  -0.008  0.00  0.00    -0.003 A 
ATOM     22  C   UNL     1      -1.823  -4.600  -0.005  0.00  0.00    +0.011 A 
ATOM     23  C   UNL     1      -2.934  -3.777   0.004  0.00  0.00    +0.049 A 
ATOM     24  C   UNL     1      -2.776  -2.400   0.016  0.00  0.00    +0.158 A 
BRANCH  24  25
ATOM     25  O   UNL     1      -3.868  -1.589   0.030  0.00  0.00    -0.503 OA
ATOM     26  H   UNL     1      -4.192  -1.350  -0.849  0.00  0.00    +0.292 HD
ENDBRANCH  24  25
BRANCH  19  27
ATOM     27  O   UNL     1      -1.339  -0.499   0.012  0.00  0.00    -0.489 OA
BRANCH  27  29
ATOM     28  C   UNL     1      -0.019   1.526   0.010  0.00  0.00    +0.048 C 
ATOM     29  C   UNL     1       0.002  -0.004   0.002  0.00  0.00    +0.226 C 
ENDBRANCH  27  29
ENDBRANCH  19  27
ENDBRANCH   1  21
TORSDOF 4
