REMARK  Name = ZINC10067819
REMARK  11 active torsions:
REMARK  status: ('A' for Active; 'I' for Inactive)
REMARK    1  A    between atoms: C_1  and  C_2
REMARK    2  A    between atoms: C_2  and  C_3
REMARK    3  A    between atoms: N_12  and  C_13
REMARK    4  A    between atoms: C_13  and  C_14
REMARK    5  A    between atoms: C_14  and  C_15
REMARK    6  A    between atoms: C_15  and  N_54
REMARK    7  A    between atoms: C_16  and  N_54
REMARK    8  A    between atoms: C_17  and  N_54
REMARK    9  A    between atoms: C_18  and  C_20
REMARK   10  A    between atoms: C_21  and  C_22
REMARK   11  A    between atoms: C_25  and  N_27
REMARK                            x       y       z     vdW  Elec       q    Type
REMARK                         _______ _______ _______ _____ _____    ______ ____
ROOT
ATOM      1  C   UNL     1      -2.143   1.058   1.278  0.00  0.00    -0.046 A 
ATOM      2  C   UNL     1      -2.436  -0.161   1.873  0.00  0.00    +0.006 A 
ATOM      3  C   UNL     1      -3.712  -0.658   1.896  0.00  0.00    +0.029 A 
ATOM      4  C   UNL     1      -4.779   0.062   1.310  0.00  0.00    +0.080 A 
ATOM      5  C   UNL     1      -4.443   1.299   0.713  0.00  0.00    +0.041 A 
ATOM      6  C   UNL     1      -3.162   1.791   0.699  0.00  0.00    +0.021 A 
ATOM      7  S   UNL     1      -6.015   1.868   0.112  0.00  0.00    -0.052 S 
ATOM      8  C   UNL     1      -6.987   0.475   0.670  0.00  0.00    +0.168 A 
ATOM      9  N   UNL     1      -6.083  -0.283   1.246  0.00  0.00    -0.224 NA
ATOM     10  N   UNL     1      -8.345   0.254   0.532  0.00  0.00    -0.247 N 
ATOM     11  C   UNL     1      -9.116   1.163  -0.098  0.00  0.00    +0.245 C 
ATOM     12  O   UNL     1      -8.616   2.179  -0.545  0.00  0.00    -0.270 OA
ENDROOT
BRANCH   1  14
ATOM     13  C   UNL     1      -0.013   1.086   0.008  0.00  0.00    +0.009 C 
ATOM     14  C   UNL     1      -0.729   1.579   1.267  0.00  0.00    +0.032 C 
ENDBRANCH   1  14
BRANCH  11  15
ATOM     15  C   UNL     1     -10.504   0.936  -0.240  0.00  0.00    +0.069 C 
ATOM     16  C   UNL     1     -11.280   1.851  -0.874  0.00  0.00    +0.020 C 
BRANCH  16  17
ATOM     17  C   UNL     1     -12.670   1.625  -1.016  0.00  0.00    +0.015 A 
ATOM     18  C   UNL     1     -13.631   2.427  -1.619  0.00  0.00    +0.018 A 
ATOM     19  C   UNL     1     -14.922   1.960  -1.619  0.00  0.00    +0.041 A 
ATOM     20  C   UNL     1     -15.195   0.764  -1.033  0.00  0.00    +0.164 A 
ATOM     21  S   UNL     1     -13.645   0.238  -0.461  0.00  0.00    -0.065 S 
BRANCH  20  22
ATOM     22  N   UNL     1     -16.501   0.077  -0.912  0.00  0.00    +0.063 N 
ATOM     23  O   UNL     1     -17.504   0.590  -1.374  0.00  0.00    -0.126 OA
ATOM     24  O   UNL     1     -16.572  -1.002  -0.350  0.00  0.00    -0.126 OA
ENDBRANCH  20  22
ENDBRANCH  16  17
ENDBRANCH  11  15
BRANCH  10  25
ATOM     25  C   UNL     1      -8.947  -0.969   1.070  0.00  0.00    +0.114 C 
BRANCH  25  26
ATOM     26  C   UNL     1      -9.393  -0.726   2.513  0.00  0.00    +0.001 C 
BRANCH  26  27
ATOM     27  C   UNL     1     -10.021  -2.002   3.075  0.00  0.00    -0.078 C 
BRANCH  27  30
ATOM     28  C   UNL     1     -11.543  -0.789   4.515  0.00  0.00    -0.097 C 
ATOM     29  C   UNL     1     -10.839  -3.027   5.111  0.00  0.00    -0.097 C 
ATOM     30  N   UNL     1     -10.428  -1.758   4.474  0.00  0.00    +0.376 N 
ATOM     31  H   UNL     1      -9.630  -1.369   4.991  0.00  0.00    -0.083 HD
ENDBRANCH  27  30
ENDBRANCH  26  27
ENDBRANCH  25  26
ENDBRANCH  10  25
TORSDOF 8
