REMARK  Name = ZINC59310743
REMARK  8 active torsions:
REMARK  status: ('A' for Active; 'I' for Inactive)
REMARK    1  A    between atoms: C_1  and  C_2
REMARK    2  A    between atoms: C_4  and  C_30
REMARK    3  A    between atoms: C_7  and  C_9
REMARK    4  A    between atoms: C_9  and  S_10
REMARK    5  A    between atoms: S_10  and  C_11
REMARK    6  A    between atoms: N_16  and  N_17
REMARK    7  A    between atoms: C_18  and  C_19
REMARK    8  A    between atoms: C_18  and  C_20
REMARK                            x       y       z     vdW  Elec       q    Type
REMARK                         _______ _______ _______ _____ _____    ______ ____
ROOT
ATOM      1  C   UNL     1       0.085  -4.322   5.429  0.00  0.00    +0.211 A 
ATOM      2  N   UNL     1       0.107  -5.234   6.408  0.00  0.00    -0.186 NA
ATOM      3  C   UNL     1       0.104  -4.628   7.577  0.00  0.00    +0.232 A 
ATOM      4  N   UNL     1       0.078  -3.296   7.356  0.00  0.00    -0.245 N 
ATOM      5  N   UNL     1       0.072  -3.124   5.962  0.00  0.00    -0.144 NA
ATOM      6  N   UNL     1       0.121  -5.247   8.813  0.00  0.00    -0.205 N 
ATOM      7  H   UNL     1       0.116  -4.713   9.623  0.00  0.00    +0.177 HD
ATOM      8  H   UNL     1       0.070  -2.597   8.027  0.00  0.00    +0.192 HD
ENDROOT
BRANCH   6   9
ATOM      9  N   UNL     1       0.147  -6.645   8.896  0.00  0.00    -0.189 NA
ATOM     10  C   UNL     1       0.163  -7.218  10.041  0.00  0.00    +0.040 C 
ATOM     11  C   UNL     1       0.155  -6.389  11.299  0.00  0.00    +0.063 C 
BRANCH  10  12
ATOM     12  C   UNL     1       0.190  -8.723  10.130  0.00  0.00    +0.011 C 
ATOM     13  C   UNL     1      -1.046  -9.211  10.888  0.00  0.00    +0.016 C 
ATOM     14  C   UNL     1      -1.018 -10.738  10.978  0.00  0.00    -0.010 C 
ATOM     15  C   UNL     1      -1.016 -11.333   9.569  0.00  0.00    +0.007 C 
ATOM     16  C   UNL     1       0.221 -10.844   8.812  0.00  0.00    -0.010 C 
ATOM     17  C   UNL     1       0.193  -9.317   8.721  0.00  0.00    +0.016 C 
ATOM     18  C   UNL     1       1.482 -11.288   9.555  0.00  0.00    +0.007 C 
ATOM     19  C   UNL     1       1.480 -10.694  10.965  0.00  0.00    -0.010 C 
ATOM     20  C   UNL     1       0.243 -11.182  11.722  0.00  0.00    +0.007 C 
ATOM     21  C   UNL     1       1.452  -9.166  10.874  0.00  0.00    +0.016 C 
ENDBRANCH  10  12
ENDBRANCH   6   9
BRANCH   1  22
ATOM     22  S   UNL     1       0.082  -4.675   3.702  0.00  0.00    -0.075 S 
BRANCH  22  23
ATOM     23  C   UNL     1       0.057  -3.038   2.921  0.00  0.00    +0.178 C 
BRANCH  23  30
ATOM     24  C   UNL     1      -0.018   1.503   0.010  0.00  0.00    +0.067 C 
ATOM     25  C   UNL     1       0.002  -0.004   0.002  0.00  0.00    +0.061 A 
ATOM     26  C   UNL     1       0.008  -0.818  -1.140  0.00  0.00    +0.048 A 
ATOM     27  C   UNL     1       0.027  -2.106  -0.734  0.00  0.00    +0.045 A 
ATOM     28  N   UNL     1       0.034  -2.107   0.629  0.00  0.00    -0.204 N 
ATOM     29  N   UNL     1       0.023  -0.774   1.058  0.00  0.00    -0.169 NA
ATOM     30  C   UNL     1       0.052  -3.197   1.422  0.00  0.00    +0.258 C 
ATOM     31  O   UNL     1       0.065  -4.301   0.932  0.00  0.00    -0.270 OA
ATOM     32  C   UNL     1       0.040  -3.320  -1.626  0.00  0.00    +0.066 C 
ENDBRANCH  23  30
ENDBRANCH  22  23
ENDBRANCH   1  22
TORSDOF 5
