REMARK  Name = ZINC64137782
REMARK  11 active torsions:
REMARK  status: ('A' for Active; 'I' for Inactive)
REMARK    1  A    between atoms: C_1  and  C_2
REMARK    2  A    between atoms: C_2  and  C_3
REMARK    3  A    between atoms: C_2  and  C_4
REMARK    4  A    between atoms: C_2  and  N_5
REMARK    5  A    between atoms: C_6  and  C_8
REMARK    6  A    between atoms: C_8  and  C_9
REMARK    7  A    between atoms: C_9  and  C_14
REMARK    8  A    between atoms: N_16  and  C_17
REMARK    9  A    between atoms: C_17  and  C_18
REMARK   10  A    between atoms: C_18  and  C_20
REMARK   11  A    between atoms: C_18  and  C_26
REMARK                            x       y       z     vdW  Elec       q    Type
REMARK                         _______ _______ _______ _____ _____    ______ ____
ROOT
ATOM      1  C   UNL     1       4.240   1.422  -2.454  0.00  0.00    +0.220 C 
ATOM      2  O   UNL     1       4.518   1.956  -3.507  0.00  0.00    -0.275 OA
ATOM      3  N   UNL     1       3.999   2.172  -1.361  0.00  0.00    -0.314 N 
ATOM      4  H   UNL     1       3.848   1.746  -0.503  0.00  0.00    +0.149 HD
ENDROOT
BRANCH   1   5
ATOM      5  C   UNL     1       4.162  -0.081  -2.369  0.00  0.00    +0.055 C 
ATOM      6  C   UNL     1       4.534  -0.724  -3.728  0.00  0.00    +0.016 C 
ATOM      7  C   UNL     1       3.219  -0.596  -4.537  0.00  0.00    +0.001 C 
ATOM      8  C   UNL     1       2.109  -0.861  -3.499  0.00  0.00    +0.001 C 
ATOM      9  C   UNL     1       2.708  -0.533  -2.121  0.00  0.00    +0.016 C 
BRANCH   5  10
ATOM     10  C   UNL     1       5.081  -0.601  -1.261  0.00  0.00    +0.112 C 
BRANCH  10  12
ATOM     11  N   UNL     1       7.461  -0.392  -0.619  0.00  0.00    -0.311 N 
ATOM     12  C   UNL     1       6.492  -0.139  -1.521  0.00  0.00    +0.214 C 
ATOM     13  O   UNL     1       6.756   0.460  -2.542  0.00  0.00    -0.276 OA
ATOM     14  H   UNL     1       7.267  -0.934   0.161  0.00  0.00    +0.149 HD
BRANCH  11  16
ATOM     15  C   UNL     1       8.727   1.678  -0.930  0.00  0.00    +0.031 C 
ATOM     16  C   UNL     1       8.806   0.154  -0.817  0.00  0.00    +0.026 C 
ATOM     17  C   UNL     1       9.407  -0.423  -2.100  0.00  0.00    +0.031 C 
ATOM     18  C   UNL     1       9.689  -0.224   0.374  0.00  0.00    +0.031 C 
ENDBRANCH  11  16
ENDBRANCH  10  12
ENDBRANCH   5  10
ENDBRANCH   1   5
BRANCH   3  19
ATOM     19  C   UNL     1       3.966   3.633  -1.468  0.00  0.00    +0.116 C 
BRANCH  19  20
ATOM     20  C   UNL     1       3.793   4.243  -0.076  0.00  0.00    +0.064 C 
BRANCH  20  21
ATOM     21  C   UNL     1       3.889   5.744  -0.170  0.00  0.00    -0.033 C 
ATOM     22  C   UNL     1       4.792   6.541   0.446  0.00  0.00    -0.000 A 
ATOM     23  C   UNL     1       5.911   6.261   1.353  0.00  0.00    +0.010 A 
ATOM     24  C   UNL     1       6.653   7.291   1.818  0.00  0.00    +0.001 A 
ATOM     25  C   UNL     1       6.380   8.618   1.457  0.00  0.00    +0.002 A 
ATOM     26  C   UNL     1       5.370   8.954   0.628  0.00  0.00    +0.026 A 
ATOM     27  C   UNL     1       4.525   7.950   0.079  0.00  0.00    +0.043 A 
ATOM     28  N   UNL     1       3.497   8.022  -0.732  0.00  0.00    -0.380 N 
ATOM     29  C   UNL     1       2.999   6.663  -0.976  0.00  0.00    +0.145 C 
ATOM     30  H   UNL     1       3.130   8.836  -1.110  0.00  0.00    +0.160 HD
ENDBRANCH  20  21
BRANCH  20  31
ATOM     31  C   UNL     1       2.445   3.859   0.476  0.00  0.00    -0.039 A 
ATOM     32  C   UNL     1       1.301   4.104  -0.260  0.00  0.00    +0.004 A 
ATOM     33  C   UNL     1       0.064   3.752   0.247  0.00  0.00    +0.000 A 
ATOM     34  C   UNL     1      -0.029   3.154   1.490  0.00  0.00    +0.000 A 
ATOM     35  C   UNL     1       1.115   2.909   2.226  0.00  0.00    +0.000 A 
ATOM     36  C   UNL     1       2.352   3.257   1.718  0.00  0.00    +0.004 A 
ENDBRANCH  20  31
ENDBRANCH  19  20
ENDBRANCH   3  19
TORSDOF 8
