REMARK  Name = ZINC34932650
REMARK  14 active torsions:
REMARK  status: ('A' for Active; 'I' for Inactive)
REMARK    1  A    between atoms: C_1  and  N_2
REMARK    2  A    between atoms: N_2  and  C_3
REMARK    3  A    between atoms: N_2  and  C_4
REMARK    4  A    between atoms: C_4  and  C_5
REMARK    5  A    between atoms: C_5  and  C_6
REMARK    6  A    between atoms: C_6  and  N_7
REMARK    7  A    between atoms: C_8  and  C_25
REMARK    8  A    between atoms: C_10  and  C_11
REMARK    9  A    between atoms: C_11  and  C_12
REMARK   10  A    between atoms: C_16  and  O_18
REMARK   11  A    between atoms: O_18  and  C_19
REMARK   12  A    between atoms: C_27  and  O_33
REMARK   13  A    between atoms: C_28  and  O_32
REMARK   14  A    between atoms: O_33  and  C_34
REMARK                            x       y       z     vdW  Elec       q    Type
REMARK                         _______ _______ _______ _____ _____    ______ ____
ROOT
ATOM      1  N   UNL     1      -2.676  -3.800  -0.665  0.00  0.00    -0.284 N 
ATOM      2  C   UNL     1      -2.370  -4.823  -1.672  0.00  0.00    +0.145 C 
ATOM      3  C   UNL     1      -2.441  -6.152  -0.957  0.00  0.00    +0.076 C 
ATOM      4  C   UNL     1      -2.759  -5.886   0.332  0.00  0.00    +0.249 C 
ATOM      5  O   UNL     1      -2.920  -6.811   1.306  0.00  0.00    -0.282 OA
ATOM      6  C   UNL     1      -2.898  -4.425   0.505  0.00  0.00    +0.288 C 
ATOM      7  O   UNL     1      -3.175  -3.870   1.551  0.00  0.00    -0.266 OA
ENDROOT
BRANCH   2   8
ATOM      8  C   UNL     1      -0.985  -4.606  -2.226  0.00  0.00    -0.018 A 
ATOM      9  C   UNL     1      -0.782  -4.604  -3.593  0.00  0.00    +0.055 A 
ATOM     10  C   UNL     1       0.490  -4.405  -4.105  0.00  0.00    +0.163 A 
ATOM     11  C   UNL     1       1.562  -4.207  -3.239  0.00  0.00    +0.173 A 
ATOM     12  C   UNL     1       1.352  -4.210  -1.869  0.00  0.00    +0.063 A 
ATOM     13  C   UNL     1       0.078  -4.404  -1.365  0.00  0.00    +0.025 A 
ATOM     14 BR   UNL     1       2.804  -3.941  -0.689  0.00  0.00    -0.046 Br
BRANCH  11  15
ATOM     15  O   UNL     1       2.813  -4.011  -3.736  0.00  0.00    -0.503 OA
ATOM     16  H   UNL     1       3.030  -3.083  -3.901  0.00  0.00    +0.292 HD
ENDBRANCH  11  15
BRANCH  10  17
ATOM     17  O   UNL     1       0.692  -4.403  -5.449  0.00  0.00    -0.491 OA
ATOM     18  C   UNL     1      -0.434  -4.711  -6.274  0.00  0.00    +0.277 C 
ENDBRANCH  10  17
ENDBRANCH   2   8
BRANCH   3  19
ATOM     19  C   UNL     1      -2.210  -7.474  -1.546  0.00  0.00    +0.195 C 
ATOM     20  O   UNL     1      -1.263  -8.145  -1.182  0.00  0.00    -0.287 OA
BRANCH  19  21
ATOM     21  C   UNL     1      -3.129  -7.993  -2.582  0.00  0.00    +0.026 A 
ATOM     22  C   UNL     1      -4.256  -7.256  -2.952  0.00  0.00    +0.012 A 
ATOM     23  C   UNL     1      -5.111  -7.743  -3.919  0.00  0.00    +0.004 A 
ATOM     24  C   UNL     1      -4.856  -8.960  -4.524  0.00  0.00    +0.045 A 
ATOM     25  C   UNL     1      -3.738  -9.701  -4.162  0.00  0.00    +0.121 A 
ATOM     26  C   UNL     1      -2.870  -9.219  -3.197  0.00  0.00    +0.057 A 
BRANCH  25  27
ATOM     27  O   UNL     1      -3.493 -10.896  -4.761  0.00  0.00    -0.495 OA
ATOM     28  C   UNL     1      -4.426 -11.329  -5.752  0.00  0.00    +0.277 C 
ENDBRANCH  25  27
ENDBRANCH  19  21
ENDBRANCH   3  19
BRANCH   1  29
ATOM     29  C   UNL     1      -2.726  -2.353  -0.893  0.00  0.00    +0.107 C 
BRANCH  29  30
ATOM     30  C   UNL     1      -1.340  -1.752  -0.653  0.00  0.00    +0.000 C 
BRANCH  30  31
ATOM     31  C   UNL     1      -1.391  -0.241  -0.891  0.00  0.00    -0.078 C 
BRANCH  31  33
ATOM     32  C   UNL     1      -0.081   1.765  -1.005  0.00  0.00    -0.097 C 
ATOM     33  N   UNL     1      -0.060   0.337  -0.661  0.00  0.00    +0.376 N 
ATOM     34  C   UNL     1       0.304   0.178   0.753  0.00  0.00    -0.097 C 
ATOM     35  H   UNL     1       0.617  -0.139  -1.239  0.00  0.00    -0.083 HD
ENDBRANCH  31  33
ENDBRANCH  30  31
ENDBRANCH  29  30
ENDBRANCH   1  29
TORSDOF 10
