REMARK  Name = ZINC40001714
REMARK  7 active torsions:
REMARK  status: ('A' for Active; 'I' for Inactive)
REMARK    1  A    between atoms: C_1  and  C_2
REMARK    2  A    between atoms: C_6  and  N_12
REMARK    3  A    between atoms: C_9  and  C_11
REMARK    4  A    between atoms: C_13  and  C_15
REMARK    5  A    between atoms: C_15  and  S_16
REMARK    6  A    between atoms: S_16  and  C_17
REMARK    7  A    between atoms: N_22  and  C_23
REMARK                            x       y       z     vdW  Elec       q    Type
REMARK                         _______ _______ _______ _____ _____    ______ ____
ROOT
ATOM      1  N   UNL     1      -3.724  -2.331   1.808  0.00  0.00    -0.285 N 
ATOM      2  C   UNL     1      -4.652  -3.308   1.809  0.00  0.00    +0.225 C 
ATOM      3  O   UNL     1      -4.987  -3.827   0.765  0.00  0.00    -0.275 OA
ATOM      4  H   UNL     1      -3.457  -1.916   2.643  0.00  0.00    +0.151 HD
ENDROOT
BRANCH   1   9
ATOM      5  C   UNL     1       0.052   1.558   0.139  0.00  0.00    +0.030 C 
ATOM      6  C   UNL     1       0.071   0.029   0.119  0.00  0.00    +0.099 C 
ATOM      7  C   UNL     1      -1.341  -0.493   0.116  0.00  0.00    -0.011 C 
ATOM      8  C   UNL     1      -1.658  -1.644   0.735  0.00  0.00    +0.065 C 
ATOM      9  C   UNL     1      -3.120  -1.895   0.547  0.00  0.00    +0.243 C 
ATOM     10  O   UNL     1      -3.684  -0.632   0.132  0.00  0.00    -0.347 OA
ATOM     11  C   UNL     1      -2.588   0.064  -0.500  0.00  0.00    +0.146 C 
ATOM     12  C   UNL     1      -2.594  -0.199  -2.007  0.00  0.00    +0.043 C 
ATOM     13  C   UNL     1      -0.621  -2.406   1.447  0.00  0.00    +0.258 C 
ATOM     14  O   UNL     1      -0.828  -3.518   1.894  0.00  0.00    -0.269 OA
ATOM     15  N   UNL     1       0.582  -1.792   1.574  0.00  0.00    -0.247 N 
ATOM     16  N   UNL     1       0.761  -0.471   1.316  0.00  0.00    -0.233 NA
ATOM     17  H   UNL     1       1.346  -2.317   1.860  0.00  0.00    +0.169 HD
ATOM     18  H   UNL     1       1.741  -0.234   1.293  0.00  0.00    +0.145 HD
ENDBRANCH   1   9
BRANCH   2  19
ATOM     19  C   UNL     1      -5.274  -3.756   3.106  0.00  0.00    +0.168 C 
BRANCH  19  20
ATOM     20  S   UNL     1      -6.476  -5.074   2.777  0.00  0.00    -0.106 S 
BRANCH  20  21
ATOM     21  C   UNL     1      -7.125  -5.496   4.418  0.00  0.00    +0.252 C 
ATOM     22  N   UNL     1      -7.719  -4.310   5.038  0.00  0.00    -0.258 NA
ATOM     23  C   UNL     1      -7.112  -3.990   6.100  0.00  0.00    +0.037 C 
ATOM     24  C   UNL     1      -5.934  -4.918   6.328  0.00  0.00    +0.120 C 
ATOM     25  N   UNL     1      -6.027  -5.950   5.288  0.00  0.00    -0.292 N 
ATOM     26  C   UNL     1      -6.088  -5.511   7.730  0.00  0.00    +0.028 C 
ATOM     27  C   UNL     1      -6.243  -4.362   8.732  0.00  0.00    +0.003 C 
ATOM     28  C   UNL     1      -7.535  -3.588   8.480  0.00  0.00    +0.006 C 
ATOM     29  C   UNL     1      -7.484  -2.913   7.100  0.00  0.00    +0.052 C 
BRANCH  25  30
ATOM     30  C   UNL     1      -5.250  -7.102   5.153  0.00  0.00    +0.032 A 
ATOM     31  C   UNL     1      -5.551  -8.033   4.167  0.00  0.00    +0.023 A 
ATOM     32  C   UNL     1      -4.779  -9.171   4.035  0.00  0.00    +0.002 A 
ATOM     33  C   UNL     1      -3.709  -9.385   4.885  0.00  0.00    +0.000 A 
ATOM     34  C   UNL     1      -3.407  -8.461   5.867  0.00  0.00    +0.002 A 
ATOM     35  C   UNL     1      -4.170  -7.318   6.001  0.00  0.00    +0.023 A 
ENDBRANCH  25  30
ENDBRANCH  20  21
ENDBRANCH  19  20
ENDBRANCH   2  19
TORSDOF 5
