REMARK  Name = ZINC16760801
REMARK  6 active torsions:
REMARK  status: ('A' for Active; 'I' for Inactive)
REMARK    1  A    between atoms: N_13  and  C_17
REMARK    2  A    between atoms: C_17  and  C_18
REMARK    3  A    between atoms: N_20  and  C_21
REMARK    4  A    between atoms: N_20  and  C_26
REMARK    5  A    between atoms: C_21  and  C_22
REMARK    6  A    between atoms: C_22  and  C_23
REMARK                            x       y       z     vdW  Elec       q    Type
REMARK                         _______ _______ _______ _____ _____    ______ ____
ROOT
ATOM      1  C   UNL     1      -2.997   3.440  -1.224  0.00  0.00    +0.214 C 
ENDROOT
BRANCH   1  14
ATOM      2  C   UNL     1      -0.828  -2.512   1.545  0.00  0.00    +0.000 A 
ATOM      3  C   UNL     1      -1.942  -1.698   1.626  0.00  0.00    +0.000 A 
ATOM      4  C   UNL     1      -1.815  -0.340   1.417  0.00  0.00    +0.006 A 
ATOM      5  C   UNL     1      -0.577   0.216   1.125  0.00  0.00    -0.012 A 
ATOM      6  C   UNL     1       0.534  -0.595   1.050  0.00  0.00    -0.042 A 
ATOM      7  C   UNL     1       0.403  -1.962   1.257  0.00  0.00    +0.004 A 
ATOM      8  C   UNL     1       1.909  -0.057   0.750  0.00  0.00    +0.035 C 
ATOM      9  C   UNL     1       1.823   1.334   0.127  0.00  0.00    +0.008 C 
ATOM     10  C   UNL     1       0.928   2.210   1.014  0.00  0.00    +0.040 C 
ATOM     11  C   UNL     1      -0.503   1.701   0.903  0.00  0.00    +0.138 C 
ATOM     12  C   UNL     1      -1.082   2.055  -0.449  0.00  0.00    +0.251 C 
ATOM     13  O   UNL     1      -0.682   1.694  -1.536  0.00  0.00    -0.272 OA
ATOM     14  N   UNL     1      -2.136   2.856  -0.192  0.00  0.00    -0.215 N 
ATOM     15  C   UNL     1      -2.298   3.051   1.122  0.00  0.00    +0.310 C 
ATOM     16  O   UNL     1      -3.181   3.736   1.599  0.00  0.00    -0.252 OA
ATOM     17  N   UNL     1      -1.373   2.404   1.855  0.00  0.00    -0.281 N 
ATOM     18  H   UNL     1      -1.297   2.401   2.822  0.00  0.00    +0.152 HD
ENDBRANCH   1  14
BRANCH   1  19
ATOM     19  C   UNL     1      -4.141   2.503  -1.514  0.00  0.00    +0.238 C 
ATOM     20  O   UNL     1      -4.228   1.451  -0.917  0.00  0.00    -0.274 OA
ATOM     21  N   UNL     1      -5.066   2.835  -2.436  0.00  0.00    -0.270 N 
BRANCH  21  22
ATOM     22  C   UNL     1      -6.071   1.922  -2.778  0.00  0.00    +0.036 A 
ATOM     23  C   UNL     1      -5.749   0.755  -3.458  0.00  0.00    +0.026 A 
ATOM     24  C   UNL     1      -6.741  -0.147  -3.790  0.00  0.00    +0.040 A 
ATOM     25  C   UNL     1      -8.058   0.118  -3.455  0.00  0.00    +0.124 A 
ATOM     26  C   UNL     1      -8.383   1.284  -2.782  0.00  0.00    +0.040 A 
ATOM     27  C   UNL     1      -7.393   2.185  -2.444  0.00  0.00    +0.026 A 
ATOM     28  F   UNL     1      -9.028  -0.762  -3.786  0.00  0.00    -0.205 F 
ENDBRANCH  21  22
BRANCH  21  29
ATOM     29  C   UNL     1      -5.020   4.150  -3.080  0.00  0.00    +0.123 C 
BRANCH  29  30
ATOM     30  C   UNL     1      -4.162   4.069  -4.343  0.00  0.00    +0.115 C 
BRANCH  30  31
ATOM     31  C   UNL     1      -4.115   5.422  -5.006  0.00  0.00    +0.212 C 
ATOM     32  O   UNL     1      -4.710   6.358  -4.516  0.00  0.00    -0.276 OA
ATOM     33  N   UNL     1      -3.412   5.591  -6.143  0.00  0.00    -0.329 N 
ATOM     34  H   UNL     1      -2.936   4.843  -6.535  0.00  0.00    +0.145 HD
ATOM     35  H   UNL     1      -3.381   6.462  -6.570  0.00  0.00    +0.145 HD
ENDBRANCH  30  31
ENDBRANCH  29  30
ENDBRANCH  21  29
ENDBRANCH   1  19
TORSDOF 6
