REMARK  Name = ZINC04019245
REMARK  10 active torsions:
REMARK  status: ('A' for Active; 'I' for Inactive)
REMARK    1  A    between atoms: C_1  and  C_2
REMARK    2  A    between atoms: C_2  and  O_3
REMARK    3  A    between atoms: O_3  and  C_4
REMARK    4  A    between atoms: C_8  and  N_10
REMARK    5  A    between atoms: C_14  and  N_51
REMARK    6  A    between atoms: C_18  and  C_19
REMARK    7  A    between atoms: C_18  and  N_51
REMARK    8  A    between atoms: C_19  and  C_20
REMARK    9  A    between atoms: C_23  and  S_26
REMARK   10  A    between atoms: S_26  and  N_29
REMARK                            x       y       z     vdW  Elec       q    Type
REMARK                         _______ _______ _______ _____ _____    ______ ____
ROOT
ATOM      1  N   UNL     1      -2.045   1.880  -1.246  0.00  0.00    +0.387 N 
ATOM      2  H   UNL     1      -1.407   1.706  -2.031  0.00  0.00    -0.085 HD
ATOM      3  H   UNL     1      -2.593   2.728  -1.432  0.00  0.00    -0.085 HD
ENDROOT
BRANCH   1   8
ATOM      4  N   UNL     1       1.066   1.998   0.003  0.00  0.00    -0.212 N 
ATOM      5  C   UNL     1       0.795   3.308   0.056  0.00  0.00    +0.225 C 
ATOM      6  O   UNL     1       1.620   4.195   0.097  0.00  0.00    -0.275 OA
ATOM      7  C   UNL     1      -0.705   3.506   0.057  0.00  0.00    +0.090 C 
ATOM      8  C   UNL     1      -1.260   2.069  -0.012  0.00  0.00    +0.026 C 
ATOM      9  C   UNL     1      -0.015   1.209  -0.036  0.00  0.00    +0.213 C 
ATOM     10  O   UNL     1       0.002  -0.002  -0.087  0.00  0.00    -0.277 OA
BRANCH   4  15
ATOM     11  C   UNL     1       4.488   1.224  -1.119  0.00  0.00    +0.122 A 
ATOM     12  C   UNL     1       4.958   0.496  -0.035  0.00  0.00    +0.046 A 
ATOM     13  C   UNL     1       4.140   0.269   1.055  0.00  0.00    +0.005 A 
ATOM     14  C   UNL     1       2.853   0.770   1.072  0.00  0.00    +0.024 A 
ATOM     15  C   UNL     1       2.374   1.494  -0.012  0.00  0.00    +0.047 A 
ATOM     16  C   UNL     1       3.195   1.724  -1.107  0.00  0.00    +0.069 A 
BRANCH  11  17
ATOM     17  O   UNL     1       5.293   1.447  -2.190  0.00  0.00    -0.492 OA
BRANCH  17  19
ATOM     18  C   UNL     1       7.366   1.254  -3.418  0.00  0.00    +0.048 C 
ATOM     19  C   UNL     1       6.614   0.903  -2.133  0.00  0.00    +0.225 C 
ENDBRANCH  17  19
ENDBRANCH  11  17
ENDBRANCH   4  15
ENDBRANCH   1   8
BRANCH   1  20
ATOM     20  C   UNL     1      -2.960   0.732  -1.100  0.00  0.00    -0.077 C 
BRANCH  20  21
ATOM     21  C   UNL     1      -3.760   0.561  -2.393  0.00  0.00    +0.016 C 
BRANCH  21  22
ATOM     22  C   UNL     1      -4.698  -0.611  -2.252  0.00  0.00    -0.049 A 
ATOM     23  C   UNL     1      -4.283  -1.877  -2.620  0.00  0.00    +0.005 A 
ATOM     24  C   UNL     1      -5.141  -2.952  -2.486  0.00  0.00    +0.029 A 
ATOM     25  C   UNL     1      -6.419  -2.759  -1.994  0.00  0.00    +0.105 A 
ATOM     26  C   UNL     1      -6.836  -1.492  -1.630  0.00  0.00    +0.029 A 
ATOM     27  C   UNL     1      -5.975  -0.418  -1.759  0.00  0.00    +0.005 A 
BRANCH  25  28
ATOM     28  S   UNL     1      -7.516  -4.128  -1.830  0.00  0.00    +0.056 S 
ATOM     29  O   UNL     1      -6.703  -5.289  -1.725  0.00  0.00    -0.153 OA
ATOM     30  O   UNL     1      -8.466  -3.771  -0.835  0.00  0.00    -0.153 OA
BRANCH  28  31
ATOM     31  N   UNL     1      -8.349  -4.261  -3.255  0.00  0.00    -0.204 NA
ATOM     32  H   UNL     1      -8.177  -3.638  -3.977  0.00  0.00    +0.144 HD
ATOM     33  H   UNL     1      -9.010  -4.963  -3.366  0.00  0.00    +0.144 HD
ENDBRANCH  28  31
ENDBRANCH  25  28
ENDBRANCH  21  22
ENDBRANCH  20  21
ENDBRANCH   1  20
TORSDOF 9
