REMARK  Name = ZINC40549537
REMARK  9 active torsions:
REMARK  status: ('A' for Active; 'I' for Inactive)
REMARK    1  A    between atoms: C_1  and  C_2
REMARK    2  A    between atoms: C_4  and  C_36
REMARK    3  A    between atoms: C_5  and  C_9
REMARK    4  A    between atoms: C_6  and  O_8
REMARK    5  A    between atoms: C_11  and  C_15
REMARK    6  A    between atoms: N_17  and  C_18
REMARK    7  A    between atoms: C_19  and  C_27
REMARK    8  A    between atoms: N_29  and  C_30
REMARK    9  A    between atoms: C_30  and  C_31
REMARK                            x       y       z     vdW  Elec       q    Type
REMARK                         _______ _______ _______ _____ _____    ______ ____
ROOT
ATOM      1  C   UNL     1       0.105  -7.637   1.367  0.00  0.00    +0.266 C 
ATOM      2  O   UNL     1       0.105  -7.598   2.582  0.00  0.00    -0.268 OA
ATOM      3  N   UNL     1       0.121  -8.825   0.730  0.00  0.00    -0.274 N 
ATOM      4  H   UNL     1       0.120  -8.856  -0.239  0.00  0.00    +0.156 HD
ENDROOT
BRANCH   3   5
ATOM      5  C   UNL     1       0.137 -10.002   1.461  0.00  0.00    +0.085 A 
ATOM      6  C   UNL     1       0.160 -11.303   0.981  0.00  0.00    +0.069 A 
ATOM      7  C   UNL     1       0.174 -12.372   1.964  0.00  0.00    -0.023 A 
ATOM      8  C   UNL     1       0.162 -11.946   3.245  0.00  0.00    -0.004 A 
ATOM      9  S   UNL     1       0.141 -10.181   3.130  0.00  0.00    -0.077 S 
ATOM     10  C   UNL     1       0.170 -12.797   4.476  0.00  0.00    +0.043 C 
ATOM     11  C   UNL     1      -0.187 -14.235   4.071  0.00  0.00    +0.005 C 
ATOM     12  C   UNL     1       0.660 -14.633   2.859  0.00  0.00    +0.005 C 
ATOM     13  C   UNL     1       0.200 -13.855   1.624  0.00  0.00    +0.037 C 
BRANCH   6  14
ATOM     14  C   UNL     1       0.169 -11.586  -0.457  0.00  0.00    +0.247 C 
ATOM     15  O   UNL     1       1.226 -11.687  -1.051  0.00  0.00    -0.270 OA
ATOM     16  N   UNL     1      -0.994 -11.735  -1.122  0.00  0.00    -0.304 N 
ATOM     17  H   UNL     1      -1.837 -11.655  -0.649  0.00  0.00    +0.149 HD
BRANCH  16  18
ATOM     18  C   UNL     1      -0.986 -12.019  -2.559  0.00  0.00    +0.179 C 
BRANCH  18  19
ATOM     19  C   UNL     1      -2.403 -12.139  -3.056  0.00  0.00    +0.122 A 
ATOM     20  C   UNL     1      -3.158 -11.132  -3.532  0.00  0.00    +0.046 A 
ATOM     21  C   UNL     1      -4.409 -11.688  -3.882  0.00  0.00    +0.041 A 
ATOM     22  C   UNL     1      -4.345 -13.002  -3.600  0.00  0.00    +0.195 A 
ATOM     23  O   UNL     1      -3.125 -13.270  -3.105  0.00  0.00    -0.466 OA
ENDBRANCH  18  19
ENDBRANCH  16  18
ENDBRANCH   6  14
ENDBRANCH   3   5
BRANCH   1  26
ATOM     24  C   UNL     1       0.060  -4.260  -0.033  0.00  0.00    +0.097 A 
ATOM     25  C   UNL     1       0.071  -5.100   1.095  0.00  0.00    +0.062 A 
ATOM     26  C   UNL     1       0.088  -6.387   0.591  0.00  0.00    +0.121 A 
ATOM     27  N   UNL     1       0.086  -6.269  -0.771  0.00  0.00    -0.272 N 
ATOM     28  H   UNL     1       0.096  -7.012  -1.395  0.00  0.00    +0.189 HD
ATOM     29  N   UNL     1       0.064  -5.028  -1.101  0.00  0.00    -0.173 NA
BRANCH  24  34
ATOM     30  C   UNL     1      -0.018   1.503   0.010  0.00  0.00    +0.044 C 
ATOM     31  C   UNL     1       0.002  -0.004   0.002  0.00  0.00    -0.047 A 
ATOM     32  C   UNL     1       0.006  -0.686  -1.202  0.00  0.00    +0.007 A 
ATOM     33  C   UNL     1       0.024  -2.066  -1.219  0.00  0.00    -0.037 A 
ATOM     34  C   UNL     1       0.040  -2.776  -0.020  0.00  0.00    +0.046 A 
ATOM     35  C   UNL     1       0.037  -2.084   1.194  0.00  0.00    +0.127 A 
ATOM     36  C   UNL     1       0.023  -0.698   1.197  0.00  0.00    +0.049 A 
ATOM     37  C   UNL     1       0.027  -2.805  -2.532  0.00  0.00    +0.044 C 
BRANCH  35  38
ATOM     38  O   UNL     1       0.052  -2.768   2.368  0.00  0.00    -0.506 OA
ATOM     39  H   UNL     1       0.940  -2.954   2.703  0.00  0.00    +0.292 HD
ENDBRANCH  35  38
ENDBRANCH  24  34
ENDBRANCH   1  26
TORSDOF 7
