REMARK  Name = ZINC31046137
REMARK  9 active torsions:
REMARK  status: ('A' for Active; 'I' for Inactive)
REMARK    1  A    between atoms: C_5  and  C_7
REMARK    2  A    between atoms: C_7  and  S_8
REMARK    3  A    between atoms: S_8  and  C_9
REMARK    4  A    between atoms: C_9  and  C_10
REMARK    5  A    between atoms: C_10  and  N_11
REMARK    6  A    between atoms: C_12  and  C_14
REMARK    7  A    between atoms: N_19  and  C_21
REMARK    8  A    between atoms: C_21  and  C_22
REMARK    9  A    between atoms: C_24  and  C_27
REMARK                            x       y       z     vdW  Elec       q    Type
REMARK                         _______ _______ _______ _____ _____    ______ ____
ROOT
ATOM      1  C   UNL     1      -8.515   7.218  -3.616  0.00  0.00    +0.058 C 
ATOM      2  C   UNL     1      -8.279   8.522  -2.849  0.00  0.00    +0.009 C 
ATOM      3  C   UNL     1      -9.600   9.289  -2.743  0.00  0.00    -0.018 C 
ATOM      4  C   UNL     1     -10.146   9.553  -4.148  0.00  0.00    -0.078 C 
ATOM      5  N   UNL     1     -10.355   8.275  -4.840  0.00  0.00    +0.386 N 
ATOM      6  C   UNL     1      -9.092   7.542  -4.996  0.00  0.00    -0.065 C 
ATOM      7  H   UNL     1     -11.024   7.662  -4.218  0.00  0.00    -0.081 HD
ENDROOT
BRANCH   1   9
ATOM      8  N   UNL     1      -6.516   6.097  -2.687  0.00  0.00    -0.314 N 
ATOM      9  C   UNL     1      -7.208   6.485  -3.776  0.00  0.00    +0.214 C 
ATOM     10  O   UNL     1      -6.780   6.244  -4.885  0.00  0.00    -0.276 OA
ATOM     11  H   UNL     1      -6.904   6.315  -1.681  0.00  0.00    +0.149 HD
BRANCH   8  12
ATOM     12  C   UNL     1      -5.245   5.384  -2.843  0.00  0.00    +0.115 C 
BRANCH  12  13
ATOM     13  C   UNL     1      -4.669   5.061  -1.463  0.00  0.00    +0.088 C 
BRANCH  13  14
ATOM     14  S   UNL     1      -3.096   4.178  -1.656  0.00  0.00    -0.154 S 
BRANCH  14  15
ATOM     15  C   UNL     1      -2.552   3.874   0.048  0.00  0.00    +0.107 C 
BRANCH  15  20
ATOM     16  C   UNL     1       1.156   3.166   0.008  0.00  0.00    +0.000 A 
ATOM     17  C   UNL     1       1.174   1.783   0.000  0.00  0.00    +0.003 A 
ATOM     18  C   UNL     1      -0.013   1.076   0.008  0.00  0.00    +0.038 A 
ATOM     19  C   UNL     1      -1.221   1.752   0.017  0.00  0.00    +0.127 A 
ATOM     20  C   UNL     1      -1.238   3.136   0.031  0.00  0.00    -0.002 A 
ATOM     21  C   UNL     1      -0.050   3.842   0.023  0.00  0.00    +0.007 A 
ATOM     22  F   UNL     1      -2.382   1.062   0.019  0.00  0.00    -0.205 F 
ENDBRANCH  15  20
ENDBRANCH  14  15
ENDBRANCH  13  14
ENDBRANCH  12  13
ENDBRANCH   8  12
ENDBRANCH   1   9
BRANCH   5  23
ATOM     23  C   UNL     1     -11.008   8.481  -6.140  0.00  0.00    +0.022 C 
BRANCH  23  24
ATOM     24  C   UNL     1     -12.160   9.438  -5.978  0.00  0.00    +0.211 A 
ATOM     25  N   UNL     1     -12.110  10.742  -6.083  0.00  0.00    -0.193 NA
ATOM     26  C   UNL     1     -13.372  11.174  -5.862  0.00  0.00    +0.202 A 
ATOM     27  N   UNL     1     -14.106  10.117  -5.629  0.00  0.00    -0.056 NA
ATOM     28  O   UNL     1     -13.426   9.115  -5.692  0.00  0.00    -0.340 OA
BRANCH  26  29
ATOM     29  C   UNL     1     -13.836  12.584  -5.876  0.00  0.00    +0.023 A 
ATOM     30  C   UNL     1     -12.934  13.614  -6.135  0.00  0.00    +0.013 A 
ATOM     31  C   UNL     1     -13.372  14.922  -6.153  0.00  0.00    +0.021 A 
ATOM     32  C   UNL     1     -14.702  15.213  -5.902  0.00  0.00    +0.041 A 
ATOM     33  C   UNL     1     -15.600  14.194  -5.637  0.00  0.00    +0.021 A 
ATOM     34  C   UNL     1     -15.173  12.882  -5.623  0.00  0.00    +0.013 A 
ATOM     35 CL   UNL     1     -15.245  16.862  -5.919  0.00  0.00    -0.084 Cl
ENDBRANCH  26  29
ENDBRANCH  23  24
ENDBRANCH   5  23
TORSDOF 9
