REMARK  Name = ZINC20210788
REMARK  3 active torsions:
REMARK  status: ('A' for Active; 'I' for Inactive)
REMARK    1  A    between atoms: C_3  and  C_13
REMARK    2  A    between atoms: N_4  and  C_6
REMARK    3  A    between atoms: C_23  and  C_25
REMARK                            x       y       z     vdW  Elec       q    Type
REMARK                         _______ _______ _______ _____ _____    ______ ____
ROOT
ATOM      1  C   UNL     1       3.433   0.526  -0.228  0.00  0.00    +0.042 C 
ATOM      2  C   UNL     1       4.037  -0.719  -0.185  0.00  0.00    +0.082 C 
ATOM      3  C   UNL     1       3.240  -1.974  -0.107  0.00  0.00    +0.153 C 
ATOM      4  N   UNL     1       2.067  -2.116  -0.667  0.00  0.00    -0.283 NA
ATOM      5  N   UNL     1       3.875  -2.995   0.631  0.00  0.00    -0.152 N 
ATOM      6  C   UNL     1       5.248  -2.937   0.748  0.00  0.00    +0.181 C 
ATOM      7  N   UNL     1       6.043  -1.984   0.332  0.00  0.00    -0.152 NA
ATOM      8  C   UNL     1       5.509  -0.873  -0.222  0.00  0.00    +0.273 C 
ATOM      9  O   UNL     1       6.218  -0.021  -0.733  0.00  0.00    -0.268 OA
ATOM     10  S   UNL     1       5.617  -4.444   1.606  0.00  0.00    -0.033 S 
ATOM     11  C   UNL     1       3.934  -4.999   1.841  0.00  0.00    +0.130 C 
ATOM     12  N   UNL     1       3.245  -4.059   1.241  0.00  0.00    -0.164 NA
ATOM     13  H   UNL     1       1.622  -2.977  -0.648  0.00  0.00    +0.188 HD
ENDROOT
BRANCH  11  14
ATOM     14  C   UNL     1       3.444  -6.211   2.534  0.00  0.00    +0.009 A 
ATOM     15  C   UNL     1       2.085  -6.528   2.514  0.00  0.00    +0.013 A 
ATOM     16  C   UNL     1       1.633  -7.658   3.162  0.00  0.00    +0.039 A 
ATOM     17  C   UNL     1       2.526  -8.479   3.832  0.00  0.00    +0.123 A 
ATOM     18  C   UNL     1       3.877  -8.169   3.855  0.00  0.00    +0.039 A 
ATOM     19  C   UNL     1       4.340  -7.044   3.205  0.00  0.00    +0.013 A 
ATOM     20  F   UNL     1       2.079  -9.586   4.465  0.00  0.00    -0.205 F 
ENDBRANCH  11  14
BRANCH   1  23
ATOM     21  C   UNL     1       0.078   0.288   1.079  0.00  0.00    +0.020 A 
ATOM     22  C   UNL     1       1.326  -0.286   0.834  0.00  0.00    +0.027 A 
ATOM     23  C   UNL     1       2.101   0.678   0.202  0.00  0.00    +0.047 A 
ATOM     24  N   UNL     1       1.323   1.812   0.072  0.00  0.00    -0.316 N 
ATOM     25  C   UNL     1       0.101   1.561   0.608  0.00  0.00    +0.092 A 
BRANCH  24  26
ATOM     26  C   UNL     1       1.728   3.018  -0.513  0.00  0.00    +0.047 A 
ATOM     27  C   UNL     1       2.911   3.624  -0.111  0.00  0.00    +0.027 A 
ATOM     28  C   UNL     1       3.308   4.814  -0.690  0.00  0.00    +0.017 A 
ATOM     29  C   UNL     1       2.528   5.402  -1.670  0.00  0.00    +0.018 A 
ATOM     30  C   UNL     1       1.349   4.800  -2.073  0.00  0.00    +0.017 A 
ATOM     31  C   UNL     1       0.950   3.608  -1.501  0.00  0.00    +0.027 A 
ATOM     32 BR   UNL     1       3.074   7.030  -2.460  0.00  0.00    -0.050 Br
ENDBRANCH  24  26
ENDBRANCH   1  23
TORSDOF 3
