REMARK  Name = ZINC13639937
REMARK  5 active torsions:
REMARK  status: ('A' for Active; 'I' for Inactive)
REMARK    1  A    between atoms: C_5  and  C_7
REMARK    2  A    between atoms: N_9  and  C_10
REMARK    3  A    between atoms: C_17  and  C_26
REMARK    4  A    between atoms: C_29  and  O_33
REMARK    5  A    between atoms: C_31  and  O_32
REMARK                            x       y       z     vdW  Elec       q    Type
REMARK                         _______ _______ _______ _____ _____    ______ ____
ROOT
ATOM      1  C   UNL     1       4.930   8.319   0.629  0.00  0.00    +0.001 A 
ATOM      2  C   UNL     1       5.120   7.027   1.092  0.00  0.00    +0.006 A 
ATOM      3  C   UNL     1       4.250   6.017   0.746  0.00  0.00    -0.019 A 
ATOM      4  C   UNL     1       3.148   6.278  -0.074  0.00  0.00    +0.044 A 
ATOM      5  C   UNL     1       2.966   7.594  -0.547  0.00  0.00    +0.058 A 
ATOM      6  C   UNL     1       3.860   8.602  -0.191  0.00  0.00    +0.015 A 
ATOM      7  N   UNL     1       2.205   5.330  -0.438  0.00  0.00    -0.336 N 
ATOM      8  C   UNL     1       2.450   3.947  -0.000  0.00  0.00    +0.108 C 
ATOM      9  C   UNL     1       3.019   4.016   1.402  0.00  0.00    +0.029 C 
ATOM     10  C   UNL     1       4.443   4.628   1.218  0.00  0.00    +0.049 C 
ATOM     11  C   UNL     1       5.116   4.303   2.499  0.00  0.00    -0.023 C 
ATOM     12  C   UNL     1       4.577   3.192   2.989  0.00  0.00    -0.030 C 
ATOM     13  C   UNL     1       3.456   2.706   2.067  0.00  0.00    +0.033 C 
ATOM     14  H   UNL     1       2.015   5.368  -1.428  0.00  0.00    +0.147 HD
ENDROOT
BRANCH   8  15
ATOM     15  C   UNL     1       1.157   3.174   0.008  0.00  0.00    +0.015 A 
ATOM     16  C   UNL     1      -0.050   3.847   0.024  0.00  0.00    +0.012 A 
ATOM     17  C   UNL     1      -1.238   3.141   0.031  0.00  0.00    +0.046 A 
ATOM     18  C   UNL     1      -1.222   1.754   0.017  0.00  0.00    +0.120 A 
ATOM     19  C   UNL     1      -0.013   1.076   0.008  0.00  0.00    +0.091 A 
ATOM     20  C   UNL     1       1.178   1.786   0.000  0.00  0.00    +0.125 A 
BRANCH  20  21
ATOM     21  O   UNL     1       2.365   1.125  -0.015  0.00  0.00    -0.506 OA
ATOM     22  H   UNL     1       2.700   0.938  -0.903  0.00  0.00    +0.292 HD
ENDBRANCH  20  21
BRANCH  18  23
ATOM     23  O   UNL     1      -2.390   1.060   0.019  0.00  0.00    -0.507 OA
ATOM     24  H   UNL     1      -2.724   0.854   0.902  0.00  0.00    +0.292 HD
ENDBRANCH  18  23
ENDBRANCH   8  15
BRANCH   5  25
ATOM     25  C   UNL     1       1.824   7.904  -1.426  0.00  0.00    +0.246 C 
ATOM     26  O   UNL     1       1.042   7.028  -1.740  0.00  0.00    -0.270 OA
ATOM     27  N   UNL     1       1.646   9.161  -1.881  0.00  0.00    -0.308 N 
ATOM     28  H   UNL     1       2.269   9.860  -1.631  0.00  0.00    +0.149 HD
BRANCH  27  29
ATOM     29  C   UNL     1       0.510   9.469  -2.754  0.00  0.00    +0.073 C 
ATOM     30  C   UNL     1       0.881   9.153  -4.204  0.00  0.00    +0.022 C 
ATOM     31  C   UNL     1      -0.304   9.476  -5.116  0.00  0.00    +0.002 C 
ATOM     32  C   UNL     1      -0.655  10.960  -4.991  0.00  0.00    +0.000 C 
ATOM     33  C   UNL     1      -1.026  11.276  -3.541  0.00  0.00    +0.002 C 
ATOM     34  C   UNL     1       0.160  10.954  -2.629  0.00  0.00    +0.022 C 
ENDBRANCH  27  29
ENDBRANCH   5  25
TORSDOF 5
