REMARK  Name = ZINC33905022
REMARK  6 active torsions:
REMARK  status: ('A' for Active; 'I' for Inactive)
REMARK    1  A    between atoms: C_7  and  C_11
REMARK    2  A    between atoms: C_11  and  C_12
REMARK    3  A    between atoms: C_12  and  C_14
REMARK    4  A    between atoms: C_12  and  N_32
REMARK    5  A    between atoms: C_16  and  C_19
REMARK    6  A    between atoms: N_21  and  C_22
REMARK                            x       y       z     vdW  Elec       q    Type
REMARK                         _______ _______ _______ _____ _____    ______ ____
ROOT
ATOM      1  C   UNL     1      -0.602  -4.842  -1.466  0.00  0.00    +0.182 A 
ATOM      2  N   UNL     1      -0.202  -6.011  -1.868  0.00  0.00    -0.210 NA
ATOM      3  C   UNL     1      -1.231  -6.890  -1.728  0.00  0.00    +0.163 A 
ATOM      4  C   UNL     1      -2.284  -6.196  -1.218  0.00  0.00    +0.230 A 
ATOM      5  O   UNL     1      -1.875  -4.927  -1.056  0.00  0.00    -0.449 OA
ENDROOT
BRANCH   3   6
ATOM      6  C   UNL     1      -1.209  -8.325  -2.067  0.00  0.00    +0.266 C 
ATOM      7  O   UNL     1      -2.201  -9.006  -1.893  0.00  0.00    -0.268 OA
ATOM      8  N   UNL     1      -0.088  -8.882  -2.569  0.00  0.00    -0.304 N 
ATOM      9  H   UNL     1       0.703  -8.339  -2.707  0.00  0.00    +0.150 HD
BRANCH   8  10
ATOM     10  C   UNL     1      -0.067 -10.307  -2.905  0.00  0.00    +0.036 C 
ATOM     11  C   UNL     1      -1.131 -10.598  -3.965  0.00  0.00    +0.029 C 
ATOM     12  C   UNL     1      -1.108 -12.087  -4.316  0.00  0.00    -0.008 C 
ATOM     13  C   UNL     1       0.271 -12.461  -4.862  0.00  0.00    +0.007 C 
ATOM     14  C   UNL     1       1.335 -12.171  -3.802  0.00  0.00    -0.008 C 
ATOM     15  C   UNL     1       1.313 -10.682  -3.451  0.00  0.00    +0.029 C 
ATOM     16  C   UNL     1       1.043 -12.995  -2.547  0.00  0.00    +0.007 C 
ATOM     17  C   UNL     1      -0.336 -12.621  -2.001  0.00  0.00    -0.008 C 
ATOM     18  C   UNL     1      -1.401 -12.911  -3.061  0.00  0.00    +0.007 C 
ATOM     19  C   UNL     1      -0.359 -11.132  -1.650  0.00  0.00    +0.029 C 
ENDBRANCH   8  10
ENDBRANCH   3   6
BRANCH   1  20
ATOM     20  C   UNL     1       0.236  -3.589  -1.455  0.00  0.00    +0.017 C 
BRANCH  20  21
ATOM     21  N   UNL     1      -0.552  -2.469  -1.986  0.00  0.00    +0.386 N 
ATOM     22  H   UNL     1      -1.370  -2.331  -1.412  0.00  0.00    -0.089 HD
ATOM     23  H   UNL     1       0.009  -1.630  -1.979  0.00  0.00    -0.089 HD
ATOM     24  H   UNL     1      -0.836  -2.676  -2.932  0.00  0.00    -0.089 HD
ENDBRANCH  20  21
BRANCH  20  25
ATOM     25  C   UNL     1       0.666  -3.275  -0.021  0.00  0.00    +0.030 C 
BRANCH  25  32
ATOM     26  C   UNL     1      -0.017   1.362   0.009  0.00  0.00    +0.001 A 
ATOM     27  C   UNL     1       1.170   2.083   0.002  0.00  0.00    +0.002 A 
ATOM     28  C   UNL     1       2.386   1.436  -0.013  0.00  0.00    +0.026 A 
ATOM     29  C   UNL     1       2.428   0.046  -0.021  0.00  0.00    +0.047 A 
ATOM     30  C   UNL     1       1.223  -0.681  -0.013  0.00  0.00    +0.003 A 
ATOM     31  C   UNL     1       0.002  -0.004   0.002  0.00  0.00    +0.010 A 
ATOM     32  C   UNL     1       1.604  -2.095  -0.025  0.00  0.00    -0.023 A 
ATOM     33  C   UNL     1       2.945  -2.141  -0.038  0.00  0.00    +0.087 A 
ATOM     34  N   UNL     1       3.455  -0.871  -0.036  0.00  0.00    -0.360 N 
ATOM     35  H   UNL     1       4.399  -0.650  -0.044  0.00  0.00    +0.165 HD
ENDBRANCH  25  32
ENDBRANCH  20  25
ENDBRANCH   1  20
TORSDOF 6
