REMARK  Name = ZINC26786578
REMARK  7 active torsions:
REMARK  status: ('A' for Active; 'I' for Inactive)
REMARK    1  A    between atoms: C_3  and  C_11
REMARK    2  A    between atoms: C_6  and  N_7
REMARK    3  A    between atoms: C_14  and  C_16
REMARK    4  A    between atoms: C_17  and  C_18
REMARK    5  A    between atoms: C_17  and  C_20
REMARK    6  A    between atoms: N_22  and  C_23
REMARK    7  A    between atoms: C_24  and  C_32
REMARK                            x       y       z     vdW  Elec       q    Type
REMARK                         _______ _______ _______ _____ _____    ______ ____
ROOT
ATOM      1  C   UNL     1       5.884   4.640  -1.254  0.00  0.00    +0.070 C 
ATOM      2  C   UNL     1       5.287   5.273  -2.336  0.00  0.00    +0.117 C 
ENDROOT
BRANCH   1   6
ATOM      3  C   UNL     1       4.180   1.614  -0.485  0.00  0.00    +0.137 A 
ATOM      4  C   UNL     1       4.564   1.987   0.786  0.00  0.00    +0.050 A 
ATOM      5  C   UNL     1       5.263   3.187   0.666  0.00  0.00    +0.050 A 
ATOM      6  C   UNL     1       5.281   3.507  -0.684  0.00  0.00    +0.130 A 
ATOM      7  O   UNL     1       4.625   2.537  -1.356  0.00  0.00    -0.455 OA
BRANCH   3  10
ATOM      8  C   UNL     1       1.575  -0.642  -1.972  0.00  0.00    +0.033 A 
ATOM      9  C   UNL     1       2.286   0.495  -1.652  0.00  0.00    +0.015 A 
ATOM     10  C   UNL     1       3.414   0.402  -0.832  0.00  0.00    +0.036 A 
ATOM     11  C   UNL     1       3.813  -0.846  -0.343  0.00  0.00    +0.054 A 
ATOM     12  C   UNL     1       3.091  -1.975  -0.673  0.00  0.00    +0.053 A 
ATOM     13  C   UNL     1       1.975  -1.874  -1.485  0.00  0.00    +0.128 A 
ATOM     14 CL   UNL     1       5.213  -0.974   0.675  0.00  0.00    -0.083 Cl
BRANCH  13  15
ATOM     15  N   UNL     1       1.206  -3.090  -1.834  0.00  0.00    +0.056 N 
ATOM     16  O   UNL     1       0.231  -3.005  -2.543  0.00  0.00    -0.126 OA
ATOM     17  O   UNL     1       1.554  -4.167  -1.410  0.00  0.00    -0.126 OA
ENDBRANCH  13  15
ENDBRANCH   3  10
ENDBRANCH   1   6
BRANCH   2  18
ATOM     18  C   UNL     1       3.932   4.895  -2.752  0.00  0.00    +0.259 C 
ATOM     19  O   UNL     1       3.283   4.118  -2.076  0.00  0.00    -0.269 OA
ATOM     20  N   UNL     1       3.406   5.407  -3.882  0.00  0.00    -0.275 N 
ATOM     21  H   UNL     1       3.923   6.026  -4.420  0.00  0.00    +0.156 HD
BRANCH  20  22
ATOM     22  C   UNL     1       2.127   5.050  -4.274  0.00  0.00    +0.085 A 
ATOM     23  C   UNL     1       1.431   5.469  -5.398  0.00  0.00    +0.068 A 
ATOM     24  C   UNL     1       0.090   4.942  -5.584  0.00  0.00    -0.023 A 
ATOM     25  C   UNL     1      -0.310   4.094  -4.613  0.00  0.00    -0.004 A 
ATOM     26  S   UNL     1       1.064   4.005  -3.501  0.00  0.00    -0.077 S 
ATOM     27  C   UNL     1      -1.629   3.392  -4.519  0.00  0.00    +0.043 C 
ATOM     28  C   UNL     1      -2.606   4.068  -5.492  0.00  0.00    +0.005 C 
ATOM     29  C   UNL     1      -1.919   4.229  -6.851  0.00  0.00    +0.005 C 
ATOM     30  C   UNL     1      -0.817   5.287  -6.756  0.00  0.00    +0.037 C 
BRANCH  23  31
ATOM     31  C   UNL     1       2.025   6.404  -6.359  0.00  0.00    +0.244 C 
ATOM     32  O   UNL     1       2.665   5.981  -7.304  0.00  0.00    -0.270 OA
ATOM     33  N   UNL     1       1.861   7.732  -6.195  0.00  0.00    -0.325 N 
ATOM     34  H   UNL     1       1.350   8.069  -5.442  0.00  0.00    +0.145 HD
ATOM     35  H   UNL     1       2.253   8.351  -6.831  0.00  0.00    +0.145 HD
ENDBRANCH  23  31
ENDBRANCH  20  22
ENDBRANCH   2  18
BRANCH   2  36
ATOM     36  C   UNL     1       5.995   6.295  -3.047  0.00  0.00    +0.104 C 
ATOM     37  N   UNL     1       6.556   7.106  -3.610  0.00  0.00    -0.191 NA
ENDBRANCH   2  36
TORSDOF 7
