REMARK  Name = ZINC60381832
REMARK  10 active torsions:
REMARK  status: ('A' for Active; 'I' for Inactive)
REMARK    1  A    between atoms: C_1  and  C_2
REMARK    2  A    between atoms: C_5  and  O_8
REMARK    3  A    between atoms: O_8  and  C_9
REMARK    4  A    between atoms: C_9  and  C_10
REMARK    5  A    between atoms: C_12  and  C_15
REMARK    6  A    between atoms: C_15  and  N_16
REMARK    7  A    between atoms: C_19  and  C_23
REMARK    8  A    between atoms: C_19  and  C_24
REMARK    9  A    between atoms: C_26  and  C_30
REMARK   10  A    between atoms: C_28  and  C_29
REMARK                            x       y       z     vdW  Elec       q    Type
REMARK                         _______ _______ _______ _____ _____    ______ ____
ROOT
ATOM      1  N   UNL     1       2.501  -9.684  -0.550  0.00  0.00    -0.218 N 
ATOM      2  C   UNL     1       2.130 -10.621  -1.445  0.00  0.00    +0.251 C 
ATOM      3  O   UNL     1       1.514 -11.642  -1.224  0.00  0.00    -0.272 OA
ATOM      4  C   UNL     1       2.642 -10.134  -2.786  0.00  0.00    +0.138 C 
ATOM      5  N   UNL     1       3.304  -8.859  -2.460  0.00  0.00    -0.281 N 
ATOM      6  C   UNL     1       3.165  -8.680  -1.134  0.00  0.00    +0.310 C 
ATOM      7  O   UNL     1       3.597  -7.716  -0.533  0.00  0.00    -0.252 OA
ATOM      8  C   UNL     1       1.481  -9.905  -3.755  0.00  0.00    +0.047 C 
ATOM      9  H   UNL     1       3.751  -8.263  -3.082  0.00  0.00    +0.152 HD
ENDROOT
BRANCH   4  10
ATOM     10  C   UNL     1       3.631 -11.113  -3.363  0.00  0.00    +0.025 A 
ATOM     11  C   UNL     1       3.567 -11.724  -4.636  0.00  0.00    +0.051 A 
ATOM     12  C   UNL     1       4.646 -12.520  -4.742  0.00  0.00    +0.103 A 
ATOM     13  O   UNL     1       5.356 -12.425  -3.606  0.00  0.00    -0.465 OA
ATOM     14  C   UNL     1       4.748 -11.569  -2.768  0.00  0.00    +0.108 A 
ATOM     15  C   UNL     1       5.234 -11.187  -1.393  0.00  0.00    +0.086 C 
ATOM     16  C   UNL     1       4.998 -13.375  -5.932  0.00  0.00    +0.086 C 
ENDBRANCH   4  10
BRANCH   1  17
ATOM     17  C   UNL     1       2.207  -9.753   0.883  0.00  0.00    +0.173 C 
BRANCH  17  20
ATOM     18  C   UNL     1      -0.370  -7.219   1.577  0.00  0.00    +0.116 A 
ATOM     19  N   UNL     1       0.784  -7.790   1.340  0.00  0.00    -0.244 NA
ATOM     20  C   UNL     1       0.881  -9.092   1.157  0.00  0.00    +0.067 A 
ATOM     21  C   UNL     1      -0.269  -9.809   1.226  0.00  0.00    +0.072 A 
ATOM     22  S   UNL     1      -1.447  -8.512   1.569  0.00  0.00    -0.077 S 
BRANCH  18  23
ATOM     23  C   UNL     1      -0.662  -5.758   1.808  0.00  0.00    +0.291 C 
BRANCH  23  24
ATOM     24  O   UNL     1      -0.948  -5.126   0.559  0.00  0.00    -0.485 OA
BRANCH  24  29
ATOM     25  C   UNL     1      -2.138   0.377   0.691  0.00  0.00    +0.044 C 
ATOM     26  C   UNL     1      -1.819  -1.095   0.655  0.00  0.00    -0.050 A 
ATOM     27  C   UNL     1      -1.813  -1.771  -0.551  0.00  0.00    +0.007 A 
ATOM     28  C   UNL     1      -1.521  -3.121  -0.586  0.00  0.00    +0.046 A 
ATOM     29  C   UNL     1      -1.234  -3.798   0.590  0.00  0.00    +0.121 A 
ATOM     30  C   UNL     1      -1.241  -3.118   1.799  0.00  0.00    +0.046 A 
ATOM     31  C   UNL     1      -1.528  -1.766   1.828  0.00  0.00    +0.007 A 
ENDBRANCH  24  29
ENDBRANCH  23  24
ENDBRANCH  18  23
ENDBRANCH  17  20
ENDBRANCH   1  17
TORSDOF 6
