REMARK  Name = ZINC14535113
REMARK  10 active torsions:
REMARK  status: ('A' for Active; 'I' for Inactive)
REMARK    1  A    between atoms: C_1  and  C_2
REMARK    2  A    between atoms: C_4  and  C_8
REMARK    3  A    between atoms: C_8  and  N_9
REMARK    4  A    between atoms: N_9  and  C_10
REMARK    5  A    between atoms: C_12  and  C_22
REMARK    6  A    between atoms: C_14  and  S_16
REMARK    7  A    between atoms: S_16  and  N_19
REMARK    8  A    between atoms: N_19  and  C_20
REMARK    9  A    between atoms: N_19  and  C_21
REMARK   10  A    between atoms: C_28  and  C_31
REMARK                            x       y       z     vdW  Elec       q    Type
REMARK                         _______ _______ _______ _____ _____    ______ ____
ROOT
ATOM      1  C   UNL     1      -1.162   1.647  -6.964  0.00  0.00    +0.030 A 
ATOM      2  C   UNL     1      -0.936   2.893  -7.532  0.00  0.00    +0.036 A 
ATOM      3  C   UNL     1      -0.418   2.981  -8.824  0.00  0.00    +0.040 A 
ATOM      4  C   UNL     1      -0.131   1.815  -9.537  0.00  0.00    +0.041 A 
ATOM      5  C   UNL     1      -0.360   0.581  -8.964  0.00  0.00    +0.108 A 
ATOM      6  C   UNL     1      -0.868   0.493  -7.681  0.00  0.00    +0.051 A 
ENDROOT
BRANCH   3   7
ATOM      7  C   UNL     1      -0.174   4.304  -9.436  0.00  0.00    +0.247 C 
ATOM      8  O   UNL     1      -0.452   4.494 -10.604  0.00  0.00    -0.270 OA
ATOM      9  N   UNL     1       0.355   5.301  -8.700  0.00  0.00    -0.297 N 
ATOM     10  C   UNL     1       0.820   5.052  -7.328  0.00  0.00    +0.108 C 
ATOM     11  C   UNL     1       2.270   5.530  -7.204  0.00  0.00    +0.020 C 
ATOM     12  C   UNL     1       2.359   6.994  -7.642  0.00  0.00    +0.016 C 
ATOM     13  C   UNL     1       1.934   7.116  -9.107  0.00  0.00    +0.092 C 
ATOM     14  C   UNL     1       0.486   6.655  -9.255  0.00  0.00    +0.120 C 
BRANCH  13  15
ATOM     15  C   UNL     1       2.054   8.553  -9.547  0.00  0.00    +0.215 C 
ATOM     16  O   UNL     1       2.442   9.396  -8.766  0.00  0.00    -0.276 OA
ATOM     17  N   UNL     1       1.731   8.900 -10.808  0.00  0.00    -0.329 N 
ATOM     18  H   UNL     1       1.421   8.226 -11.433  0.00  0.00    +0.145 HD
ATOM     19  H   UNL     1       1.808   9.825 -11.091  0.00  0.00    +0.145 HD
ENDBRANCH  13  15
ENDBRANCH   3   7
BRANCH   5  20
ATOM     20  S   UNL     1       0.002  -0.887  -9.867  0.00  0.00    +0.060 S 
ATOM     21  O   UNL     1      -0.811  -1.914  -9.316  0.00  0.00    -0.153 OA
ATOM     22  O   UNL     1      -0.040  -0.538 -11.244  0.00  0.00    -0.153 OA
BRANCH  20  23
ATOM     23  N   UNL     1       1.571  -1.295  -9.530  0.00  0.00    -0.183 NA
ATOM     24  C   UNL     1       1.872  -2.176  -8.398  0.00  0.00    +0.131 C 
ATOM     25  C   UNL     1       2.659  -0.774 -10.362  0.00  0.00    +0.131 C 
ENDBRANCH  20  23
ENDBRANCH   5  20
BRANCH   1  26
ATOM     26  N   UNL     1      -1.680   1.554  -5.670  0.00  0.00    -0.338 N 
ATOM     27  H   UNL     1      -1.835   0.683  -5.272  0.00  0.00    +0.146 HD
BRANCH  26  28
ATOM     28  C   UNL     1      -1.990   2.770  -4.915  0.00  0.00    +0.156 C 
BRANCH  28  32
ATOM     29  C   UNL     1      -2.171   1.463  -0.081  0.00  0.00    +0.084 C 
ATOM     30  C   UNL     1      -2.601   1.833  -1.477  0.00  0.00    +0.081 A 
ATOM     31  N   UNL     1      -1.802   2.114  -2.470  0.00  0.00    -0.346 N 
ATOM     32  C   UNL     1      -2.531   2.396  -3.559  0.00  0.00    +0.051 A 
ATOM     33  H   UNL     1      -4.676   1.763  -1.384  0.00  0.00    +0.166 HD
ATOM     34  C   UNL     1      -3.832   2.285  -3.230  0.00  0.00    +0.106 A 
ATOM     35  N   UNL     1      -3.877   1.923  -1.910  0.00  0.00    -0.350 N 
ATOM     36  H   UNL     1      -0.833   2.118  -2.426  0.00  0.00    +0.167 HD
ENDBRANCH  28  32
ENDBRANCH  26  28
ENDBRANCH   1  26
TORSDOF 7
