REMARK  Name = ZINC39856377
REMARK  9 active torsions:
REMARK  status: ('A' for Active; 'I' for Inactive)
REMARK    1  A    between atoms: C_1  and  C_2
REMARK    2  A    between atoms: C_4  and  C_31
REMARK    3  A    between atoms: C_5  and  N_11
REMARK    4  A    between atoms: C_6  and  N_8
REMARK    5  A    between atoms: C_12  and  C_14
REMARK    6  A    between atoms: C_15  and  C_30
REMARK    7  A    between atoms: C_20  and  C_28
REMARK    8  A    between atoms: C_20  and  C_29
REMARK    9  A    between atoms: N_23  and  N_24
REMARK                            x       y       z     vdW  Elec       q    Type
REMARK                         _______ _______ _______ _____ _____    ______ ____
ROOT
ATOM      1  C   UNL     1      -0.493  -6.332   0.814  0.00  0.00    +0.193 A 
ATOM      2  C   UNL     1      -0.485  -7.195   1.874  0.00  0.00    +0.009 A 
ATOM      3  C   UNL     1      -0.771  -8.462   1.350  0.00  0.00    +0.042 A 
ATOM      4  C   UNL     1      -0.939  -8.318  -0.007  0.00  0.00    +0.116 A 
ATOM      5  O   UNL     1      -0.776  -7.032  -0.308  0.00  0.00    -0.454 OA
ATOM      6  C   UNL     1      -1.256  -9.475  -0.921  0.00  0.00    +0.081 C 
ATOM      7  C   UNL     1      -0.852 -10.786  -0.241  0.00  0.00    -0.023 C 
ATOM      8  C   UNL     1      -1.478 -10.886   1.154  0.00  0.00    +0.064 C 
ATOM      9  C   UNL     1      -0.897  -9.777   2.018  0.00  0.00    +0.071 C 
ATOM     10  N   UNL     1      -0.539  -9.969   3.249  0.00  0.00    -0.183 NA
ATOM     11  C   UNL     1      -1.329 -11.963  -1.094  0.00  0.00    +0.011 C 
ATOM     12  C   UNL     1       0.671 -10.840  -0.115  0.00  0.00    +0.011 C 
ATOM     13  C   UNL     1      -0.221  -6.852   3.318  0.00  0.00    +0.048 C 
ENDROOT
BRANCH  10  14
ATOM     14  N   UNL     1      -0.682 -11.236   3.831  0.00  0.00    -0.191 N 
ATOM     15  C   UNL     1      -0.309 -11.435   5.110  0.00  0.00    +0.317 C 
ATOM     16  O   UNL     1      -0.433 -12.535   5.615  0.00  0.00    -0.251 OA
ATOM     17  N   UNL     1       0.201 -10.417   5.831  0.00  0.00    -0.312 N 
ATOM     18  H   UNL     1      -1.048 -11.969   3.312  0.00  0.00    +0.179 HD
ATOM     19  H   UNL     1       0.299  -9.540   5.428  0.00  0.00    +0.147 HD
ATOM     20  H   UNL     1       0.469 -10.560   6.752  0.00  0.00    +0.147 HD
ENDBRANCH  10  14
BRANCH   1  22
ATOM     21  N   UNL     1      -0.285  -4.143  -0.239  0.00  0.00    -0.277 N 
ATOM     22  C   UNL     1      -0.243  -4.888   0.883  0.00  0.00    +0.284 C 
ATOM     23  O   UNL     1       0.003  -4.364   1.953  0.00  0.00    -0.266 OA
ATOM     24  H   UNL     1      -0.400  -4.571  -1.102  0.00  0.00    +0.155 HD
BRANCH  21  29
ATOM     25  C   UNL     1       0.211   1.499   0.083  0.00  0.00    +0.044 C 
ATOM     26  C   UNL     1       0.079  -0.000  -0.003  0.00  0.00    -0.048 A 
ATOM     27  C   UNL     1       1.072  -0.811   0.517  0.00  0.00    +0.008 A 
ATOM     28  C   UNL     1       0.954  -2.185   0.441  0.00  0.00    -0.027 A 
ATOM     29  C   UNL     1      -0.163  -2.752  -0.160  0.00  0.00    +0.067 A 
ATOM     30  C   UNL     1      -1.157  -1.935  -0.681  0.00  0.00    +0.148 A 
ATOM     31  C   UNL     1      -1.036  -0.562  -0.597  0.00  0.00    +0.038 A 
ATOM     32  C   UNL     1       2.036  -3.067   1.008  0.00  0.00    +0.046 C 
BRANCH  30  33
ATOM     33  N   UNL     1      -2.349  -2.535  -1.323  0.00  0.00    +0.058 N 
ATOM     34  O   UNL     1      -3.168  -1.827  -1.860  0.00  0.00    -0.126 OA
ATOM     35  O   UNL     1      -2.503  -3.734  -1.309  0.00  0.00    -0.126 OA
ENDBRANCH  30  33
ENDBRANCH  21  29
ENDBRANCH   1  22
TORSDOF 4
