REMARK  Name = ZINC13063810
REMARK  10 active torsions:
REMARK  status: ('A' for Active; 'I' for Inactive)
REMARK    1  A    between atoms: C_1  and  C_2
REMARK    2  A    between atoms: C_2  and  C_3
REMARK    3  A    between atoms: C_3  and  C_5
REMARK    4  A    between atoms: C_3  and  N_69
REMARK    5  A    between atoms: N_9  and  C_10
REMARK    6  A    between atoms: C_15  and  C_16
REMARK    7  A    between atoms: C_15  and  N_69
REMARK    8  A    between atoms: C_25  and  C_26
REMARK    9  A    between atoms: C_25  and  N_69
REMARK   10  A    between atoms: C_31  and  C_38
REMARK                            x       y       z     vdW  Elec       q    Type
REMARK                         _______ _______ _______ _____ _____    ______ ____
ROOT
ATOM      1  N   UNL     1      -0.149   1.902  -1.379  0.00  0.00    +0.392 N 
ATOM      2  H   UNL     1       0.129   2.888  -1.445  0.00  0.00    -0.080 HD
ENDROOT
BRANCH   1   3
ATOM      3  C   UNL     1      -1.555   1.770  -1.816  0.00  0.00    +0.003 C 
BRANCH   3   4
ATOM      4  C   UNL     1      -2.282   3.048  -1.488  0.00  0.00    +0.138 A 
ATOM      5  N   UNL     1      -2.075   3.821  -0.449  0.00  0.00    -0.115 NA
ATOM      6  N   UNL     1      -2.891   4.815  -0.524  0.00  0.00    -0.023 NA
ATOM      7  N   UNL     1      -3.619   4.692  -1.579  0.00  0.00    -0.044 NA
ATOM      8  N   UNL     1      -3.273   3.615  -2.200  0.00  0.00    -0.228 N 
BRANCH   8   9
ATOM      9  C   UNL     1      -3.850   3.105  -3.446  0.00  0.00    +0.111 C 
ATOM     10  C   UNL     1      -3.711   4.160  -4.563  0.00  0.00    +0.027 C 
ATOM     11  C   UNL     1      -5.024   4.027  -5.376  0.00  0.00    +0.002 C 
ATOM     12  C   UNL     1      -6.082   3.763  -4.277  0.00  0.00    +0.002 C 
ATOM     13  C   UNL     1      -5.357   2.852  -3.264  0.00  0.00    +0.027 C 
ENDBRANCH   8   9
ENDBRANCH   3   4
BRANCH   3  15
ATOM     14  C   UNL     1      -1.577  -0.713  -1.536  0.00  0.00    +0.002 C 
ATOM     15  C   UNL     1      -2.229   0.600  -1.097  0.00  0.00    -0.011 C 
ENDBRANCH   3  15
ENDBRANCH   1   3
BRANCH   1  16
ATOM     16  C   UNL     1       0.730   1.096  -2.253  0.00  0.00    -0.041 C 
BRANCH  16  17
ATOM     17  C   UNL     1       0.828   1.771  -3.596  0.00  0.00    -0.060 A 
ATOM     18  C   UNL     1      -0.040   1.416  -4.612  0.00  0.00    +0.005 A 
ATOM     19  C   UNL     1       0.042   2.036  -5.845  0.00  0.00    +0.050 A 
ATOM     20  C   UNL     1       1.004   3.008  -6.069  0.00  0.00    +0.166 A 
ATOM     21  C   UNL     1       1.882   3.362  -5.047  0.00  0.00    +0.166 A 
ATOM     22  C   UNL     1       1.790   2.740  -3.813  0.00  0.00    +0.051 A 
ATOM     23  O   UNL     1       2.725   4.330  -5.512  0.00  0.00    -0.453 OA
ATOM     24  C   UNL     1       2.620   4.274  -6.947  0.00  0.00    +0.466 C 
ATOM     25  O   UNL     1       1.296   3.755  -7.173  0.00  0.00    -0.453 OA
ENDBRANCH  16  17
ENDBRANCH   1  16
BRANCH   1  26
ATOM     26  C   UNL     1      -0.012   1.456   0.024  0.00  0.00    -0.036 C 
BRANCH  26  27
ATOM     27  C   UNL     1      -0.581   2.521   0.926  0.00  0.00    +0.001 A 
ATOM     28  C   UNL     1      -1.735   2.290   1.599  0.00  0.00    +0.017 A 
ATOM     29  C   UNL     1      -2.261   3.344   2.468  0.00  0.00    -0.001 A 
ATOM     30  C   UNL     1      -3.447   3.164   3.188  0.00  0.00    +0.010 A 
ATOM     31  C   UNL     1      -3.911   4.168   3.991  0.00  0.00    +0.004 A 
ATOM     32  C   UNL     1      -3.216   5.365   4.098  0.00  0.00    -0.048 A 
ATOM     33  C   UNL     1      -2.046   5.564   3.399  0.00  0.00    +0.029 A 
ATOM     34  C   UNL     1      -1.554   4.557   2.575  0.00  0.00    +0.049 A 
ATOM     35  N   UNL     1      -0.385   4.729   1.864  0.00  0.00    -0.322 N 
ATOM     36  H   UNL     1       0.101   5.565   1.939  0.00  0.00    +0.169 HD
ATOM     37  C   UNL     1       0.093   3.752   1.073  0.00  0.00    +0.251 A 
ATOM     38  O   UNL     1       1.132   3.937   0.462  0.00  0.00    -0.268 OA
ATOM     39  C   UNL     1      -3.747   6.458   4.990  0.00  0.00    +0.044 C 
ENDBRANCH  26  27
ENDBRANCH   1  26
TORSDOF 8
