REMARK  Name = ZINC31557930
REMARK  8 active torsions:
REMARK  status: ('A' for Active; 'I' for Inactive)
REMARK    1  A    between atoms: C_3  and  C_6
REMARK    2  A    between atoms: C_6  and  N_7
REMARK    3  A    between atoms: C_8  and  C_10
REMARK    4  A    between atoms: N_15  and  C_16
REMARK    5  A    between atoms: C_16  and  C_17
REMARK    6  A    between atoms: N_19  and  C_20
REMARK    7  A    between atoms: C_20  and  C_22
REMARK    8  A    between atoms: C_20  and  C_29
REMARK                            x       y       z     vdW  Elec       q    Type
REMARK                         _______ _______ _______ _____ _____    ______ ____
ROOT
ATOM      1  C   UNL     1      -1.330   1.944   0.019  0.00  0.00    +0.020 C 
ENDROOT
BRANCH   1   6
ATOM      2  C   UNL     1      -3.727   1.645  -0.228  0.00  0.00    +0.020 C 
ATOM      3  C   UNL     1      -4.756   0.837   0.602  0.00  0.00    -0.008 C 
ATOM      4  C   UNL     1      -3.931   0.488   1.869  0.00  0.00    -0.020 C 
ATOM      5  C   UNL     1      -2.511   0.263   1.308  0.00  0.00    -0.077 C 
ATOM      6  N   UNL     1      -2.433   0.975   0.019  0.00  0.00    +0.393 N 
ATOM      7  H   UNL     1      -2.225   0.256  -0.788  0.00  0.00    -0.080 HD
BRANCH   2   9
ATOM      8  N   UNL     1      -5.222   2.145  -2.135  0.00  0.00    -0.310 N 
ATOM      9  C   UNL     1      -4.076   1.589  -1.693  0.00  0.00    +0.200 C 
ATOM     10  O   UNL     1      -3.326   1.045  -2.475  0.00  0.00    -0.278 OA
ATOM     11  H   UNL     1      -5.902   2.639  -1.426  0.00  0.00    +0.149 HD
BRANCH   8  12
ATOM     12  C   UNL     1      -5.561   2.091  -3.559  0.00  0.00    +0.178 C 
BRANCH  12  15
ATOM     13  C   UNL     1      -8.442   4.297  -4.201  0.00  0.00    +0.041 A 
ATOM     14  C   UNL     1      -7.051   4.085  -4.061  0.00  0.00    +0.046 A 
ATOM     15  C   UNL     1      -6.882   2.779  -3.788  0.00  0.00    +0.122 A 
ATOM     16  O   UNL     1      -8.090   2.194  -3.747  0.00  0.00    -0.466 OA
ATOM     17  C   UNL     1      -9.040   3.110  -3.997  0.00  0.00    +0.195 A 
ENDBRANCH  12  15
ENDBRANCH   8  12
ENDBRANCH   2   9
ENDBRANCH   1   6
BRANCH   1  18
ATOM     18  C   UNL     1      -0.014   1.209   0.009  0.00  0.00    +0.197 C 
ATOM     19  O   UNL     1       0.002  -0.004   0.002  0.00  0.00    -0.278 OA
ATOM     20  N   UNL     1       1.143   1.898   0.001  0.00  0.00    -0.306 N 
ATOM     21  H   UNL     1       1.129   2.998   0.007  0.00  0.00    +0.150 HD
BRANCH  20  22
ATOM     22  C   UNL     1       2.422   1.183  -0.015  0.00  0.00    +0.140 C 
BRANCH  22  23
ATOM     23  C   UNL     1       3.495   2.058   0.580  0.00  0.00    -0.022 A 
ATOM     24  C   UNL     1       3.524   3.410   0.289  0.00  0.00    +0.008 A 
ATOM     25  C   UNL     1       4.504   4.215   0.839  0.00  0.00    +0.038 A 
ATOM     26  C   UNL     1       5.464   3.665   1.672  0.00  0.00    +0.123 A 
ATOM     27  C   UNL     1       5.437   2.310   1.958  0.00  0.00    +0.038 A 
ATOM     28  C   UNL     1       4.452   1.509   1.412  0.00  0.00    +0.008 A 
ATOM     29  F   UNL     1       6.426   4.449   2.204  0.00  0.00    -0.205 F 
ENDBRANCH  22  23
BRANCH  22  30
ATOM     30  C   UNL     1       2.786   0.838  -1.435  0.00  0.00    +0.014 A 
ATOM     31  C   UNL     1       3.342  -0.299  -1.922  0.00  0.00    +0.013 A 
ATOM     32  C   UNL     1       3.591  -0.397  -3.278  0.00  0.00    +0.008 A 
ATOM     33  C   UNL     1       3.272   0.647  -4.082  0.00  0.00    +0.045 A 
ATOM     34  S   UNL     1       2.591   1.816  -2.916  0.00  0.00    -0.099 S 
ENDBRANCH  22  30
ENDBRANCH  20  22
ENDBRANCH   1  18
TORSDOF 8
