REMARK  Name = ZINC67000561
REMARK  6 active torsions:
REMARK  status: ('A' for Active; 'I' for Inactive)
REMARK    1  A    between atoms: C_1  and  O_2
REMARK    2  A    between atoms: O_2  and  C_3
REMARK    3  A    between atoms: C_13  and  C_15
REMARK    4  A    between atoms: N_17  and  C_18
REMARK    5  A    between atoms: C_18  and  C_19
REMARK    6  A    between atoms: C_19  and  O_29
REMARK                            x       y       z     vdW  Elec       q    Type
REMARK                         _______ _______ _______ _____ _____    ______ ____
ROOT
ATOM      1  C   UNL     1       2.387  -2.920  -0.258  0.00  0.00    +0.300 C 
ATOM      2  O   UNL     1       2.367  -4.102   0.015  0.00  0.00    -0.265 OA
ATOM      3  N   UNL     1       3.565  -2.291  -0.443  0.00  0.00    -0.304 N 
ATOM      4  H   UNL     1       3.581  -1.346  -0.661  0.00  0.00    +0.149 HD
ENDROOT
BRANCH   1  15
ATOM      5  C   UNL     1      -1.137  -0.851   0.600  0.00  0.00    +0.142 A 
ATOM      6  C   UNL     1      -2.283  -0.156   0.950  0.00  0.00    +0.047 A 
ATOM      7  C   UNL     1      -3.524  -0.733   0.756  0.00  0.00    +0.004 A 
ATOM      8  C   UNL     1      -3.625  -2.000   0.216  0.00  0.00    +0.006 A 
ATOM      9  C   UNL     1      -2.486  -2.705  -0.137  0.00  0.00    -0.022 A 
ATOM     10  C   UNL     1      -1.240  -2.128   0.047  0.00  0.00    +0.082 A 
ATOM     11  N   UNL     1      -0.071  -2.811  -0.315  0.00  0.00    -0.260 N 
ATOM     12  C   UNL     1      -0.152  -4.247  -0.614  0.00  0.00    +0.114 C 
ATOM     13  C   UNL     1      -1.379  -4.471  -1.508  0.00  0.00    +0.024 C 
ATOM     14  C   UNL     1      -2.635  -4.086  -0.718  0.00  0.00    +0.038 C 
ATOM     15  C   UNL     1       1.107  -2.161  -0.387  0.00  0.00    +0.306 C 
ATOM     16  O   UNL     1       1.129  -0.960  -0.558  0.00  0.00    -0.265 OA
BRANCH   5  18
ATOM     17  C   UNL     1       0.115   1.022   1.359  0.00  0.00    +0.277 C 
ATOM     18  O   UNL     1       0.086  -0.288   0.789  0.00  0.00    -0.493 OA
ENDBRANCH   5  18
ENDBRANCH   1  15
BRANCH   3  19
ATOM     19  C   UNL     1       4.821  -3.035  -0.316  0.00  0.00    +0.144 C 
BRANCH  19  20
ATOM     20  C   UNL     1       6.001  -2.069  -0.439  0.00  0.00    +0.107 C 
ATOM     21  C   UNL     1       5.854  -0.960   0.600  0.00  0.00    +0.041 C 
ATOM     22  C   UNL     1       7.144  -0.131   0.609  0.00  0.00    +0.008 C 
ATOM     23  C   UNL     1       8.260  -0.985   1.208  0.00  0.00    +0.035 C 
ATOM     24  C   UNL     1       8.325  -2.326   0.525  0.00  0.00    -0.041 A 
ATOM     25  C   UNL     1       7.286  -2.826  -0.228  0.00  0.00    -0.011 A 
ATOM     26  C   UNL     1       7.408  -4.073  -0.826  0.00  0.00    +0.007 A 
ATOM     27  C   UNL     1       8.562  -4.814  -0.675  0.00  0.00    +0.000 A 
ATOM     28  C   UNL     1       9.606  -4.311   0.078  0.00  0.00    +0.000 A 
ATOM     29  C   UNL     1       9.486  -3.072   0.675  0.00  0.00    +0.004 A 
BRANCH  20  30
ATOM     30  O   UNL     1       6.003  -1.492  -1.746  0.00  0.00    -0.382 OA
ATOM     31  H   UNL     1       6.085  -2.138  -2.461  0.00  0.00    +0.211 HD
ENDBRANCH  20  30
ENDBRANCH  19  20
ENDBRANCH   3  19
TORSDOF 5
