REMARK  Name = ZINC06135200
REMARK  9 active torsions:
REMARK  status: ('A' for Active; 'I' for Inactive)
REMARK    1  A    between atoms: C_1  and  C_2
REMARK    2  A    between atoms: C_2  and  C_3
REMARK    3  A    between atoms: C_10  and  C_15
REMARK    4  A    between atoms: C_15  and  C_17
REMARK    5  A    between atoms: C_15  and  N_78
REMARK    6  A    between atoms: N_21  and  C_22
REMARK    7  A    between atoms: N_30  and  C_33
REMARK    8  A    between atoms: C_35  and  C_40
REMARK    9  A    between atoms: C_38  and  C_39
REMARK                            x       y       z     vdW  Elec       q    Type
REMARK                         _______ _______ _______ _____ _____    ______ ____
ROOT
ATOM      1  C   UNL     1       5.213   6.997   0.031  0.00  0.00    +0.039 C 
ENDROOT
BRANCH   1   9
ATOM      2  C   UNL     1       5.462  12.428   2.986  0.00  0.00    -0.047 A 
ATOM      3  C   UNL     1       5.356  11.912   4.270  0.00  0.00    +0.005 A 
ATOM      4  C   UNL     1       5.242  10.554   4.475  0.00  0.00    +0.026 A 
ATOM      5  C   UNL     1       5.235   9.690   3.385  0.00  0.00    +0.049 A 
ATOM      6  C   UNL     1       5.343  10.217   2.084  0.00  0.00    -0.001 A 
ATOM      7  C   UNL     1       5.456  11.599   1.901  0.00  0.00    +0.013 A 
ATOM      8  C   UNL     1       5.340   9.299   0.944  0.00  0.00    +0.017 A 
ATOM      9  C   UNL     1       5.224   7.969   1.183  0.00  0.00    +0.011 A 
ATOM     10  C   UNL     1       5.118   7.492   2.507  0.00  0.00    +0.251 A 
ATOM     11  O   UNL     1       5.018   6.292   2.700  0.00  0.00    -0.268 OA
ATOM     12  N   UNL     1       5.124   8.327   3.561  0.00  0.00    -0.322 N 
ATOM     13  H   UNL     1       5.048   7.954   4.485  0.00  0.00    +0.169 HD
BRANCH   2  15
ATOM     14  C   UNL     1       4.189  14.529   2.645  0.00  0.00    +0.009 C 
ATOM     15  C   UNL     1       5.584  13.917   2.787  0.00  0.00    +0.032 C 
ENDBRANCH   2  15
ENDBRANCH   1   9
BRANCH   1  21
ATOM     16  C   UNL     1       2.792   6.953   0.092  0.00  0.00    -0.058 C 
ATOM     17  C   UNL     1       1.578   6.038   0.267  0.00  0.00    +0.086 C 
ATOM     18  N   UNL     1       1.568   5.032  -0.804  0.00  0.00    -0.333 N 
ATOM     19  C   UNL     1       2.795   4.224  -0.776  0.00  0.00    +0.086 C 
ATOM     20  C   UNL     1       4.009   5.139  -0.951  0.00  0.00    -0.058 C 
ATOM     21  N   UNL     1       4.020   6.131   0.145  0.00  0.00    +0.391 N 
ATOM     22  H   UNL     1       4.052   5.636   1.044  0.00  0.00    -0.080 HD
BRANCH  18  23
ATOM     23  C   UNL     1       0.433   4.222  -0.719  0.00  0.00    +0.033 A 
ATOM     24  C   UNL     1       0.203   3.464   0.422  0.00  0.00    +0.026 A 
ATOM     25  C   UNL     1      -0.920   2.664   0.503  0.00  0.00    -0.049 A 
ATOM     26  C   UNL     1      -1.817   2.621  -0.549  0.00  0.00    +0.004 A 
ATOM     27  C   UNL     1      -1.588   3.370  -1.688  0.00  0.00    +0.005 A 
ATOM     28  C   UNL     1      -0.467   4.172  -1.775  0.00  0.00    -0.029 A 
ATOM     29  C   UNL     1      -0.222   4.993  -3.015  0.00  0.00    +0.045 C 
ATOM     30  C   UNL     1      -1.170   1.841   1.740  0.00  0.00    +0.044 C 
ENDBRANCH  18  23
ENDBRANCH   1  21
BRANCH   1  31
ATOM     31  C   UNL     1       6.449   6.138   0.088  0.00  0.00    +0.143 A 
ATOM     32  N   UNL     1       6.679   5.151   0.919  0.00  0.00    -0.115 NA
ATOM     33  N   UNL     1       7.841   4.665   0.649  0.00  0.00    -0.023 NA
ATOM     34  N   UNL     1       8.362   5.321  -0.328  0.00  0.00    -0.044 NA
ATOM     35  N   UNL     1       7.535   6.238  -0.702  0.00  0.00    -0.227 N 
BRANCH  35  36
ATOM     36  C   UNL     1       7.737   7.205  -1.783  0.00  0.00    +0.111 C 
ATOM     37  C   UNL     1       7.941   6.459  -3.104  0.00  0.00    +0.027 C 
ATOM     38  C   UNL     1       8.153   7.469  -4.233  0.00  0.00    +0.002 C 
ATOM     39  C   UNL     1       9.389   8.319  -3.932  0.00  0.00    +0.000 C 
ATOM     40  C   UNL     1       9.186   9.065  -2.611  0.00  0.00    +0.002 C 
ATOM     41  C   UNL     1       8.974   8.055  -1.482  0.00  0.00    +0.027 C 
ENDBRANCH  35  36
ENDBRANCH   1  31
TORSDOF 6
