REMARK  Name = ZINC00715269
REMARK  6 active torsions:
REMARK  status: ('A' for Active; 'I' for Inactive)
REMARK    1  A    between atoms: C_4  and  C_7
REMARK    2  A    between atoms: C_7  and  C_9
REMARK    3  A    between atoms: C_11  and  C_23
REMARK    4  A    between atoms: C_17  and  C_18
REMARK    5  A    between atoms: C_17  and  O_22
REMARK    6  A    between atoms: C_26  and  O_29
REMARK                            x       y       z     vdW  Elec       q    Type
REMARK                         _______ _______ _______ _____ _____    ______ ____
ROOT
ATOM      1  C   UNL     1       5.013   0.130  -0.037  0.00  0.00    +0.144 C 
ATOM      2  C   UNL     1       6.295  -0.389   0.622  0.00  0.00    +0.120 C 
ATOM      3  N   UNL     1       6.574  -1.740   0.132  0.00  0.00    -0.292 N 
ATOM      4  C   UNL     1       6.187  -2.133  -1.091  0.00  0.00    +0.302 C 
ATOM      5  O   UNL     1       6.454  -3.263  -1.452  0.00  0.00    -0.253 OA
ATOM      6  N   UNL     1       5.518  -1.329  -1.930  0.00  0.00    -0.264 N 
ATOM      7  C   UNL     1       5.177   0.046  -1.558  0.00  0.00    +0.243 C 
ATOM      8  H   UNL     1       7.049  -2.364   0.704  0.00  0.00    +0.151 HD
ATOM      9  H   UNL     1       5.253  -1.665  -2.800  0.00  0.00    +0.153 HD
ENDROOT
BRANCH   2  10
ATOM     10  C   UNL     1       7.444   0.522   0.272  0.00  0.00    -0.026 A 
ATOM     11  C   UNL     1       8.490   0.049  -0.499  0.00  0.00    +0.009 A 
ATOM     12  C   UNL     1       9.541   0.883  -0.826  0.00  0.00    +0.046 A 
ATOM     13  C   UNL     1       9.553   2.193  -0.370  0.00  0.00    +0.117 A 
ATOM     14  C   UNL     1       8.506   2.664   0.408  0.00  0.00    +0.046 A 
ATOM     15  C   UNL     1       7.454   1.827   0.727  0.00  0.00    +0.009 A 
BRANCH  13  16
ATOM     16  O   UNL     1      10.589   3.014  -0.686  0.00  0.00    -0.507 OA
ATOM     17  H   UNL     1      11.315   2.994  -0.048  0.00  0.00    +0.292 HD
ENDBRANCH  13  16
ENDBRANCH   2  10
BRANCH   7  18
ATOM     18  C   UNL     1       3.867   0.449  -2.238  0.00  0.00    +0.436 C 
ATOM     19  F   UNL     1       3.457   1.697  -1.756  0.00  0.00    -0.166 F 
ATOM     20  F   UNL     1       4.063   0.525  -3.621  0.00  0.00    -0.166 F 
ATOM     21  F   UNL     1       2.883  -0.505  -1.957  0.00  0.00    -0.166 F 
ENDBRANCH   7  18
BRANCH   1  22
ATOM     22  C   UNL     1       3.844  -0.720   0.393  0.00  0.00    +0.173 C 
ATOM     23  O   UNL     1       3.688  -1.823  -0.086  0.00  0.00    -0.292 OA
BRANCH  22  27
ATOM     24  C   UNL     1       1.103   0.749   3.277  0.00  0.00    +0.000 A 
ATOM     25  C   UNL     1       2.239   1.478   2.973  0.00  0.00    +0.001 A 
ATOM     26  C   UNL     1       3.135   1.008   2.037  0.00  0.00    +0.011 A 
ATOM     27  C   UNL     1       2.893  -0.210   1.393  0.00  0.00    +0.018 A 
ATOM     28  C   UNL     1       1.743  -0.942   1.706  0.00  0.00    +0.011 A 
ATOM     29  C   UNL     1       0.857  -0.458   2.645  0.00  0.00    +0.001 A 
ENDBRANCH  22  27
ENDBRANCH   1  22
BRANCH   7  30
ATOM     30  O   UNL     1       6.222   0.927  -1.975  0.00  0.00    -0.364 OA
ATOM     31  H   UNL     1       6.381   0.925  -2.929  0.00  0.00    +0.212 HD
ENDBRANCH   7  30
TORSDOF 6
