REMARK  Name = ZINC09712925
REMARK  6 active torsions:
REMARK  status: ('A' for Active; 'I' for Inactive)
REMARK    1  A    between atoms: C_4  and  C_7
REMARK    2  A    between atoms: C_7  and  C_8
REMARK    3  A    between atoms: C_8  and  C_30
REMARK    4  A    between atoms: N_11  and  C_15
REMARK    5  A    between atoms: C_15  and  N_72
REMARK    6  A    between atoms: C_18  and  C_21
REMARK                            x       y       z     vdW  Elec       q    Type
REMARK                         _______ _______ _______ _____ _____    ______ ____
ROOT
ATOM      1  C   UNL     1       2.004  -6.928   2.075  0.00  0.00    +0.142 C 
ATOM      2  C   UNL     1       2.496  -5.628   1.472  0.00  0.00    +0.250 C 
ATOM      3  O   UNL     1       2.568  -5.347   0.295  0.00  0.00    -0.272 OA
ATOM      4  N   UNL     1       2.837  -4.848   2.517  0.00  0.00    -0.241 N 
ATOM      5  C   UNL     1       2.631  -5.469   3.684  0.00  0.00    +0.308 C 
ATOM      6  O   UNL     1       2.864  -4.967   4.766  0.00  0.00    -0.252 OA
ATOM      7  N   UNL     1       2.137  -6.710   3.526  0.00  0.00    -0.281 N 
ATOM      8  H   UNL     1       1.913  -7.339   4.229  0.00  0.00    +0.152 HD
ENDROOT
BRANCH   1   9
ATOM      9  C   UNL     1       0.563  -7.172   1.706  0.00  0.00    -0.015 A 
ATOM     10  C   UNL     1      -0.449  -6.607   2.459  0.00  0.00    +0.006 A 
ATOM     11  C   UNL     1      -1.770  -6.831   2.121  0.00  0.00    +0.000 A 
ATOM     12  C   UNL     1      -2.080  -7.619   1.028  0.00  0.00    +0.000 A 
ATOM     13  C   UNL     1      -1.068  -8.184   0.274  0.00  0.00    +0.000 A 
ATOM     14  C   UNL     1       0.254  -7.961   0.614  0.00  0.00    +0.006 A 
ENDBRANCH   1   9
BRANCH   1  15
ATOM     15  C   UNL     1       2.879  -8.099   1.624  0.00  0.00    +0.075 C 
BRANCH  15  19
ATOM     16  C   UNL     1       6.882  -7.492   2.985  0.00  0.00    +0.000 A 
ATOM     17  C   UNL     1       5.956  -8.099   3.812  0.00  0.00    +0.000 A 
ATOM     18  C   UNL     1       4.660  -8.296   3.371  0.00  0.00    +0.004 A 
ATOM     19  C   UNL     1       4.291  -7.885   2.104  0.00  0.00    -0.045 A 
ATOM     20  C   UNL     1       5.219  -7.282   1.275  0.00  0.00    +0.004 A 
ATOM     21  C   UNL     1       6.513  -7.082   1.717  0.00  0.00    +0.000 A 
ENDBRANCH  15  19
ENDBRANCH   1  15
BRANCH   4  22
ATOM     22  C   UNL     1       3.367  -3.488   2.391  0.00  0.00    +0.043 C 
BRANCH  22  28
ATOM     23  C   UNL     1       5.393  -2.230   1.975  0.00  0.00    -0.076 C 
ATOM     24  C   UNL     1       6.908  -2.354   1.796  0.00  0.00    -0.006 C 
ATOM     25  C   UNL     1       7.533  -2.844   3.105  0.00  0.00    +0.072 C 
ATOM     26  C   UNL     1       6.899  -4.182   3.495  0.00  0.00    -0.006 C 
ATOM     27  C   UNL     1       5.385  -4.006   3.624  0.00  0.00    -0.076 C 
ATOM     28  N   UNL     1       4.841  -3.556   2.325  0.00  0.00    +0.391 N 
ATOM     29  H   UNL     1       5.112  -4.231   1.599  0.00  0.00    -0.079 HD
BRANCH  25  30
ATOM     30  C   UNL     1       9.018  -3.025   2.920  0.00  0.00    +0.219 C 
ATOM     31  O   UNL     1       9.454  -3.401   1.852  0.00  0.00    -0.275 OA
ATOM     32  N   UNL     1       9.861  -2.768   3.939  0.00  0.00    -0.301 N 
ATOM     33  C   UNL     1       9.304  -2.428   5.229  0.00  0.00    +0.108 C 
ATOM     34  C   UNL     1       9.096  -0.902   5.326  0.00  0.00    +0.019 C 
ATOM     35  C   UNL     1      10.393  -0.215   5.431  0.00  0.00    +0.002 C 
ATOM     36  C   UNL     1      11.301  -0.399   4.219  0.00  0.00    +0.002 C 
ATOM     37  C   UNL     1      12.076  -1.685   4.365  0.00  0.00    +0.019 C 
ATOM     38  C   UNL     1      11.314  -2.841   3.691  0.00  0.00    +0.108 C 
ENDBRANCH  25  30
ENDBRANCH  22  28
ENDBRANCH   4  22
TORSDOF 6
