REMARK  Name = ZINC67396319
REMARK  6 active torsions:
REMARK  status: ('A' for Active; 'I' for Inactive)
REMARK    1  A    between atoms: C_1  and  C_2
REMARK    2  A    between atoms: C_2  and  C_4
REMARK    3  A    between atoms: C_2  and  N_12
REMARK    4  A    between atoms: C_4  and  C_5
REMARK    5  A    between atoms: C_8  and  O_11
REMARK    6  A    between atoms: C_13  and  C_15
REMARK                            x       y       z     vdW  Elec       q    Type
REMARK                         _______ _______ _______ _____ _____    ______ ____
ROOT
ATOM      1  N   UNL     1      -1.372  -0.511   0.012  0.00  0.00    -0.305 N 
ATOM      2  C   UNL     1      -2.029  -0.655   1.181  0.00  0.00    +0.300 C 
ATOM      3  O   UNL     1      -1.481  -0.365   2.224  0.00  0.00    -0.265 OA
ATOM      4  H   UNL     1      -1.810  -0.743  -0.822  0.00  0.00    +0.149 HD
ENDROOT
BRANCH   2   5
ATOM      5  C   UNL     1      -3.430  -1.172   1.191  0.00  0.00    +0.305 C 
ATOM      6  O   UNL     1      -3.977  -1.462   0.148  0.00  0.00    -0.265 OA
ATOM      7  N   UNL     1      -4.086  -1.316   2.360  0.00  0.00    -0.257 N 
ATOM      8  C   UNL     1      -5.384  -1.795   2.369  0.00  0.00    +0.166 A 
ATOM      9  N   UNL     1      -6.134  -2.164   1.356  0.00  0.00    -0.225 NA
ATOM     10  C   UNL     1      -7.396  -2.616   1.514  0.00  0.00    +0.080 A 
ATOM     11  C   UNL     1      -8.303  -3.041   0.515  0.00  0.00    +0.029 A 
ATOM     12  C   UNL     1      -9.559  -3.475   0.849  0.00  0.00    +0.002 A 
ATOM     13  C   UNL     1      -9.986  -3.513   2.168  0.00  0.00    +0.001 A 
ATOM     14  C   UNL     1      -9.126  -3.105   3.171  0.00  0.00    +0.017 A 
ATOM     15  C   UNL     1      -7.865  -2.669   2.847  0.00  0.00    +0.041 A 
ATOM     16  S   UNL     1      -6.465  -2.077   3.765  0.00  0.00    -0.052 S 
ATOM     17  H   UNL     1      -3.648  -1.084   3.194  0.00  0.00    +0.157 HD
ENDBRANCH   2   5
BRANCH   1  19
ATOM     18  C   UNL     1      -0.019   1.526   0.010  0.00  0.00    +0.028 C 
ATOM     19  C   UNL     1       0.002  -0.004   0.002  0.00  0.00    +0.075 C 
BRANCH  19  20
ATOM     20  C   UNL     1       0.718  -0.497  -1.257  0.00  0.00    +0.057 C 
BRANCH  20  21
ATOM     21  C   UNL     1       0.847  -1.998  -1.206  0.00  0.00    -0.045 A 
ATOM     22  C   UNL     1       1.959  -2.576  -0.620  0.00  0.00    +0.007 A 
ATOM     23  C   UNL     1       2.080  -3.951  -0.572  0.00  0.00    +0.045 A 
ATOM     24  C   UNL     1       1.084  -4.753  -1.112  0.00  0.00    +0.117 A 
ATOM     25  C   UNL     1      -0.030  -4.171  -1.699  0.00  0.00    +0.045 A 
ATOM     26  C   UNL     1      -0.149  -2.795  -1.740  0.00  0.00    +0.007 A 
BRANCH  24  27
ATOM     27  O   UNL     1       1.201  -6.106  -1.067  0.00  0.00    -0.507 OA
ATOM     28  H   UNL     1       0.820  -6.507  -0.274  0.00  0.00    +0.292 HD
ENDBRANCH  24  27
ENDBRANCH  20  21
ENDBRANCH  19  20
ENDBRANCH   1  19
TORSDOF 5
