REMARK  Name = ZINC15900432
REMARK  8 active torsions:
REMARK  status: ('A' for Active; 'I' for Inactive)
REMARK    1  A    between atoms: C_1  and  C_2
REMARK    2  A    between atoms: C_5  and  N_8
REMARK    3  A    between atoms: N_8  and  C_9
REMARK    4  A    between atoms: N_8  and  S_10
REMARK    5  A    between atoms: S_10  and  C_13
REMARK    6  A    between atoms: C_17  and  C_19
REMARK    7  A    between atoms: N_21  and  N_22
REMARK    8  A    between atoms: C_23  and  C_25
REMARK                            x       y       z     vdW  Elec       q    Type
REMARK                         _______ _______ _______ _____ _____    ______ ____
ROOT
ATOM      1  C   UNL     1      -2.515   8.827   6.416  0.00  0.00    +0.109 A 
ATOM      2  C   UNL     1      -2.736   8.567   7.757  0.00  0.00    +0.029 A 
ATOM      3  C   UNL     1      -2.112   7.497   8.372  0.00  0.00    +0.003 A 
ATOM      4  C   UNL     1      -1.269   6.677   7.650  0.00  0.00    +0.013 A 
ATOM      5  C   UNL     1      -1.038   6.937   6.298  0.00  0.00    +0.040 A 
ATOM      6  C   UNL     1      -1.671   8.019   5.684  0.00  0.00    +0.042 A 
ENDROOT
BRANCH   5   7
ATOM      7  C   UNL     1      -0.132   6.066   5.519  0.00  0.00    +0.260 C 
ATOM      8  O   UNL     1       0.063   6.292   4.341  0.00  0.00    -0.269 OA
ATOM      9  N   UNL     1       0.477   5.022   6.116  0.00  0.00    -0.230 N 
ATOM     10  H   UNL     1       0.321   4.842   7.056  0.00  0.00    +0.173 HD
BRANCH   9  11
ATOM     11  N   UNL     1       1.335   4.197   5.377  0.00  0.00    -0.234 N 
ATOM     12  C   UNL     1       1.945   3.154   5.974  0.00  0.00    +0.235 C 
ATOM     13  O   UNL     1       1.750   2.928   7.149  0.00  0.00    -0.274 OA
ATOM     14  H   UNL     1       1.492   4.377   4.437  0.00  0.00    +0.173 HD
BRANCH  12  15
ATOM     15  C   UNL     1       2.868   2.266   5.180  0.00  0.00    +0.049 C 
ATOM     16  C   UNL     1       4.024   3.100   4.624  0.00  0.00    +0.019 C 
ATOM     17  C   UNL     1       4.962   2.199   3.818  0.00  0.00    -0.009 C 
ATOM     18  C   UNL     1       5.517   1.099   4.725  0.00  0.00    +0.007 C 
ATOM     19  C   UNL     1       4.361   0.265   5.281  0.00  0.00    -0.009 C 
ATOM     20  C   UNL     1       3.423   1.166   6.087  0.00  0.00    +0.019 C 
ATOM     21  C   UNL     1       3.588  -0.370   4.124  0.00  0.00    +0.007 C 
ATOM     22  C   UNL     1       3.033   0.730   3.216  0.00  0.00    -0.009 C 
ATOM     23  C   UNL     1       4.188   1.564   2.660  0.00  0.00    +0.007 C 
ATOM     24  C   UNL     1       2.095   1.631   4.023  0.00  0.00    +0.019 C 
ENDBRANCH  12  15
ENDBRANCH   9  11
ENDBRANCH   5   7
BRANCH   1  25
ATOM     25  S   UNL     1      -3.315  10.193   5.642  0.00  0.00    +0.074 S 
ATOM     26  O   UNL     1      -3.744  11.057   6.685  0.00  0.00    -0.150 OA
ATOM     27  O   UNL     1      -2.456  10.628   4.597  0.00  0.00    -0.150 OA
BRANCH  25  28
ATOM     28  N   UNL     1      -4.686   9.611   4.916  0.00  0.00    -0.206 N 
ATOM     29  C   UNL     1      -4.612   9.025   3.576  0.00  0.00    +0.157 C 
BRANCH  28  34
ATOM     30  C   UNL     1      -9.662   9.886   7.621  0.00  0.00    +0.044 C 
ATOM     31  C   UNL     1      -8.340   9.812   6.902  0.00  0.00    -0.050 A 
ATOM     32  C   UNL     1      -8.151  10.523   5.731  0.00  0.00    +0.005 A 
ATOM     33  C   UNL     1      -6.940  10.459   5.070  0.00  0.00    +0.025 A 
ATOM     34  C   UNL     1      -5.911   9.679   5.583  0.00  0.00    +0.051 A 
ATOM     35  C   UNL     1      -6.106   8.962   6.757  0.00  0.00    +0.025 A 
ATOM     36  C   UNL     1      -7.317   9.035   7.415  0.00  0.00    +0.005 A 
ENDBRANCH  28  34
ENDBRANCH  25  28
ENDBRANCH   1  25
TORSDOF 6
