REMARK  Name = ZINC20506901
REMARK  6 active torsions:
REMARK  status: ('A' for Active; 'I' for Inactive)
REMARK    1  A    between atoms: C_1  and  C_2
REMARK    2  A    between atoms: C_5  and  O_12
REMARK    3  A    between atoms: C_8  and  C_10
REMARK    4  A    between atoms: C_8  and  C_11
REMARK    5  A    between atoms: O_12  and  C_13
REMARK    6  A    between atoms: C_16  and  N_20
REMARK                            x       y       z     vdW  Elec       q    Type
REMARK                         _______ _______ _______ _____ _____    ______ ____
ROOT
ATOM      1  O   UNL     1      -3.080   2.966   2.823  0.00  0.00    -0.486 OA
ENDROOT
BRANCH   1   5
ATOM      2  C   UNL     1      -1.384   0.505  -0.243  0.00  0.00    +0.007 C 
ATOM      3  C   UNL     1      -1.576   1.223   1.095  0.00  0.00    -0.010 C 
ATOM      4  C   UNL     1      -2.929   0.834   1.694  0.00  0.00    +0.048 C 
ATOM      5  C   UNL     1      -3.120   1.552   3.031  0.00  0.00    +0.174 C 
ATOM      6  C   UNL     1      -2.001   1.147   3.992  0.00  0.00    +0.051 C 
ATOM      7  C   UNL     1      -0.648   1.536   3.393  0.00  0.00    -0.031 C 
ATOM      8  C   UNL     1      -0.457   0.817   2.056  0.00  0.00    +0.010 C 
ATOM      9  C   UNL     1       0.471   1.130   4.355  0.00  0.00    +0.011 C 
ATOM     10  C   UNL     1      -0.605   3.049   3.171  0.00  0.00    +0.011 C 
ENDBRANCH   1   5
BRANCH   1  11
ATOM     11  C   UNL     1      -4.242   3.568   2.451  0.00  0.00    +0.156 A 
ATOM     12  C   UNL     1      -5.365   2.802   2.184  0.00  0.00    +0.050 A 
ATOM     13  C   UNL     1      -6.547   3.413   1.811  0.00  0.00    +0.026 A 
ATOM     14  C   UNL     1      -6.607   4.795   1.693  0.00  0.00    +0.028 A 
ATOM     15  C   UNL     1      -5.480   5.564   1.955  0.00  0.00    +0.064 A 
ATOM     16  C   UNL     1      -4.299   4.951   2.333  0.00  0.00    +0.167 A 
ATOM     17  F   UNL     1      -3.203   5.697   2.589  0.00  0.00    -0.202 F 
BRANCH  14  18
ATOM     18  N   UNL     1      -7.802   5.414   1.310  0.00  0.00    -0.358 N 
ATOM     19  H   UNL     1      -7.849   6.509   1.216  0.00  0.00    +0.142 HD
ATOM     20  H   UNL     1      -8.694   4.805   1.102  0.00  0.00    +0.142 HD
ENDBRANCH  14  18
ENDBRANCH   1  11
TORSDOF 3
