REMARK  Name = ZINC38669424
REMARK  12 active torsions:
REMARK  status: ('A' for Active; 'I' for Inactive)
REMARK    1  A    between atoms: C_1  and  C_2
REMARK    2  A    between atoms: C_2  and  O_3
REMARK    3  A    between atoms: O_3  and  C_4
REMARK    4  A    between atoms: C_4  and  C_6
REMARK    5  A    between atoms: C_8  and  N_20
REMARK    6  A    between atoms: C_11  and  O_18
REMARK    7  A    between atoms: C_12  and  O_16
REMARK    8  A    between atoms: O_16  and  C_17
REMARK    9  A    between atoms: O_18  and  C_19
REMARK   10  A    between atoms: C_21  and  C_23
REMARK   11  A    between atoms: C_23  and  N_24
REMARK   12  A    between atoms: C_30  and  C_32
REMARK                            x       y       z     vdW  Elec       q    Type
REMARK                         _______ _______ _______ _____ _____    ______ ____
ROOT
ATOM      1  C   UNL     1      -3.983  -2.400   0.113  0.00  0.00    +0.234 C 
ATOM      2  C   UNL     1      -4.369  -2.329   1.574  0.00  0.00    +0.053 C 
ATOM      3  C   UNL     1      -4.829  -3.589   1.904  0.00  0.00    +0.021 A 
ATOM      4  C   UNL     1      -5.326  -4.137   3.114  0.00  0.00    +0.061 A 
ATOM      5  C   UNL     1      -5.716  -5.435   3.155  0.00  0.00    +0.162 A 
ATOM      6  C   UNL     1      -5.641  -6.261   2.017  0.00  0.00    +0.163 A 
ATOM      7  C   UNL     1      -5.173  -5.796   0.826  0.00  0.00    +0.075 A 
ATOM      8  C   UNL     1      -4.749  -4.451   0.711  0.00  0.00    +0.049 A 
ATOM      9  N   UNL     1      -4.266  -3.773  -0.315  0.00  0.00    -0.367 N 
ATOM     10  H   UNL     1      -4.122  -4.126  -1.207  0.00  0.00    +0.161 HD
ENDROOT
BRANCH   2  11
ATOM     11  N   UNL     1      -4.280  -1.244   2.397  0.00  0.00    -0.285 N 
ATOM     12  C   UNL     1      -3.951  -0.039   1.890  0.00  0.00    +0.231 C 
ATOM     13  O   UNL     1      -3.823   0.101   0.693  0.00  0.00    -0.274 OA
ATOM     14  H   UNL     1      -4.454  -1.340   3.347  0.00  0.00    +0.155 HD
BRANCH  12  15
ATOM     15  C   UNL     1      -3.743   1.135   2.812  0.00  0.00    +0.180 C 
BRANCH  15  16
ATOM     16  N   UNL     1      -3.583   2.360   2.017  0.00  0.00    -0.291 NA
ATOM     17  C   UNL     1      -2.251   2.416   1.400  0.00  0.00    +0.104 C 
ATOM     18  C   UNL     1      -2.187   3.608   0.440  0.00  0.00    +0.123 C 
ATOM     19  N   UNL     1      -2.585   4.820   1.172  0.00  0.00    -0.293 N 
ATOM     20  C   UNL     1      -3.845   4.793   1.930  0.00  0.00    +0.123 C 
ATOM     21  C   UNL     1      -3.844   3.554   2.832  0.00  0.00    +0.104 C 
ATOM     22  C   UNL     1      -1.816   5.927   1.149  0.00  0.00    +0.282 C 
ATOM     23  O   UNL     1      -0.833   5.969   0.433  0.00  0.00    -0.267 OA
BRANCH  22  24
ATOM     24  C   UNL     1      -2.164   7.079   1.986  0.00  0.00    +0.189 A 
ATOM     25  C   UNL     1      -1.555   8.302   1.962  0.00  0.00    +0.054 A 
ATOM     26  C   UNL     1      -2.205   9.095   2.920  0.00  0.00    +0.042 A 
ATOM     27  C   UNL     1      -3.170   8.332   3.480  0.00  0.00    +0.196 A 
ATOM     28  O   UNL     1      -3.145   7.120   2.912  0.00  0.00    -0.458 OA
ENDBRANCH  22  24
ENDBRANCH  15  16
ENDBRANCH  12  15
ENDBRANCH   2  11
BRANCH   1  29
ATOM     29  C   UNL     1      -2.516  -2.097  -0.051  0.00  0.00    +0.336 C 
ATOM     30  O   UNL     1      -1.693  -2.948   0.190  0.00  0.00    -0.248 OA
BRANCH  29  31
ATOM     31  O   UNL     1      -2.124  -0.882  -0.466  0.00  0.00    -0.463 OA
BRANCH  31  33
ATOM     32  C   UNL     1      -0.464   0.751  -1.113  0.00  0.00    +0.048 C 
ATOM     33  C   UNL     1      -0.733  -0.709  -0.742  0.00  0.00    +0.229 C 
ENDBRANCH  31  33
ENDBRANCH  29  31
ENDBRANCH   1  29
BRANCH   6  34
ATOM     34  O   UNL     1      -6.044  -7.553   2.110  0.00  0.00    -0.491 OA
ATOM     35  C   UNL     1      -5.947  -8.350   0.927  0.00  0.00    +0.277 C 
ENDBRANCH   6  34
BRANCH   5  36
ATOM     36  O   UNL     1      -6.191  -5.951   4.321  0.00  0.00    -0.491 OA
ATOM     37  C   UNL     1      -6.247  -5.070   5.445  0.00  0.00    +0.277 C 
ENDBRANCH   5  36
TORSDOF 9
