REMARK  Name = ZINC08991211
REMARK  5 active torsions:
REMARK  status: ('A' for Active; 'I' for Inactive)
REMARK    1  A    between atoms: C_1  and  C_2
REMARK    2  A    between atoms: C_8  and  C_9
REMARK    3  A    between atoms: C_8  and  N_52
REMARK    4  A    between atoms: C_10  and  O_30
REMARK    5  A    between atoms: C_17  and  C_18
REMARK                            x       y       z     vdW  Elec       q    Type
REMARK                         _______ _______ _______ _____ _____    ______ ____
ROOT
ATOM      1  C   UNL     1       1.600  -1.885  -0.103  0.00  0.00    +0.020 A 
ATOM      2  C   UNL     1       0.728  -2.960  -0.044  0.00  0.00    +0.122 A 
ATOM      3  C   UNL     1      -0.649  -2.756  -0.059  0.00  0.00    +0.046 A 
ATOM      4  C   UNL     1      -1.155  -1.489  -0.132  0.00  0.00    +0.019 A 
ATOM      5  C   UNL     1      -0.288  -0.397  -0.192  0.00  0.00    +0.068 A 
ATOM      6  C   UNL     1       1.103  -0.591  -0.178  0.00  0.00    +0.144 A 
ATOM      7  O   UNL     1       1.728   0.605  -0.246  0.00  0.00    -0.451 OA
ATOM      8  C   UNL     1       0.848   1.631  -0.306  0.00  0.00    +0.179 C 
ATOM      9  C   UNL     1       1.159   2.955  -0.382  0.00  0.00    +0.096 C 
ATOM     10  C   UNL     1      -0.504   1.058  -0.276  0.00  0.00    +0.232 C 
ATOM     11  O   UNL     1      -1.568   1.654  -0.316  0.00  0.00    -0.283 OA
ENDROOT
BRANCH   9  12
ATOM     12  C   UNL     1       2.514   3.363  -0.403  0.00  0.00    +0.133 A 
ATOM     13  C   UNL     1       2.947   4.654  -0.482  0.00  0.00    +0.058 A 
ATOM     14  C   UNL     1       4.364   4.612  -0.472  0.00  0.00    +0.022 A 
ATOM     15  C   UNL     1       5.361   5.593  -0.526  0.00  0.00    +0.027 A 
ATOM     16  C   UNL     1       6.677   5.225  -0.503  0.00  0.00    +0.019 A 
ATOM     17  C   UNL     1       7.032   3.884  -0.425  0.00  0.00    +0.019 A 
ATOM     18  C   UNL     1       6.065   2.902  -0.370  0.00  0.00    +0.048 A 
ATOM     19  C   UNL     1       4.721   3.253  -0.393  0.00  0.00    +0.136 A 
ATOM     20  O   UNL     1       3.580   2.534  -0.353  0.00  0.00    -0.455 OA
ATOM     21 BR   UNL     1       8.024   6.549  -0.577  0.00  0.00    -0.050 Br
ENDBRANCH   9  12
BRANCH   2  22
ATOM     22  O   UNL     1       1.220  -4.223   0.030  0.00  0.00    -0.506 OA
ATOM     23  H   UNL     1       1.365  -4.640  -0.831  0.00  0.00    +0.292 HD
ENDBRANCH   2  22
BRANCH   1  24
ATOM     24  C   UNL     1       3.088  -2.121  -0.087  0.00  0.00    -0.035 C 
BRANCH  24  31
ATOM     25  C   UNL     1       5.641  -1.158  -0.775  0.00  0.00    -0.013 C 
ATOM     26  C   UNL     1       5.040  -2.366  -1.497  0.00  0.00    -0.071 C 
ATOM     27  C   UNL     1       5.519  -2.381  -2.951  0.00  0.00    -0.016 C 
ATOM     28  C   UNL     1       4.899  -3.579  -3.675  0.00  0.00    -0.003 C 
ATOM     29  C   UNL     1       3.373  -3.487  -3.584  0.00  0.00    -0.019 C 
ATOM     30  C   UNL     1       2.957  -3.441  -2.112  0.00  0.00    -0.078 C 
ATOM     31  N   UNL     1       3.567  -2.252  -1.478  0.00  0.00    +0.384 N 
ATOM     32  H   UNL     1       3.291  -1.415  -2.006  0.00  0.00    -0.081 HD
ENDBRANCH  24  31
ENDBRANCH   1  24
TORSDOF 4
