REMARK  Name = ZINC09404866
REMARK  7 active torsions:
REMARK  status: ('A' for Active; 'I' for Inactive)
REMARK    1  A    between atoms: C_1  and  C_2
REMARK    2  A    between atoms: C_5  and  C_34
REMARK    3  A    between atoms: N_8  and  S_10
REMARK    4  A    between atoms: S_10  and  C_13
REMARK    5  A    between atoms: C_16  and  C_19
REMARK    6  A    between atoms: N_21  and  C_22
REMARK    7  A    between atoms: C_30  and  C_31
REMARK                            x       y       z     vdW  Elec       q    Type
REMARK                         _______ _______ _______ _____ _____    ______ ____
ROOT
ATOM      1  C   UNL     1       1.789   5.581  -0.167  0.00  0.00    +0.248 C 
ATOM      2  O   UNL     1       0.651   5.960  -0.368  0.00  0.00    -0.270 OA
ATOM      3  N   UNL     1       2.027   4.284   0.108  0.00  0.00    -0.278 N 
ATOM      4  H   UNL     1       2.912   4.002   0.389  0.00  0.00    +0.155 HD
ENDROOT
BRANCH   3   5
ATOM      5  C   UNL     1       1.006   3.349  -0.011  0.00  0.00    +0.092 A 
ATOM      6  C   UNL     1      -0.039   3.051   0.976  0.00  0.00    +0.042 A 
ATOM      7  C   UNL     1      -0.346   3.546   2.244  0.00  0.00    +0.013 A 
ATOM      8  C   UNL     1      -1.419   3.044   2.926  0.00  0.00    +0.001 A 
ATOM      9  C   UNL     1      -2.204   2.046   2.365  0.00  0.00    +0.004 A 
ATOM     10  C   UNL     1      -1.916   1.544   1.114  0.00  0.00    +0.047 A 
ATOM     11  C   UNL     1      -0.829   2.041   0.402  0.00  0.00    +0.138 A 
ATOM     12  O   UNL     1      -0.312   1.750  -0.808  0.00  0.00    -0.448 OA
ATOM     13  C   UNL     1       0.769   2.517  -1.070  0.00  0.00    +0.211 A 
BRANCH  13  14
ATOM     14  C   UNL     1       1.566   2.463  -2.295  0.00  0.00    +0.279 C 
ATOM     15  O   UNL     1       2.466   3.263  -2.471  0.00  0.00    -0.267 OA
ATOM     16  N   UNL     1       1.304   1.526  -3.228  0.00  0.00    -0.323 N 
ATOM     17  H   UNL     1       0.587   0.888  -3.086  0.00  0.00    +0.145 HD
ATOM     18  H   UNL     1       1.832   1.490  -4.040  0.00  0.00    +0.145 HD
ENDBRANCH  13  14
ENDBRANCH   3   5
BRANCH   1  22
ATOM     19  C   UNL     1       5.009   8.345  -0.331  0.00  0.00    +0.106 A 
ATOM     20  C   UNL     1       3.716   8.780  -0.561  0.00  0.00    +0.029 A 
ATOM     21  C   UNL     1       2.666   7.888  -0.510  0.00  0.00    +0.015 A 
ATOM     22  C   UNL     1       2.909   6.543  -0.225  0.00  0.00    +0.037 A 
ATOM     23  C   UNL     1       4.216   6.112   0.011  0.00  0.00    +0.015 A 
ATOM     24  C   UNL     1       5.258   7.014  -0.048  0.00  0.00    +0.029 A 
BRANCH  19  25
ATOM     25  S   UNL     1       6.346   9.492  -0.399  0.00  0.00    +0.061 S 
ATOM     26  O   UNL     1       7.514   8.736  -0.687  0.00  0.00    -0.153 OA
ATOM     27  O   UNL     1       5.914  10.570  -1.219  0.00  0.00    -0.153 OA
BRANCH  25  33
ATOM     28  C   UNL     1       3.979   9.964   2.568  0.00  0.00    +0.009 C 
ATOM     29  C   UNL     1       5.062  11.010   2.842  0.00  0.00    +0.002 C 
ATOM     30  C   UNL     1       6.042  10.470   3.886  0.00  0.00    +0.009 C 
ATOM     31  C   UNL     1       6.667   9.170   3.376  0.00  0.00    +0.002 C 
ATOM     32  C   UNL     1       7.443   9.453   2.086  0.00  0.00    +0.112 C 
ATOM     33  N   UNL     1       6.542  10.106   1.126  0.00  0.00    -0.176 NA
ATOM     34  C   UNL     1       5.823  11.317   1.544  0.00  0.00    +0.112 C 
ATOM     35  C   UNL     1       7.622   8.614   4.434  0.00  0.00    +0.009 C 
ENDBRANCH  25  33
ENDBRANCH  19  25
ENDBRANCH   1  22
TORSDOF 5
