REMARK  Name = ZINC10068603
REMARK  10 active torsions:
REMARK  status: ('A' for Active; 'I' for Inactive)
REMARK    1  A    between atoms: C_1  and  C_2
REMARK    2  A    between atoms: C_5  and  O_26
REMARK    3  A    between atoms: N_11  and  C_12
REMARK    4  A    between atoms: C_12  and  C_13
REMARK    5  A    between atoms: C_13  and  C_14
REMARK    6  A    between atoms: C_14  and  N_52
REMARK    7  A    between atoms: C_15  and  N_52
REMARK    8  A    between atoms: C_16  and  N_52
REMARK    9  A    between atoms: C_17  and  C_19
REMARK   10  A    between atoms: O_26  and  C_27
REMARK                            x       y       z     vdW  Elec       q    Type
REMARK                         _______ _______ _______ _____ _____    ______ ____
ROOT
ATOM      1  C   UNL     1       0.289  -8.634  -0.262  0.00  0.00    +0.045 C 
ATOM      2  C   UNL     1       1.725  -8.176  -0.283  0.00  0.00    -0.034 A 
ATOM      3  C   UNL     1       2.749  -9.104  -0.336  0.00  0.00    +0.008 A 
ATOM      4  C   UNL     1       4.064  -8.664  -0.355  0.00  0.00    +0.048 A 
ATOM      5  C   UNL     1       4.373  -7.325  -0.322  0.00  0.00    +0.147 A 
ATOM      6  C   UNL     1       3.348  -6.348  -0.267  0.00  0.00    +0.122 A 
ATOM      7  C   UNL     1       2.022  -6.835  -0.250  0.00  0.00    +0.047 A 
ATOM      8  S   UNL     1       1.069  -5.338  -0.181  0.00  0.00    -0.051 S 
ATOM      9  C   UNL     1       2.444  -4.196  -0.180  0.00  0.00    +0.168 A 
ATOM     10  N   UNL     1       3.477  -5.003  -0.235  0.00  0.00    -0.221 NA
ATOM     11  N   UNL     1       2.423  -2.812  -0.138  0.00  0.00    -0.246 N 
ATOM     12  C   UNL     1       1.247  -2.156  -0.091  0.00  0.00    +0.252 C 
ATOM     13  O   UNL     1       0.209  -2.777   0.035  0.00  0.00    -0.270 OA
ENDROOT
BRANCH  12  14
ATOM     14  C   UNL     1       1.218  -0.682  -0.191  0.00  0.00    +0.037 A 
ATOM     15  C   UNL     1       0.110  -0.039  -0.748  0.00  0.00    +0.014 A 
ATOM     16  C   UNL     1       0.089   1.336  -0.840  0.00  0.00    +0.016 A 
ATOM     17  C   UNL     1       1.163   2.080  -0.380  0.00  0.00    +0.018 A 
ATOM     18  C   UNL     1       2.264   1.448   0.173  0.00  0.00    +0.016 A 
ATOM     19  C   UNL     1       2.297   0.073   0.270  0.00  0.00    +0.014 A 
ATOM     20 BR   UNL     1       1.126   3.966  -0.509  0.00  0.00    -0.050 Br
ENDBRANCH  12  14
BRANCH   5  21
ATOM     21  O   UNL     1       5.675  -6.934  -0.341  0.00  0.00    -0.493 OA
ATOM     22  C   UNL     1       6.662  -7.966  -0.397  0.00  0.00    +0.277 C 
ENDBRANCH   5  21
BRANCH  11  23
ATOM     23  C   UNL     1       3.681  -2.060  -0.146  0.00  0.00    +0.114 C 
BRANCH  23  24
ATOM     24  C   UNL     1       4.261  -2.021   1.269  0.00  0.00    +0.001 C 
BRANCH  24  25
ATOM     25  C   UNL     1       5.574  -1.236   1.261  0.00  0.00    -0.078 C 
BRANCH  25  28
ATOM     26  C   UNL     1       7.498  -0.664   2.615  0.00  0.00    -0.097 C 
ATOM     27  C   UNL     1       5.266  -0.426   3.522  0.00  0.00    -0.097 C 
ATOM     28  N   UNL     1       6.131  -1.226   2.630  0.00  0.00    +0.376 N 
ATOM     29  H   UNL     1       6.171  -2.190   2.981  0.00  0.00    -0.083 HD
ENDBRANCH  25  28
ENDBRANCH  24  25
ENDBRANCH  23  24
ENDBRANCH  11  23
TORSDOF 6
