REMARK  Name = ZINC38337178
REMARK  4 active torsions:
REMARK  status: ('A' for Active; 'I' for Inactive)
REMARK    1  A    between atoms: C_1  and  C_2
REMARK    2  A    between atoms: C_13  and  O_15
REMARK    3  A    between atoms: C_20  and  O_26
REMARK    4  A    between atoms: C_24  and  C_25
REMARK                            x       y       z     vdW  Elec       q    Type
REMARK                         _______ _______ _______ _____ _____    ______ ____
ROOT
ATOM      1  C   UNL     1      -0.019   1.522   0.010  0.00  0.00    +0.014 C 
ATOM      2  C   UNL     1       0.002  -0.004   0.002  0.00  0.00    -0.003 C 
ATOM      3  C   UNL     1      -1.411  -0.534  -0.054  0.00  0.00    +0.010 C 
ATOM      4  C   UNL     1      -2.131  -0.115   1.245  0.00  0.00    +0.005 C 
ATOM      5  C   UNL     1      -1.410  -0.658   2.462  0.00  0.00    +0.002 C 
ATOM      6  C   UNL     1       0.067  -0.299   2.528  0.00  0.00    -0.003 C 
ATOM      7  C   UNL     1       0.727  -0.622   1.213  0.00  0.00    +0.001 C 
ATOM      8  C   UNL     1       2.166  -0.135   0.996  0.00  0.00    +0.007 C 
ATOM      9  C   UNL     1       2.354  -0.316  -0.538  0.00  0.00    +0.032 C 
ATOM     10  C   UNL     1       0.932  -0.437  -1.145  0.00  0.00    +0.121 C 
ATOM     11  C   UNL     1       0.405   1.079   3.049  0.00  0.00    +0.008 C 
ATOM     12  C   UNL     1      -0.788   1.763   3.713  0.00  0.00    +0.031 C 
ATOM     13  C   UNL     1      -1.500   0.709   4.530  0.00  0.00    -0.065 C 
ATOM     14  C   UNL     1      -1.542   0.770   5.821  0.00  0.00    +0.004 C 
ATOM     15  C   UNL     1      -2.208  -0.223   6.711  0.00  0.00    +0.137 C 
ATOM     16  C   UNL     1      -2.733  -1.449   5.986  0.00  0.00    +0.036 C 
ATOM     17  C   UNL     1      -2.041  -1.683   4.650  0.00  0.00    +0.014 C 
ATOM     18  C   UNL     1      -2.144  -0.428   3.773  0.00  0.00    -0.008 C 
ATOM     19  C   UNL     1      -3.617  -0.095   3.535  0.00  0.00    +0.016 C 
ENDROOT
BRANCH  10  20
ATOM     20  O   UNL     1       0.658  -1.786  -1.516  0.00  0.00    -0.391 OA
ATOM     21  H   UNL     1       1.213  -2.116  -2.235  0.00  0.00    +0.210 HD
ENDBRANCH  10  20
BRANCH  15  22
ATOM     22  O   UNL     1      -1.272  -0.644   7.707  0.00  0.00    -0.388 OA
ATOM     23  H   UNL     1      -0.942   0.073   8.265  0.00  0.00    +0.210 HD
ENDBRANCH  15  22
TORSDOF 2
