REMARK  Name = ZINC33759525
REMARK  10 active torsions:
REMARK  status: ('A' for Active; 'I' for Inactive)
REMARK    1  A    between atoms: C_1  and  C_2
REMARK    2  A    between atoms: C_3  and  C_22
REMARK    3  A    between atoms: N_7  and  C_8
REMARK    4  A    between atoms: C_8  and  N_10
REMARK    5  A    between atoms: C_11  and  C_13
REMARK    6  A    between atoms: C_16  and  N_19
REMARK    7  A    between atoms: C_22  and  C_24
REMARK    8  A    between atoms: C_25  and  C_26
REMARK    9  A    between atoms: C_29  and  N_32
REMARK   10  A    between atoms: C_33  and  C_35
REMARK                            x       y       z     vdW  Elec       q    Type
REMARK                         _______ _______ _______ _____ _____    ______ ____
ROOT
ATOM      1  C   UNL     1       5.786  -9.250  -0.053  0.00  0.00    +0.064 C 
ATOM      2  C   UNL     1       4.588  -8.335  -0.050  0.00  0.00    +0.032 A 
ATOM      3  C   UNL     1       3.296  -8.844  -0.046  0.00  0.00    +0.081 A 
ATOM      4  S   UNL     1       2.347  -7.329  -0.043  0.00  0.00    -0.049 S 
ATOM      5  C   UNL     1       3.685  -6.223  -0.047  0.00  0.00    +0.163 A 
ATOM      6  N   UNL     1       4.731  -7.035  -0.056  0.00  0.00    -0.339 N 
ATOM      7  N   UNL     1       3.664  -4.840  -0.047  0.00  0.00    -0.169 NA
ATOM      8  H   UNL     1       5.737  -6.592  -0.069  0.00  0.00    +0.167 HD
ENDROOT
BRANCH   7   9
ATOM      9  C   UNL     1       2.487  -4.184  -0.043  0.00  0.00    +0.163 C 
ATOM     10  S   UNL     1       1.017  -5.063  -0.038  0.00  0.00    -0.016 S 
BRANCH   9  11
ATOM     11  N   UNL     1       2.466  -2.837  -0.043  0.00  0.00    -0.262 N 
ATOM     12  C   UNL     1       1.289  -2.181  -0.039  0.00  0.00    +0.250 C 
ATOM     13  O   UNL     1       0.246  -2.804  -0.035  0.00  0.00    -0.270 OA
ATOM     14  H   UNL     1       3.410  -2.272  -0.046  0.00  0.00    +0.157 HD
BRANCH  12  15
ATOM     15  C   UNL     1       1.266  -0.703  -0.039  0.00  0.00    +0.037 A 
ATOM     16  C   UNL     1       0.049  -0.021  -0.035  0.00  0.00    +0.015 A 
ATOM     17  C   UNL     1       0.035   1.359  -0.034  0.00  0.00    +0.033 A 
ATOM     18  C   UNL     1       1.224   2.066  -0.038  0.00  0.00    +0.126 A 
ATOM     19  C   UNL     1       2.435   1.395  -0.042  0.00  0.00    +0.033 A 
ATOM     20  C   UNL     1       2.463   0.016  -0.042  0.00  0.00    +0.015 A 
BRANCH  18  21
ATOM     21  N   UNL     1       1.202   3.546  -0.038  0.00  0.00    +0.056 N 
ATOM     22  O   UNL     1       0.138   4.139  -0.035  0.00  0.00    -0.126 OA
ATOM     23  O   UNL     1       2.247   4.171  -0.041  0.00  0.00    -0.126 OA
ENDBRANCH  18  21
ENDBRANCH  12  15
ENDBRANCH   9  11
ENDBRANCH   7   9
BRANCH   3  24
ATOM     24  C   UNL     1       2.838 -10.235  -0.044  0.00  0.00    +0.194 C 
ATOM     25  O   UNL     1       3.651 -11.144  -0.046  0.00  0.00    -0.287 OA
BRANCH  24  26
ATOM     26  C   UNL     1       1.405 -10.533  -0.041  0.00  0.00    +0.052 C 
ATOM     27  C   UNL     1       0.983 -11.816  -0.040  0.00  0.00    +0.012 C 
BRANCH  27  28
ATOM     28  C   UNL     1      -0.456 -12.116  -0.036  0.00  0.00    -0.025 A 
ATOM     29  C   UNL     1      -1.391 -11.074  -0.028  0.00  0.00    +0.010 A 
ATOM     30  C   UNL     1      -2.737 -11.359  -0.028  0.00  0.00    +0.024 A 
ATOM     31  C   UNL     1      -3.170 -12.682  -0.028  0.00  0.00    +0.033 A 
ATOM     32  C   UNL     1      -2.244 -13.721  -0.031  0.00  0.00    +0.024 A 
ATOM     33  C   UNL     1      -0.896 -13.445  -0.035  0.00  0.00    +0.010 A 
BRANCH  31  34
ATOM     34  N   UNL     1      -4.535 -12.967  -0.023  0.00  0.00    -0.286 N 
ATOM     35  C   UNL     1      -5.002 -14.039  -0.694  0.00  0.00    +0.214 C 
ATOM     36  O   UNL     1      -4.228 -14.802  -1.231  0.00  0.00    -0.276 OA
ATOM     37  C   UNL     1      -6.486 -14.288  -0.775  0.00  0.00    +0.109 C 
ATOM     38  H   UNL     1      -5.231 -12.316   0.528  0.00  0.00    +0.155 HD
ENDBRANCH  31  34
ENDBRANCH  27  28
ENDBRANCH  24  26
ENDBRANCH   3  24
TORSDOF 8
