REMARK  Name = ZINC63142074
REMARK  10 active torsions:
REMARK  status: ('A' for Active; 'I' for Inactive)
REMARK    1  A    between atoms: C_1  and  N_2
REMARK    2  A    between atoms: N_2  and  C_3
REMARK    3  A    between atoms: N_2  and  C_4
REMARK    4  A    between atoms: C_4  and  C_5
REMARK    5  A    between atoms: C_5  and  C_6
REMARK    6  A    between atoms: C_6  and  N_7
REMARK    7  A    between atoms: C_27  and  C_29
REMARK    8  A    between atoms: C_32  and  C_35
REMARK    9  A    between atoms: C_35  and  O_37
REMARK   10  A    between atoms: O_37  and  C_38
REMARK                            x       y       z     vdW  Elec       q    Type
REMARK                         _______ _______ _______ _____ _____    ______ ____
ROOT
ATOM      1  N   UNL     1      -2.546  -4.073   0.101  0.00  0.00    -0.291 N 
ATOM      2  C   UNL     1      -2.662  -4.532  -1.273  0.00  0.00    +0.203 C 
ATOM      3  C   UNL     1      -2.728  -6.020  -1.367  0.00  0.00    +0.234 C 
ATOM      4  O   UNL     1      -2.828  -6.511  -2.472  0.00  0.00    -0.274 OA
ATOM      5  N   UNL     1      -2.685  -6.852  -0.320  0.00  0.00    -0.279 N 
ATOM      6  C   UNL     1      -2.548  -6.382   1.055  0.00  0.00    +0.167 C 
ATOM      7  C   UNL     1      -2.488  -4.893   1.150  0.00  0.00    +0.237 C 
ATOM      8  O   UNL     1      -2.385  -4.398   2.252  0.00  0.00    -0.274 OA
ATOM      9  C   UNL     1      -1.285  -6.988   1.694  0.00  0.00    +0.065 C 
ATOM     10  C   UNL     1      -1.294  -8.458   1.353  0.00  0.00    -0.034 C 
ATOM     11  C   UNL     1      -1.165  -9.538   2.112  0.00  0.00    -0.001 A 
ATOM     12  C   UNL     1      -0.858  -9.700   3.542  0.00  0.00    +0.010 A 
ATOM     13  C   UNL     1      -0.824 -10.977   4.007  0.00  0.00    +0.001 A 
ATOM     14  C   UNL     1      -1.063 -12.096   3.203  0.00  0.00    +0.002 A 
ATOM     15  C   UNL     1      -1.343 -12.040   1.876  0.00  0.00    +0.026 A 
ATOM     16  C   UNL     1      -1.399 -10.752   1.270  0.00  0.00    +0.043 A 
ATOM     17  N   UNL     1      -1.619 -10.412   0.035  0.00  0.00    -0.375 N 
ATOM     18  C   UNL     1      -1.495  -8.958  -0.073  0.00  0.00    +0.131 C 
ATOM     19  C   UNL     1      -2.782  -8.305  -0.587  0.00  0.00    +0.133 C 
ATOM     20  H   UNL     1      -1.831 -11.019  -0.692  0.00  0.00    +0.160 HD
ENDROOT
BRANCH  19  21
ATOM     21  C   UNL     1      -3.971  -8.880   0.139  0.00  0.00    -0.025 A 
ATOM     22  C   UNL     1      -4.057  -8.770   1.515  0.00  0.00    +0.006 A 
ATOM     23  C   UNL     1      -5.144  -9.293   2.185  0.00  0.00    +0.015 A 
ATOM     24  C   UNL     1      -6.157  -9.936   1.471  0.00  0.00    +0.059 A 
ATOM     25  C   UNL     1      -6.063 -10.043   0.082  0.00  0.00    +0.015 A 
ATOM     26  C   UNL     1      -4.975  -9.510  -0.576  0.00  0.00    +0.006 A 
BRANCH  24  27
ATOM     27  C   UNL     1      -7.323 -10.499   2.182  0.00  0.00    +0.339 C 
ATOM     28  O   UNL     1      -7.401 -10.405   3.391  0.00  0.00    -0.245 OA
BRANCH  27  29
ATOM     29  O   UNL     1      -8.299 -11.118   1.490  0.00  0.00    -0.464 OA
ATOM     30  C   UNL     1      -9.397 -11.640   2.242  0.00  0.00    +0.280 C 
ENDBRANCH  27  29
ENDBRANCH  24  27
ENDBRANCH  19  21
BRANCH   1  31
ATOM     31  C   UNL     1      -2.484  -2.630   0.347  0.00  0.00    +0.106 C 
BRANCH  31  32
ATOM     32  C   UNL     1      -1.025  -2.171   0.319  0.00  0.00    +0.000 C 
BRANCH  32  33
ATOM     33  C   UNL     1      -0.960  -0.664   0.575  0.00  0.00    -0.078 C 
BRANCH  33  35
ATOM     34  C   UNL     1       0.496   1.240   0.675  0.00  0.00    -0.097 C 
ATOM     35  N   UNL     1       0.441  -0.223   0.549  0.00  0.00    +0.376 N 
ATOM     36  C   UNL     1       1.169  -0.838   1.666  0.00  0.00    -0.097 C 
ATOM     37  H   UNL     1       0.865  -0.501  -0.323  0.00  0.00    -0.083 HD
ENDBRANCH  33  35
ENDBRANCH  32  33
ENDBRANCH  31  32
ENDBRANCH   1  31
TORSDOF 7
