REMARK  Name = ZINC39683979
REMARK  9 active torsions:
REMARK  status: ('A' for Active; 'I' for Inactive)
REMARK    1  A    between atoms: C_1  and  C_2
REMARK    2  A    between atoms: C_2  and  C_4
REMARK    3  A    between atoms: C_2  and  N_8
REMARK    4  A    between atoms: N_6  and  C_7
REMARK    5  A    between atoms: C_9  and  C_11
REMARK    6  A    between atoms: C_22  and  C_24
REMARK    7  A    between atoms: C_30  and  O_32
REMARK    8  A    between atoms: O_32  and  C_33
REMARK    9  A    between atoms: C_33  and  C_34
REMARK                            x       y       z     vdW  Elec       q    Type
REMARK                         _______ _______ _______ _____ _____    ______ ____
ROOT
ATOM      1  C   UNL     1       0.780  -1.133   3.576  0.00  0.00    +0.100 C 
ATOM      2  C   UNL     1       1.189  -2.611   3.392  0.00  0.00    +0.121 C 
ATOM      3  N   UNL     1       1.007  -3.220   4.731  0.00  0.00    -0.300 N 
ATOM      4  C   UNL     1      -0.236  -2.602   5.251  0.00  0.00    +0.115 C 
ATOM      5  C   UNL     1      -0.156  -1.131   4.797  0.00  0.00    -0.004 C 
ATOM      6  C   UNL     1      -1.540  -0.625   4.401  0.00  0.00    -0.010 C 
ATOM      7  C   UNL     1      -2.435  -0.577   5.642  0.00  0.00    -0.082 C 
ATOM      8  N   UNL     1      -1.836   0.311   6.646  0.00  0.00    +0.379 N 
ATOM      9  C   UNL     1      -0.547  -0.233   7.089  0.00  0.00    -0.082 C 
ATOM     10  C   UNL     1       0.428  -0.266   5.909  0.00  0.00    -0.010 C 
ATOM     11  C   UNL     1       1.794  -4.129   5.338  0.00  0.00    +0.219 C 
ATOM     12  O   UNL     1       1.510  -4.535   6.445  0.00  0.00    -0.275 OA
ATOM     13  H   UNL     1      -1.694   1.224   6.242  0.00  0.00    -0.086 HD
ATOM     14  H   UNL     1      -2.457   0.389   7.437  0.00  0.00    -0.086 HD
ENDROOT
BRANCH  11  15
ATOM     15  C   UNL     1       3.029  -4.642   4.643  0.00  0.00    +0.078 C 
ATOM     16  C   UNL     1       2.631  -5.316   3.328  0.00  0.00    +0.032 C 
ATOM     17  C   UNL     1       3.891  -5.805   2.607  0.00  0.00    +0.112 C 
ATOM     18  N   UNL     1       4.653  -6.668   3.520  0.00  0.00    -0.267 N 
ATOM     19  C   UNL     1       5.010  -6.149   4.848  0.00  0.00    +0.112 C 
ATOM     20  C   UNL     1       3.738  -5.656   5.543  0.00  0.00    +0.032 C 
ATOM     21  C   UNL     1       5.018  -7.910   3.147  0.00  0.00    +0.403 C 
ATOM     22  O   UNL     1       4.715  -8.327   2.046  0.00  0.00    -0.226 OA
BRANCH  21  23
ATOM     23  O   UNL     1       5.716  -8.690   3.994  0.00  0.00    -0.445 OA
BRANCH  23  24
ATOM     24  C   UNL     1       6.069  -9.995   3.533  0.00  0.00    +0.269 C 
BRANCH  24  25
ATOM     25  C   UNL     1       6.841 -10.716   4.607  0.00  0.00    -0.010 A 
ATOM     26  C   UNL     1       8.219 -10.608   4.658  0.00  0.00    +0.007 A 
ATOM     27  C   UNL     1       8.927 -11.270   5.644  0.00  0.00    +0.000 A 
ATOM     28  C   UNL     1       8.259 -12.038   6.579  0.00  0.00    +0.000 A 
ATOM     29  C   UNL     1       6.881 -12.145   6.528  0.00  0.00    +0.000 A 
ATOM     30  C   UNL     1       6.172 -11.480   5.545  0.00  0.00    +0.007 A 
ENDBRANCH  24  25
ENDBRANCH  23  24
ENDBRANCH  21  23
ENDBRANCH  11  15
BRANCH   1  32
ATOM     31  N   UNL     1       0.108   0.671   2.023  0.00  0.00    -0.304 N 
ATOM     32  C   UNL     1       0.051  -0.633   2.355  0.00  0.00    +0.219 C 
ATOM     33  O   UNL     1      -0.587  -1.406   1.672  0.00  0.00    -0.275 OA
ATOM     34  H   UNL     1       0.619   1.289   2.570  0.00  0.00    +0.149 HD
BRANCH  31  36
ATOM     35  C   UNL     1      -2.054   1.464   1.200  0.00  0.00    +0.038 C 
ATOM     36  C   UNL     1      -0.600   1.157   0.836  0.00  0.00    +0.156 C 
BRANCH  36  37
ATOM     37  C   UNL     1       0.067   2.410   0.330  0.00  0.00    +0.233 C 
ATOM     38  O   UNL     1       1.038   2.854   0.905  0.00  0.00    -0.274 OA
ATOM     39  N   UNL     1      -0.416   3.037  -0.760  0.00  0.00    -0.317 N 
ATOM     40  C   UNL     1       0.232   4.255  -1.252  0.00  0.00    +0.128 C 
ATOM     41  H   UNL     1      -1.193   2.682  -1.220  0.00  0.00    +0.148 HD
ENDBRANCH  36  37
ENDBRANCH  31  36
ENDBRANCH   1  32
TORSDOF 7
