REMARK  Name = ZINC32580979
REMARK  13 active torsions:
REMARK  status: ('A' for Active; 'I' for Inactive)
REMARK    1  A    between atoms: C_1  and  O_2
REMARK    2  A    between atoms: O_2  and  C_3
REMARK    3  A    between atoms: C_7  and  C_11
REMARK    4  A    between atoms: C_8  and  O_9
REMARK    5  A    between atoms: O_9  and  C_10
REMARK    6  A    between atoms: C_11  and  N_12
REMARK    7  A    between atoms: N_12  and  C_13
REMARK    8  A    between atoms: C_16  and  C_27
REMARK    9  A    between atoms: N_18  and  C_20
REMARK   10  A    between atoms: C_20  and  C_21
REMARK   11  A    between atoms: N_29  and  C_30
REMARK   12  A    between atoms: C_30  and  C_31
REMARK   13  A    between atoms: C_31  and  C_32
REMARK                            x       y       z     vdW  Elec       q    Type
REMARK                         _______ _______ _______ _____ _____    ______ ____
ROOT
ATOM      1  C   UNL     1      -2.303  -6.132   1.446  0.00  0.00    +0.036 C 
ATOM      2  C   UNL     1      -0.992  -6.841   1.013  0.00  0.00    +0.010 C 
ATOM      3  C   UNL     1      -1.097  -8.185   1.775  0.00  0.00    +0.021 C 
ATOM      4  N   UNL     1      -1.711  -7.837   3.074  0.00  0.00    +0.391 N 
ATOM      5  C   UNL     1      -2.481  -6.586   2.910  0.00  0.00    -0.059 C 
ATOM      6  H   UNL     1      -0.990  -7.706   3.766  0.00  0.00    -0.080 HD
ENDROOT
BRANCH   3   7
ATOM      7  C   UNL     1       0.273  -8.779   1.982  0.00  0.00    +0.200 C 
ATOM      8  O   UNL     1       0.691  -8.960   3.106  0.00  0.00    -0.278 OA
ATOM      9  N   UNL     1       1.033  -9.108   0.919  0.00  0.00    -0.316 N 
ATOM     10  H   UNL     1       0.698  -8.963   0.020  0.00  0.00    +0.149 HD
BRANCH   9  11
ATOM     11  C   UNL     1       2.364  -9.685   1.121  0.00  0.00    +0.109 C 
BRANCH  11  12
ATOM     12  C   UNL     1       3.010  -9.965  -0.238  0.00  0.00    +0.056 C 
BRANCH  12  13
ATOM     13  C   UNL     1       4.379 -10.559  -0.030  0.00  0.00    -0.011 A 
ATOM     14  C   UNL     1       5.494  -9.742  -0.033  0.00  0.00    +0.006 A 
ATOM     15  C   UNL     1       6.751 -10.286   0.157  0.00  0.00    +0.000 A 
ATOM     16  C   UNL     1       6.894 -11.648   0.350  0.00  0.00    +0.003 A 
ATOM     17  C   UNL     1       5.780 -12.466   0.354  0.00  0.00    +0.038 A 
ATOM     18  C   UNL     1       4.521 -11.921   0.169  0.00  0.00    +0.127 A 
ATOM     19  F   UNL     1       3.431 -12.720   0.176  0.00  0.00    -0.205 F 
ENDBRANCH  12  13
ENDBRANCH  11  12
ENDBRANCH   9  11
ENDBRANCH   3   7
BRANCH   1  20
ATOM     20  N   UNL     1      -2.154  -4.673   1.369  0.00  0.00    -0.311 NA
ATOM     21  H   UNL     1      -1.218  -4.391   1.618  0.00  0.00    +0.122 HD
BRANCH  20  22
ATOM     22  C   UNL     1      -2.516  -4.177   0.034  0.00  0.00    +0.120 C 
BRANCH  22  27
ATOM     23  C   UNL     1      -1.242  -0.612  -0.023  0.00  0.00    +0.162 A 
ATOM     24  C   UNL     1      -2.430   0.101   0.031  0.00  0.00    +0.049 A 
ATOM     25  C   UNL     1      -3.637  -0.571   0.085  0.00  0.00    +0.004 A 
ATOM     26  C   UNL     1      -3.664  -1.953   0.086  0.00  0.00    +0.009 A 
ATOM     27  C   UNL     1      -2.483  -2.670   0.033  0.00  0.00    +0.012 A 
ATOM     28  C   UNL     1      -1.270  -2.003  -0.028  0.00  0.00    +0.166 A 
BRANCH  23  30
ATOM     29  C   UNL     1      -0.103   1.475  -0.068  0.00  0.00    +0.277 C 
ATOM     30  O   UNL     1      -0.054   0.046  -0.076  0.00  0.00    -0.491 OA
ENDBRANCH  23  30
BRANCH  28  31
ATOM     31  O   UNL     1      -0.107  -2.708  -0.086  0.00  0.00    -0.491 OA
ATOM     32  C   UNL     1       0.449  -2.935  -1.383  0.00  0.00    +0.277 C 
ENDBRANCH  28  31
ENDBRANCH  22  27
ENDBRANCH  20  22
ENDBRANCH   1  20
BRANCH   4  33
ATOM     33  C   UNL     1      -2.613  -8.916   3.499  0.00  0.00    -0.042 C 
BRANCH  33  34
ATOM     34  C   UNL     1      -3.142  -8.614   4.878  0.00  0.00    -0.064 A 
ATOM     35  C   UNL     1      -2.454  -9.054   5.993  0.00  0.00    +0.002 A 
ATOM     36  C   UNL     1      -2.940  -8.777   7.258  0.00  0.00    +0.000 A 
ATOM     37  C   UNL     1      -4.112  -8.059   7.407  0.00  0.00    +0.000 A 
ATOM     38  C   UNL     1      -4.798  -7.618   6.291  0.00  0.00    +0.000 A 
ATOM     39  C   UNL     1      -4.311  -7.892   5.027  0.00  0.00    +0.002 A 
ENDBRANCH  33  34
ENDBRANCH   4  33
TORSDOF 11
