REMARK  Name = ZINC53362936
REMARK  8 active torsions:
REMARK  status: ('A' for Active; 'I' for Inactive)
REMARK    1  A    between atoms: C_1  and  O_2
REMARK    2  A    between atoms: O_2  and  C_3
REMARK    3  A    between atoms: C_6  and  C_9
REMARK    4  A    between atoms: C_11  and  C_26
REMARK    5  A    between atoms: C_14  and  C_17
REMARK    6  A    between atoms: C_21  and  O_24
REMARK    7  A    between atoms: C_22  and  O_23
REMARK    8  A    between atoms: O_24  and  C_25
REMARK                            x       y       z     vdW  Elec       q    Type
REMARK                         _______ _______ _______ _____ _____    ______ ____
ROOT
ATOM      1  C   UNL     1       2.490  -2.490  -4.359  0.00  0.00    +0.047 C 
ATOM      2  N   UNL     1       3.007  -1.752  -5.269  0.00  0.00    -0.264 NA
ATOM      3  C   UNL     1       3.674  -2.266  -6.459  0.00  0.00    +0.204 C 
ATOM      4  N   UNL     1       4.043  -3.675  -6.278  0.00  0.00    -0.284 NA
ATOM      5  C   UNL     1       2.877  -4.452  -5.824  0.00  0.00    +0.095 C 
ATOM      6  C   UNL     1       2.523  -3.993  -4.404  0.00  0.00    +0.079 C 
ATOM      7  H   UNL     1       4.425  -4.061  -7.128  0.00  0.00    +0.125 HD
ENDROOT
BRANCH   3   8
ATOM      8  C   UNL     1       2.745  -2.145  -7.640  0.00  0.00    -0.009 A 
ATOM      9  C   UNL     1       2.824  -3.055  -8.677  0.00  0.00    +0.008 A 
ATOM     10  C   UNL     1       1.973  -2.944  -9.760  0.00  0.00    +0.020 A 
ATOM     11  C   UNL     1       1.042  -1.921  -9.806  0.00  0.00    +0.041 A 
ATOM     12  C   UNL     1       0.964  -1.011  -8.768  0.00  0.00    +0.020 A 
ATOM     13  C   UNL     1       1.812  -1.126  -7.683  0.00  0.00    +0.008 A 
ATOM     14 CL   UNL     1      -0.027  -1.781 -11.167  0.00  0.00    -0.084 Cl
ENDBRANCH   3   8
BRANCH   1  18
ATOM     15  C   UNL     1       0.605  -0.607  -1.055  0.00  0.00    +0.120 A 
ATOM     16  C   UNL     1       1.172   0.166  -2.061  0.00  0.00    +0.046 A 
ATOM     17  C   UNL     1       1.785  -0.442  -3.135  0.00  0.00    +0.013 A 
ATOM     18  C   UNL     1       1.836  -1.836  -3.211  0.00  0.00    -0.004 A 
ATOM     19  C   UNL     1       1.264  -2.609  -2.197  0.00  0.00    +0.013 A 
ATOM     20  C   UNL     1       0.659  -1.993  -1.123  0.00  0.00    +0.046 A 
BRANCH  15  22
ATOM     21  C   UNL     1      -0.017   1.425   0.010  0.00  0.00    +0.277 C 
ATOM     22  O   UNL     1       0.002  -0.004   0.002  0.00  0.00    -0.495 OA
ENDBRANCH  15  22
ENDBRANCH   1  18
BRANCH   5  23
ATOM     23  C   UNL     1       3.217  -5.920  -5.812  0.00  0.00    +0.015 A 
ATOM     24  C   UNL     1       4.533  -6.324  -5.675  0.00  0.00    +0.009 A 
ATOM     25  C   UNL     1       4.848  -7.670  -5.664  0.00  0.00    +0.004 A 
ATOM     26  C   UNL     1       3.850  -8.618  -5.790  0.00  0.00    +0.049 A 
ATOM     27  C   UNL     1       2.530  -8.220  -5.928  0.00  0.00    +0.162 A 
ATOM     28  C   UNL     1       2.212  -6.865  -5.933  0.00  0.00    +0.163 A 
BRANCH  28  29
ATOM     29  O   UNL     1       0.917  -6.470  -6.061  0.00  0.00    -0.503 OA
ATOM     30  H   UNL     1       0.634  -6.341  -6.977  0.00  0.00    +0.292 HD
ENDBRANCH  28  29
BRANCH  27  31
ATOM     31  O   UNL     1       1.547  -9.152  -6.052  0.00  0.00    -0.491 OA
ATOM     32  C   UNL     1       1.947 -10.524  -6.032  0.00  0.00    +0.277 C 
ENDBRANCH  27  31
ENDBRANCH   5  23
TORSDOF 6
