REMARK  Name = ZINC12902062
REMARK  5 active torsions:
REMARK  status: ('A' for Active; 'I' for Inactive)
REMARK    1  A    between atoms: C_1  and  C_2
REMARK    2  A    between atoms: C_13  and  C_15
REMARK    3  A    between atoms: C_15  and  C_16
REMARK    4  A    between atoms: C_23  and  O_26
REMARK    5  A    between atoms: N_29  and  C_32
REMARK                            x       y       z     vdW  Elec       q    Type
REMARK                         _______ _______ _______ _____ _____    ______ ____
ROOT
ATOM      1  C   UNL     1       5.926   2.667   6.502  0.00  0.00    +0.044 C 
ATOM      2  C   UNL     1       5.734   2.442   5.024  0.00  0.00    -0.050 A 
ATOM      3  C   UNL     1       6.410   1.418   4.386  0.00  0.00    +0.005 A 
ATOM      4  C   UNL     1       6.238   1.208   3.033  0.00  0.00    +0.024 A 
ATOM      5  C   UNL     1       5.382   2.026   2.300  0.00  0.00    +0.036 A 
ATOM      6  C   UNL     1       4.707   3.053   2.953  0.00  0.00    -0.027 A 
ATOM      7  C   UNL     1       4.882   3.260   4.303  0.00  0.00    +0.008 A 
ATOM      8  C   UNL     1       3.879   3.735   1.901  0.00  0.00    +0.050 C 
ATOM      9  C   UNL     1       4.239   5.220   1.775  0.00  0.00    +0.088 C 
ATOM     10  C   UNL     1       2.889   5.924   1.461  0.00  0.00    +0.074 C 
ATOM     11  C   UNL     1       1.849   4.785   1.416  0.00  0.00    -0.053 C 
ATOM     12  C   UNL     1       2.646   6.775   2.686  0.00  0.00    +0.228 C 
ATOM     13  O   UNL     1       1.683   7.489   2.863  0.00  0.00    -0.275 OA
ATOM     14  N   UNL     1       3.660   6.617   3.545  0.00  0.00    -0.210 N 
ATOM     15  C   UNL     1       4.610   5.770   3.134  0.00  0.00    +0.229 C 
ATOM     16  O   UNL     1       5.612   5.487   3.755  0.00  0.00    -0.275 OA
ATOM     17  C   UNL     1       4.172   2.988   0.628  0.00  0.00    +0.211 C 
ATOM     18  O   UNL     1       3.708   3.217  -0.469  0.00  0.00    -0.277 OA
ATOM     19  N   UNL     1       5.048   2.015   0.943  0.00  0.00    -0.286 N 
ATOM     20  H   UNL     1       5.407   1.381   0.303  0.00  0.00    +0.155 HD
ATOM     21  N   UNL     1       2.460   3.716   2.209  0.00  0.00    +0.394 N 
ATOM     22  H   UNL     1       2.311   3.887   3.210  0.00  0.00    -0.083 HD
ATOM     23  H   UNL     1       2.053   2.808   1.953  0.00  0.00    -0.083 HD
ENDROOT
BRANCH  14  24
ATOM     24  C   UNL     1       3.721   7.286   4.776  0.00  0.00    +0.044 A 
ATOM     25  C   UNL     1       2.804   6.989   5.775  0.00  0.00    +0.024 A 
ATOM     26  C   UNL     1       2.870   7.646   6.989  0.00  0.00    +0.002 A 
ATOM     27  C   UNL     1       3.842   8.605   7.205  0.00  0.00    +0.000 A 
ATOM     28  C   UNL     1       4.753   8.906   6.210  0.00  0.00    +0.002 A 
ATOM     29  C   UNL     1       4.696   8.249   4.997  0.00  0.00    +0.024 A 
ENDBRANCH  14  24
BRANCH  11  30
ATOM     30  C   UNL     1       1.635   4.317  -0.025  0.00  0.00    +0.022 C 
BRANCH  30  31
ATOM     31  C   UNL     1       0.489   5.080  -0.636  0.00  0.00    -0.024 A 
ATOM     32  C   UNL     1      -0.793   4.684  -0.695  0.00  0.00    +0.087 A 
ATOM     33  N   UNL     1      -1.547   5.638  -1.323  0.00  0.00    -0.360 N 
ATOM     34  H   UNL     1      -2.502   5.576  -1.483  0.00  0.00    +0.165 HD
ATOM     35  C   UNL     1      -0.747   6.696  -1.699  0.00  0.00    +0.047 A 
ATOM     36  C   UNL     1       0.561   6.394  -1.280  0.00  0.00    +0.006 A 
ATOM     37  C   UNL     1       1.598   7.297  -1.524  0.00  0.00    +0.055 A 
ATOM     38  C   UNL     1       1.329   8.486  -2.173  0.00  0.00    +0.118 A 
ATOM     39  C   UNL     1       0.031   8.784  -2.582  0.00  0.00    +0.047 A 
ATOM     40  C   UNL     1      -0.999   7.901  -2.346  0.00  0.00    +0.030 A 
BRANCH  38  41
ATOM     41  O   UNL     1       2.334   9.369  -2.415  0.00  0.00    -0.507 OA
ATOM     42  H   UNL     1       2.780   9.235  -3.263  0.00  0.00    +0.292 HD
ENDBRANCH  38  41
ENDBRANCH  30  31
ENDBRANCH  11  30
TORSDOF 4
