REMARK  Name = ZINC07987856
REMARK  9 active torsions:
REMARK  status: ('A' for Active; 'I' for Inactive)
REMARK    1  A    between atoms: C_1  and  C_2
REMARK    2  A    between atoms: C_2  and  C_3
REMARK    3  A    between atoms: C_3  and  C_4
REMARK    4  A    between atoms: C_4  and  N_5
REMARK    5  A    between atoms: C_6  and  N_32
REMARK    6  A    between atoms: C_7  and  N_14
REMARK    7  A    between atoms: N_14  and  C_15
REMARK    8  A    between atoms: C_15  and  C_16
REMARK    9  A    between atoms: C_21  and  C_23
REMARK                            x       y       z     vdW  Elec       q    Type
REMARK                         _______ _______ _______ _____ _____    ______ ____
ROOT
ATOM      1  N   UNL     1       3.602   3.451   0.116  0.00  0.00    -0.253 N 
ATOM      2  C   UNL     1       3.303   2.151   0.308  0.00  0.00    +0.251 C 
ATOM      3  O   UNL     1       2.143   1.802   0.403  0.00  0.00    -0.270 OA
ENDROOT
BRANCH   1   6
ATOM      4  N   UNL     1       6.965   3.768  -1.329  0.00  0.00    -0.280 N 
ATOM      5  C   UNL     1       5.660   3.365  -1.160  0.00  0.00    +0.127 A 
ATOM      6  C   UNL     1       4.941   3.845  -0.084  0.00  0.00    +0.140 A 
ATOM      7  C   UNL     1       5.566   4.738   0.806  0.00  0.00    +0.277 A 
ATOM      8  O   UNL     1       4.953   5.182   1.762  0.00  0.00    -0.266 OA
ATOM      9  N   UNL     1       6.848   5.097   0.598  0.00  0.00    -0.273 N 
ATOM     10  H   UNL     1       7.296   5.725   1.235  0.00  0.00    +0.173 HD
ATOM     11  C   UNL     1       7.533   4.619  -0.456  0.00  0.00    +0.331 A 
ATOM     12  O   UNL     1       8.688   4.963  -0.624  0.00  0.00    -0.246 OA
BRANCH   5  13
ATOM     13  N   UNL     1       5.080   2.495  -2.052  0.00  0.00    -0.343 N 
ATOM     14  H   UNL     1       4.139   2.275  -1.972  0.00  0.00    +0.144 HD
ATOM     15  H   UNL     1       5.612   2.102  -2.761  0.00  0.00    +0.144 HD
ENDBRANCH   5  13
BRANCH   4  16
ATOM     16  C   UNL     1       7.740   3.267  -2.467  0.00  0.00    +0.128 C 
BRANCH  16  17
ATOM     17  C   UNL     1       7.562   4.209  -3.660  0.00  0.00    +0.021 C 
BRANCH  17  19
ATOM     18  C   UNL     1       8.193   4.628  -6.041  0.00  0.00    +0.004 C 
ATOM     19  C   UNL     1       8.371   3.686  -4.848  0.00  0.00    -0.002 C 
ENDBRANCH  17  19
ENDBRANCH  16  17
ENDBRANCH   4  16
ENDBRANCH   1   6
BRANCH   2  20
ATOM     20  C   UNL     1       4.387   1.150   0.403  0.00  0.00    +0.038 A 
ATOM     21  C   UNL     1       5.675   1.542   0.773  0.00  0.00    +0.013 A 
ATOM     22  C   UNL     1       6.678   0.602   0.859  0.00  0.00    +0.004 A 
ATOM     23  C   UNL     1       6.417  -0.731   0.579  0.00  0.00    -0.044 A 
ATOM     24  C   UNL     1       5.143  -1.126   0.211  0.00  0.00    -0.043 A 
ATOM     25  C   UNL     1       4.129  -0.191   0.123  0.00  0.00    +0.017 A 
ATOM     26  C   UNL     1       5.122  -2.619  -0.037  0.00  0.00    +0.036 C 
ATOM     27  C   UNL     1       6.401  -3.159   0.638  0.00  0.00    +0.009 C 
ATOM     28  C   UNL     1       7.338  -1.933   0.602  0.00  0.00    +0.036 C 
ENDBRANCH   2  20
BRANCH   1  29
ATOM     29  C   UNL     1       2.536   4.456   0.116  0.00  0.00    +0.188 C 
BRANCH  29  30
ATOM     30  C   UNL     1       2.212   4.845   1.536  0.00  0.00    +0.122 A 
ATOM     31  C   UNL     1       2.674   5.934   2.177  0.00  0.00    +0.046 A 
ATOM     32  C   UNL     1       2.122   5.907   3.479  0.00  0.00    +0.041 A 
ATOM     33  C   UNL     1       1.356   4.804   3.554  0.00  0.00    +0.195 A 
ATOM     34  O   UNL     1       1.410   4.168   2.373  0.00  0.00    -0.466 OA
ENDBRANCH  29  30
ENDBRANCH   1  29
TORSDOF 8
