REMARK  Name = ZINC01440822
REMARK  8 active torsions:
REMARK  status: ('A' for Active; 'I' for Inactive)
REMARK    1  A    between atoms: C_4  and  O_24
REMARK    2  A    between atoms: C_5  and  C_7
REMARK    3  A    between atoms: C_14  and  C_16
REMARK    4  A    between atoms: C_16  and  O_17
REMARK    5  A    between atoms: C_19  and  N_23
REMARK    6  A    between atoms: C_20  and  C_21
REMARK    7  A    between atoms: O_24  and  C_25
REMARK    8  A    between atoms: C_25  and  C_26
REMARK                            x       y       z     vdW  Elec       q    Type
REMARK                         _______ _______ _______ _____ _____    ______ ____
ROOT
ATOM      1  C   UNL     1      -1.285  -0.789   0.011  0.00  0.00    +0.138 C 
ATOM      2  C   UNL     1       0.002  -0.004   0.002  0.00  0.00    +0.164 A 
ATOM      3  C   UNL     1      -0.016   1.345   0.009  0.00  0.00    +0.215 A 
ATOM      4  C   UNL     1       1.219   2.054   0.002  0.00  0.00    +0.228 A 
ATOM      5  O   UNL     1       1.240   3.275   0.007  0.00  0.00    -0.284 OA
ATOM      6  C   UNL     1       2.422   1.306  -0.012  0.00  0.00    +0.098 A 
ATOM      7  C   UNL     1       2.350  -0.041  -0.020  0.00  0.00    +0.134 A 
ATOM      8  O   UNL     1       1.170  -0.668  -0.013  0.00  0.00    -0.457 OA
ATOM      9  O   UNL     1      -1.180   2.040   0.019  0.00  0.00    -0.434 OA
ATOM     10  C   UNL     1      -2.322   1.443  -0.357  0.00  0.00    +0.199 C 
ATOM     11  C   UNL     1      -2.436   0.092  -0.386  0.00  0.00    +0.101 C 
ENDROOT
BRANCH   1  16
ATOM     12  C   UNL     1      -1.880  -0.958   3.736  0.00  0.00    +0.001 A 
ATOM     13  C   UNL     1      -1.977  -2.321   3.942  0.00  0.00    +0.004 A 
ATOM     14  C   UNL     1      -1.851  -3.192   2.877  0.00  0.00    +0.046 A 
ATOM     15  C   UNL     1      -1.626  -2.698   1.601  0.00  0.00    +0.125 A 
ATOM     16  C   UNL     1      -1.529  -1.329   1.397  0.00  0.00    +0.010 A 
ATOM     17  C   UNL     1      -1.651  -0.462   2.466  0.00  0.00    +0.008 A 
BRANCH  15  18
ATOM     18  O   UNL     1      -1.501  -3.553   0.551  0.00  0.00    -0.487 OA
BRANCH  18  19
ATOM     19  C   UNL     1      -1.612  -4.949   0.836  0.00  0.00    +0.264 C 
BRANCH  19  20
ATOM     20  C   UNL     1      -1.449  -5.736  -0.439  0.00  0.00    -0.010 A 
ATOM     21  C   UNL     1      -2.556  -6.045  -1.207  0.00  0.00    +0.008 A 
ATOM     22  C   UNL     1      -2.406  -6.762  -2.379  0.00  0.00    +0.020 A 
ATOM     23  C   UNL     1      -1.149  -7.179  -2.779  0.00  0.00    +0.041 A 
ATOM     24  C   UNL     1      -0.042  -6.874  -2.007  0.00  0.00    +0.020 A 
ATOM     25  C   UNL     1      -0.192  -6.152  -0.838  0.00  0.00    +0.008 A 
ATOM     26 CL   UNL     1      -0.961  -8.085  -4.248  0.00  0.00    -0.084 Cl
ENDBRANCH  19  20
ENDBRANCH  18  19
ENDBRANCH  15  18
ENDBRANCH   1  16
BRANCH  10  27
ATOM     27  N   UNL     1      -3.395   2.216  -0.725  0.00  0.00    -0.328 N 
ATOM     28  H   UNL     1      -4.224   1.796  -1.002  0.00  0.00    +0.145 HD
ATOM     29  H   UNL     1      -3.324   3.184  -0.708  0.00  0.00    +0.145 HD
ENDBRANCH  10  27
BRANCH  11  30
ATOM     30  C   UNL     1      -3.670  -0.504  -0.799  0.00  0.00    +0.101 C 
ATOM     31  N   UNL     1      -4.649  -0.976  -1.128  0.00  0.00    -0.191 NA
ENDBRANCH  11  30
BRANCH   7  32
ATOM     32  C   UNL     1       3.621  -0.851  -0.036  0.00  0.00    +0.230 C 
BRANCH  32  33
ATOM     33  O   UNL     1       4.034  -1.115   1.306  0.00  0.00    -0.387 OA
ATOM     34  H   UNL     1       4.848  -1.634   1.372  0.00  0.00    +0.210 HD
ENDBRANCH  32  33
ENDBRANCH   7  32
TORSDOF 8
