REMARK  Name = ZINC24893812
REMARK  6 active torsions:
REMARK  status: ('A' for Active; 'I' for Inactive)
REMARK    1  A    between atoms: C_1  and  C_2
REMARK    2  A    between atoms: C_2  and  C_4
REMARK    3  A    between atoms: C_2  and  N_10
REMARK    4  A    between atoms: N_6  and  C_7
REMARK    5  A    between atoms: N_13  and  S_16
REMARK    6  A    between atoms: S_16  and  C_19
REMARK                            x       y       z     vdW  Elec       q    Type
REMARK                         _______ _______ _______ _____ _____    ______ ____
ROOT
ATOM      1  N   UNL     1      -0.421   1.392   0.177  0.00  0.00    +0.389 N 
ATOM      2  C   UNL     1      -1.364   1.792  -0.877  0.00  0.00    -0.060 C 
ATOM      3  C   UNL     1      -1.918   3.185  -0.559  0.00  0.00    +0.091 C 
ATOM      4  N   UNL     1      -0.787   4.103  -0.355  0.00  0.00    -0.180 NA
ATOM      5  C   UNL     1       0.270   3.705   0.587  0.00  0.00    +0.091 C 
ATOM      6  C   UNL     1       0.739   2.292   0.224  0.00  0.00    -0.060 C 
ATOM      7  H   UNL     1      -0.945   1.470   1.141  0.00  0.00    -0.081 HD
ENDROOT
BRANCH   4   8
ATOM      8  S   UNL     1      -0.707   5.546  -1.163  0.00  0.00    +0.061 S 
ATOM      9  O   UNL     1      -2.041   5.888  -1.516  0.00  0.00    -0.153 OA
ATOM     10  O   UNL     1       0.118   6.402  -0.385  0.00  0.00    -0.153 OA
BRANCH   8  11
ATOM     11  C   UNL     1       0.153   5.251  -2.672  0.00  0.00    +0.106 A 
ATOM     12  C   UNL     1       1.529   5.388  -2.720  0.00  0.00    +0.030 A 
ATOM     13  C   UNL     1       2.207   5.154  -3.900  0.00  0.00    +0.025 A 
ATOM     14  C   UNL     1       1.505   4.789  -5.041  0.00  0.00    +0.037 A 
ATOM     15  C   UNL     1       0.124   4.657  -4.991  0.00  0.00    -0.024 A 
ATOM     16  C   UNL     1      -0.549   4.888  -3.807  0.00  0.00    +0.034 A 
ATOM     17  C   UNL     1      -0.638   4.260  -6.229  0.00  0.00    +0.046 C 
ATOM     18  C   UNL     1       0.047   4.852  -7.461  0.00  0.00    +0.101 C 
ATOM     19  C   UNL     1       1.524   4.567  -7.413  0.00  0.00    +0.218 C 
ATOM     20  O   UNL     1       2.127   4.348  -8.442  0.00  0.00    -0.275 OA
ATOM     21  N   UNL     1       2.185   4.555  -6.240  0.00  0.00    -0.285 N 
ATOM     22  H   UNL     1       3.267   4.359  -6.230  0.00  0.00    +0.155 HD
ENDBRANCH   8  11
ENDBRANCH   4   8
BRANCH   1  24
ATOM     23  C   UNL     1       1.029  -0.088  -1.129  0.00  0.00    -0.004 C 
ATOM     24  C   UNL     1       0.002  -0.004   0.002  0.00  0.00    +0.016 C 
BRANCH  24  25
ATOM     25  C   UNL     1       0.622  -0.505   1.281  0.00  0.00    +0.199 C 
ATOM     26  O   UNL     1       0.925   0.279   2.155  0.00  0.00    -0.278 OA
ATOM     27  N   UNL     1       0.838  -1.824   1.454  0.00  0.00    -0.314 N 
ATOM     28  H   UNL     1       0.563  -2.535   0.661  0.00  0.00    +0.149 HD
BRANCH  27  29
ATOM     29  C   UNL     1       1.440  -2.311   2.697  0.00  0.00    +0.073 C 
ATOM     30  C   UNL     1       2.532  -3.377   2.583  0.00  0.00    +0.024 C 
ATOM     31  C   UNL     1       1.145  -3.755   3.107  0.00  0.00    +0.024 C 
ENDBRANCH  27  29
ENDBRANCH  24  25
ENDBRANCH   1  24
TORSDOF 5
