REMARK  Name = ZINC61984081
REMARK  10 active torsions:
REMARK  status: ('A' for Active; 'I' for Inactive)
REMARK    1  A    between atoms: C_1  and  C_2
REMARK    2  A    between atoms: C_2  and  C_4
REMARK    3  A    between atoms: C_2  and  C_17
REMARK    4  A    between atoms: C_4  and  N_5
REMARK    5  A    between atoms: C_10  and  C_12
REMARK    6  A    between atoms: N_19  and  C_20
REMARK    7  A    between atoms: C_20  and  C_21
REMARK    8  A    between atoms: C_21  and  C_22
REMARK    9  A    between atoms: C_25  and  S_28
REMARK   10  A    between atoms: S_28  and  N_31
REMARK                            x       y       z     vdW  Elec       q    Type
REMARK                         _______ _______ _______ _____ _____    ______ ____
ROOT
ATOM      1  C   UNL     1       0.731  -0.503   1.223  0.00  0.00    +0.218 C 
ATOM      2  O   UNL     1       1.725  -1.187   1.099  0.00  0.00    -0.275 OA
ATOM      3  N   UNL     1       0.278  -0.191   2.453  0.00  0.00    -0.315 N 
ATOM      4  H   UNL     1      -0.517   0.356   2.553  0.00  0.00    +0.149 HD
ENDROOT
BRANCH   1   6
ATOM      5  C   UNL     1      -0.019   1.526   0.010  0.00  0.00    +0.019 C 
ATOM      6  C   UNL     1       0.002  -0.004   0.002  0.00  0.00    +0.093 C 
BRANCH   6   7
ATOM      7  C   UNL     1       0.718  -0.497  -1.257  0.00  0.00    +0.160 C 
BRANCH   7   8
ATOM      8  N   UNL     1      -0.055  -0.114  -2.441  0.00  0.00    -0.228 N 
ATOM      9  C   UNL     1       0.197   1.069  -3.032  0.00  0.00    +0.267 A 
ATOM     10  O   UNL     1       1.060   1.808  -2.585  0.00  0.00    -0.266 OA
ATOM     11  C   UNL     1      -0.543   1.448  -4.174  0.00  0.00    +0.074 A 
ATOM     12  C   UNL     1      -1.494   0.588  -4.634  0.00  0.00    +0.038 A 
ATOM     13  C   UNL     1      -1.684  -0.633  -3.942  0.00  0.00    +0.126 A 
ATOM     14  N   UNL     1      -0.951  -0.917  -2.888  0.00  0.00    -0.165 NA
BRANCH  13  15
ATOM     15  C   UNL     1      -2.705  -1.593  -4.408  0.00  0.00    +0.155 A 
ATOM     16  C   UNL     1      -2.993  -2.793  -3.836  0.00  0.00    +0.051 A 
ATOM     17  C   UNL     1      -4.024  -3.371  -4.603  0.00  0.00    +0.042 A 
ATOM     18  C   UNL     1      -4.312  -2.505  -5.595  0.00  0.00    +0.196 A 
ATOM     19  O   UNL     1      -3.517  -1.430  -5.471  0.00  0.00    -0.461 OA
ENDBRANCH  13  15
ENDBRANCH   7   8
ENDBRANCH   6   7
ENDBRANCH   1   6
BRANCH   3  20
ATOM     20  C   UNL     1       0.986  -0.676   3.640  0.00  0.00    +0.109 C 
BRANCH  20  21
ATOM     21  C   UNL     1       0.270  -0.182   4.899  0.00  0.00    +0.054 C 
BRANCH  21  22
ATOM     22  C   UNL     1       0.999  -0.682   6.120  0.00  0.00    -0.046 A 
ATOM     23  C   UNL     1       0.659  -1.900   6.677  0.00  0.00    +0.005 A 
ATOM     24  C   UNL     1       1.328  -2.358   7.797  0.00  0.00    +0.029 A 
ATOM     25  C   UNL     1       2.337  -1.598   8.359  0.00  0.00    +0.105 A 
ATOM     26  C   UNL     1       2.677  -0.380   7.801  0.00  0.00    +0.029 A 
ATOM     27  C   UNL     1       2.011   0.076   6.678  0.00  0.00    +0.005 A 
BRANCH  25  28
ATOM     28  S   UNL     1       3.188  -2.181   9.787  0.00  0.00    +0.056 S 
ATOM     29  O   UNL     1       3.717  -1.035  10.441  0.00  0.00    -0.153 OA
ATOM     30  O   UNL     1       2.313  -3.093  10.438  0.00  0.00    -0.153 OA
BRANCH  28  31
ATOM     31  N   UNL     1       4.484  -3.064   9.258  0.00  0.00    -0.204 NA
ATOM     32  H   UNL     1       5.293  -3.108   9.792  0.00  0.00    +0.144 HD
ATOM     33  H   UNL     1       4.436  -3.538   8.413  0.00  0.00    +0.144 HD
ENDBRANCH  28  31
ENDBRANCH  25  28
ENDBRANCH  21  22
ENDBRANCH  20  21
ENDBRANCH   3  20
TORSDOF 9
