REMARK  Name = ZINC14158081
REMARK  10 active torsions:
REMARK  status: ('A' for Active; 'I' for Inactive)
REMARK    1  A    between atoms: C_1  and  C_2
REMARK    2  A    between atoms: C_4  and  C_35
REMARK    3  A    between atoms: C_6  and  N_8
REMARK    4  A    between atoms: N_8  and  C_9
REMARK    5  A    between atoms: C_9  and  N_11
REMARK    6  A    between atoms: N_13  and  C_14
REMARK    7  A    between atoms: C_14  and  C_15
REMARK    8  A    between atoms: C_15  and  C_16
REMARK    9  A    between atoms: C_29  and  C_34
REMARK   10  A    between atoms: C_31  and  C_33
REMARK                            x       y       z     vdW  Elec       q    Type
REMARK                         _______ _______ _______ _____ _____    ______ ____
ROOT
ATOM      1  N   UNL     1       4.808   3.998  -0.118  0.00  0.00    -0.159 NA
ATOM      2  C   UNL     1       4.883   5.317  -0.079  0.00  0.00    +0.195 C 
ATOM      3  N   UNL     1       3.742   6.067  -0.095  0.00  0.00    -0.357 N 
ATOM      4  N   UNL     1       6.105   5.932  -0.022  0.00  0.00    -0.297 N 
ATOM      5  C   UNL     1       7.265   5.170  -0.006  0.00  0.00    +0.231 A 
ATOM      6  N   UNL     1       7.172   3.849  -0.040  0.00  0.00    -0.217 NA
ATOM      7  C   UNL     1       8.258   3.094  -0.031  0.00  0.00    +0.044 A 
ATOM      8  C   UNL     1       9.503   3.701   0.026  0.00  0.00    +0.046 A 
ATOM      9  C   UNL     1       9.564   5.085   0.067  0.00  0.00    +0.044 A 
ATOM     10  N   UNL     1       8.439   5.781   0.050  0.00  0.00    -0.217 NA
ATOM     11  C   UNL     1      10.895   5.788   0.129  0.00  0.00    +0.066 C 
ATOM     12  C   UNL     1       8.142   1.592  -0.078  0.00  0.00    +0.066 C 
ATOM     13  H   UNL     1       2.760   5.574  -0.052  0.00  0.00    +0.162 HD
ATOM     14  H   UNL     1       6.167   7.030   0.011  0.00  0.00    +0.171 HD
ENDROOT
BRANCH   1  15
ATOM     15  C   UNL     1       3.611   3.395  -0.123  0.00  0.00    +0.161 C 
ATOM     16  S   UNL     1       2.550   3.608  -1.450  0.00  0.00    -0.016 S 
BRANCH  15  17
ATOM     17  N   UNL     1       3.243   2.620   0.916  0.00  0.00    -0.295 N 
ATOM     18  H   UNL     1       3.881   2.557   1.809  0.00  0.00    +0.154 HD
BRANCH  17  24
ATOM     19  C   UNL     1      -0.836   1.003   3.134  0.00  0.00    +0.044 C 
ATOM     20  C   UNL     1       0.053   1.092   1.920  0.00  0.00    -0.048 A 
ATOM     21  C   UNL     1      -0.315   0.460   0.747  0.00  0.00    +0.006 A 
ATOM     22  C   UNL     1       0.495   0.543  -0.371  0.00  0.00    -0.048 A 
ATOM     23  C   UNL     1       1.675   1.259  -0.318  0.00  0.00    +0.026 A 
ATOM     24  C   UNL     1       2.048   1.895   0.859  0.00  0.00    +0.033 A 
ATOM     25  C   UNL     1       1.232   1.809   1.980  0.00  0.00    +0.026 A 
ATOM     26  C   UNL     1       0.090  -0.147  -1.648  0.00  0.00    +0.044 C 
ENDBRANCH  17  24
ENDBRANCH  15  17
ENDBRANCH   1  15
BRANCH   3  27
ATOM     27  C   UNL     1       3.826   7.527  -0.169  0.00  0.00    +0.120 C 
BRANCH  27  28
ATOM     28  C   UNL     1       2.415   8.120  -0.172  0.00  0.00    +0.058 C 
BRANCH  28  29
ATOM     29  C   UNL     1       2.502   9.622  -0.248  0.00  0.00    -0.021 A 
ATOM     30  C   UNL     1       2.467  10.477   0.786  0.00  0.00    +0.087 A 
ATOM     31  N   UNL     1       2.574  11.764   0.331  0.00  0.00    -0.360 N 
ATOM     32  H   UNL     1       2.570  12.601   1.044  0.00  0.00    +0.165 HD
ATOM     33  C   UNL     1       2.673  11.768  -1.042  0.00  0.00    +0.047 A 
ATOM     34  C   UNL     1       2.632  10.427  -1.466  0.00  0.00    +0.003 A 
ATOM     35  C   UNL     1       2.715  10.123  -2.825  0.00  0.00    +0.010 A 
ATOM     36  C   UNL     1       2.835  11.131  -3.740  0.00  0.00    +0.001 A 
ATOM     37  C   UNL     1       2.875  12.456  -3.328  0.00  0.00    +0.002 A 
ATOM     38  C   UNL     1       2.796  12.778  -1.990  0.00  0.00    +0.026 A 
ENDBRANCH  28  29
ENDBRANCH  27  28
ENDBRANCH   3  27
TORSDOF 6
