REMARK  Name = ZINC09292638
REMARK  8 active torsions:
REMARK  status: ('A' for Active; 'I' for Inactive)
REMARK    1  A    between atoms: C_4  and  C_7
REMARK    2  A    between atoms: C_7  and  O_8
REMARK    3  A    between atoms: O_8  and  C_9
REMARK    4  A    between atoms: C_12  and  C_15
REMARK    5  A    between atoms: C_22  and  N_38
REMARK    6  A    between atoms: C_23  and  C_36
REMARK    7  A    between atoms: C_24  and  C_26
REMARK    8  A    between atoms: C_31  and  C_32
REMARK                            x       y       z     vdW  Elec       q    Type
REMARK                         _______ _______ _______ _____ _____    ______ ____
ROOT
ATOM      1  C   UNL     1       9.371  -3.916   2.481  0.00  0.00    +0.074 A 
ATOM      2  C   UNL     1       9.451  -4.966   3.333  0.00  0.00    +0.054 A 
ATOM      3  C   UNL     1      10.748  -5.509   3.238  0.00  0.00    +0.245 A 
ATOM      4  N   UNL     1      11.419  -4.815   2.363  0.00  0.00    -0.135 NA
ATOM      5  N   UNL     1      10.583  -3.806   1.860  0.00  0.00    -0.273 N 
ATOM      6  H   UNL     1      10.824  -3.145   1.191  0.00  0.00    +0.189 HD
ATOM      7  O   UNL     1      11.136  -6.580   3.981  0.00  0.00    -0.421 OA
ATOM      8  C   UNL     1      10.344  -6.945   5.008  0.00  0.00    +0.201 C 
ATOM      9  C   UNL     1       9.083  -6.501   5.196  0.00  0.00    +0.098 C 
ATOM     10  C   UNL     1       8.405  -5.533   4.259  0.00  0.00    +0.102 C 
ENDROOT
BRANCH   1  14
ATOM     11  C   UNL     1       5.976  -1.440   1.842  0.00  0.00    +0.121 A 
ATOM     12  C   UNL     1       6.675  -1.950   0.757  0.00  0.00    +0.046 A 
ATOM     13  C   UNL     1       7.777  -2.753   0.960  0.00  0.00    +0.013 A 
ATOM     14  C   UNL     1       8.190  -3.054   2.259  0.00  0.00    +0.000 A 
ATOM     15  C   UNL     1       7.484  -2.539   3.347  0.00  0.00    +0.013 A 
ATOM     16  C   UNL     1       6.386  -1.733   3.136  0.00  0.00    +0.046 A 
BRANCH  11  17
ATOM     17  O   UNL     1       4.890  -0.649   1.638  0.00  0.00    -0.487 OA
BRANCH  17  18
ATOM     18  C   UNL     1       4.523  -0.388   0.282  0.00  0.00    +0.264 C 
BRANCH  18  22
ATOM     19  C   UNL     1       1.074   2.130   0.197  0.00  0.00    +0.000 A 
ATOM     20  C   UNL     1       2.338   2.689   0.206  0.00  0.00    +0.000 A 
ATOM     21  C   UNL     1       3.454   1.874   0.234  0.00  0.00    +0.007 A 
ATOM     22  C   UNL     1       3.306   0.500   0.253  0.00  0.00    -0.010 A 
ATOM     23  C   UNL     1       2.042  -0.059   0.245  0.00  0.00    +0.007 A 
ATOM     24  C   UNL     1       0.926   0.756   0.216  0.00  0.00    +0.000 A 
ENDBRANCH  18  22
ENDBRANCH  17  18
ENDBRANCH  11  17
ENDBRANCH   1  14
BRANCH  10  25
ATOM     25  C   UNL     1       7.353  -6.254   3.456  0.00  0.00    -0.023 A 
ATOM     26  C   UNL     1       6.016  -6.100   3.772  0.00  0.00    +0.005 A 
ATOM     27  C   UNL     1       5.051  -6.761   3.036  0.00  0.00    +0.000 A 
ATOM     28  C   UNL     1       5.423  -7.576   1.983  0.00  0.00    +0.001 A 
ATOM     29  C   UNL     1       6.759  -7.729   1.666  0.00  0.00    +0.012 A 
ATOM     30  C   UNL     1       7.724  -7.065   2.400  0.00  0.00    +0.059 A 
BRANCH  30  31
ATOM     31  C   UNL     1       9.181  -7.228   2.051  0.00  0.00    +0.418 C 
ATOM     32  F   UNL     1       9.313  -8.180   1.034  0.00  0.00    -0.166 F 
ATOM     33  F   UNL     1       9.696  -6.003   1.613  0.00  0.00    -0.166 F 
ATOM     34  F   UNL     1       9.887  -7.653   3.182  0.00  0.00    -0.166 F 
ENDBRANCH  30  31
ENDBRANCH  10  25
BRANCH   8  35
ATOM     35  N   UNL     1      10.853  -7.829   5.926  0.00  0.00    -0.328 N 
ATOM     36  H   UNL     1      11.756  -8.169   5.822  0.00  0.00    +0.145 HD
ATOM     37  H   UNL     1      10.311  -8.114   6.678  0.00  0.00    +0.145 HD
ENDBRANCH   8  35
BRANCH   9  38
ATOM     38  C   UNL     1       8.356  -6.971   6.336  0.00  0.00    +0.101 C 
ATOM     39  N   UNL     1       7.779  -7.344   7.241  0.00  0.00    -0.191 NA
ENDBRANCH   9  38
TORSDOF 8
