REMARK  Name = ZINC12608791
REMARK  13 active torsions:
REMARK  status: ('A' for Active; 'I' for Inactive)
REMARK    1  A    between atoms: C_1  and  C_2
REMARK    2  A    between atoms: N_12  and  C_13
REMARK    3  A    between atoms: C_13  and  C_14
REMARK    4  A    between atoms: N_16  and  C_17
REMARK    5  A    between atoms: N_16  and  C_21
REMARK    6  A    between atoms: C_17  and  C_18
REMARK    7  A    between atoms: C_18  and  C_19
REMARK    8  A    between atoms: C_18  and  C_20
REMARK    9  A    between atoms: C_22  and  N_34
REMARK   10  A    between atoms: N_23  and  C_30
REMARK   11  A    between atoms: C_30  and  C_31
REMARK   12  A    between atoms: C_31  and  C_32
REMARK   13  A    between atoms: C_31  and  C_33
REMARK                            x       y       z     vdW  Elec       q    Type
REMARK                         _______ _______ _______ _____ _____    ______ ____
ROOT
ATOM      1  C   UNL     1      -1.138   0.416  -1.875  0.00  0.00    +0.237 C 
ATOM      2  O   UNL     1      -1.616   0.691  -2.956  0.00  0.00    -0.274 OA
ATOM      3  N   UNL     1      -0.404   1.332  -1.210  0.00  0.00    -0.263 N 
ENDROOT
BRANCH   3   4
ATOM      4  C   UNL     1      -0.106   2.572  -1.814  0.00  0.00    +0.140 A 
ATOM      5  C   UNL     1       1.201   2.927  -2.080  0.00  0.00    +0.127 A 
ATOM      6  N   UNL     1       1.460   4.142  -2.671  0.00  0.00    -0.280 N 
ATOM      7  C   UNL     1       0.451   4.974  -2.986  0.00  0.00    +0.331 A 
ATOM      8  O   UNL     1       0.701   6.044  -3.508  0.00  0.00    -0.246 OA
ATOM      9  N   UNL     1      -0.828   4.646  -2.734  0.00  0.00    -0.273 N 
ATOM     10  H   UNL     1      -1.559   5.285  -2.973  0.00  0.00    +0.173 HD
ATOM     11  C   UNL     1      -1.137   3.465  -2.162  0.00  0.00    +0.277 A 
ATOM     12  O   UNL     1      -2.300   3.175  -1.942  0.00  0.00    -0.266 OA
BRANCH   5  13
ATOM     13  N   UNL     1       2.231   2.076  -1.758  0.00  0.00    -0.343 N 
ATOM     14  H   UNL     1       2.039   1.188  -1.419  0.00  0.00    +0.144 HD
ATOM     15  H   UNL     1       3.151   2.364  -1.871  0.00  0.00    +0.144 HD
ENDBRANCH   5  13
BRANCH   6  16
ATOM     16  C   UNL     1       2.842   4.531  -2.959  0.00  0.00    +0.131 C 
BRANCH  16  17
ATOM     17  C   UNL     1       3.225   4.055  -4.362  0.00  0.00    +0.003 C 
ATOM     18  C   UNL     1       2.373   4.789  -5.399  0.00  0.00    +0.009 C 
ATOM     19  C   UNL     1       4.704   4.351  -4.615  0.00  0.00    +0.009 C 
ENDBRANCH  16  17
ENDBRANCH   6  16
ENDBRANCH   3   4
BRANCH   1  20
ATOM     20  C   UNL     1      -1.363  -0.948  -1.277  0.00  0.00    +0.201 C 
BRANCH  20  31
ATOM     21  C   UNL     1      -0.066  -2.817  -3.053  0.00  0.00    +0.028 C 
ATOM     22  C   UNL     1      -1.335  -2.050  -3.428  0.00  0.00    +0.071 C 
ATOM     23  C   UNL     1      -2.183  -2.896  -4.386  0.00  0.00    +0.027 C 
ATOM     24  C   UNL     1      -3.333  -2.023  -4.893  0.00  0.00    +0.039 C 
ATOM     25  C   UNL     1      -3.981  -1.312  -3.732  0.00  0.00    -0.026 A 
ATOM     26  C   UNL     1      -5.226  -0.735  -3.930  0.00  0.00    +0.005 A 
ATOM     27  C   UNL     1      -5.857  -0.061  -2.904  0.00  0.00    +0.000 A 
ATOM     28  C   UNL     1      -5.245   0.042  -1.668  0.00  0.00    +0.002 A 
ATOM     29  C   UNL     1      -4.008  -0.531  -1.462  0.00  0.00    +0.023 A 
ATOM     30  C   UNL     1      -3.366  -1.216  -2.495  0.00  0.00    +0.034 A 
ATOM     31  N   UNL     1      -2.120  -1.779  -2.222  0.00  0.00    -0.318 N 
ENDBRANCH  20  31
ENDBRANCH   1  20
BRANCH   3  32
ATOM     32  C   UNL     1       0.083   1.040   0.141  0.00  0.00    +0.117 C 
BRANCH  32  33
ATOM     33  C   UNL     1      -0.955   1.498   1.167  0.00  0.00    +0.001 C 
ATOM     34  C   UNL     1      -0.525   1.046   2.564  0.00  0.00    +0.009 C 
ATOM     35  C   UNL     1      -1.064   3.024   1.136  0.00  0.00    +0.009 C 
ENDBRANCH  32  33
ENDBRANCH   3  32
TORSDOF 8
