REMARK  Name = ZINC36645035
REMARK  11 active torsions:
REMARK  status: ('A' for Active; 'I' for Inactive)
REMARK    1  A    between atoms: C_1  and  C_2
REMARK    2  A    between atoms: C_7  and  O_8
REMARK    3  A    between atoms: O_8  and  C_9
REMARK    4  A    between atoms: C_9  and  C_10
REMARK    5  A    between atoms: N_12  and  C_13
REMARK    6  A    between atoms: C_13  and  C_14
REMARK    7  A    between atoms: C_14  and  C_15
REMARK    8  A    between atoms: C_15  and  N_16
REMARK    9  A    between atoms: N_16  and  C_17
REMARK   10  A    between atoms: N_16  and  C_18
REMARK   11  A    between atoms: C_22  and  C_29
REMARK                            x       y       z     vdW  Elec       q    Type
REMARK                         _______ _______ _______ _____ _____    ______ ____
ROOT
ATOM      1  C   UNL     1       0.047   0.090   4.775  0.00  0.00    +0.259 C 
ATOM      2  O   UNL     1       0.030   1.293   4.625  0.00  0.00    -0.271 OA
ATOM      3  N   UNL     1       0.066  -0.433   6.017  0.00  0.00    -0.248 N 
ATOM      4  C   UNL     1       0.066   0.403   7.121  0.00  0.00    +0.168 A 
ATOM      5  N   UNL     1       0.043   1.715   7.161  0.00  0.00    -0.224 NA
ATOM      6  C   UNL     1       0.046   2.406   8.321  0.00  0.00    +0.085 A 
ATOM      7  C   UNL     1       0.024   3.809   8.501  0.00  0.00    -0.006 A 
ATOM      8  C   UNL     1       0.031   4.354   9.759  0.00  0.00    +0.046 A 
ATOM      9  C   UNL     1       0.059   3.555  10.895  0.00  0.00    +0.021 A 
ATOM     10  C   UNL     1       0.081   2.180  10.755  0.00  0.00    +0.019 A 
ATOM     11  C   UNL     1       0.074   1.626   9.499  0.00  0.00    +0.041 A 
ATOM     12  S   UNL     1       0.088  -0.030   8.855  0.00  0.00    -0.052 S 
ATOM     13 CL   UNL     1       0.005   6.080   9.937  0.00  0.00    -0.083 Cl
ATOM     14  C   UNL     1      -0.007   4.715   7.297  0.00  0.00    +0.047 C 
ENDROOT
BRANCH   1  15
ATOM     15  C   UNL     1       0.048  -0.820   3.574  0.00  0.00    +0.325 C 
BRANCH  15  16
ATOM     16  O   UNL     1       0.025  -0.033   2.381  0.00  0.00    -0.482 OA
BRANCH  16  23
ATOM     17  C   UNL     1      -0.018   1.503   0.010  0.00  0.00    +0.047 C 
ATOM     18  C   UNL     1       0.002  -0.004   0.002  0.00  0.00    -0.009 A 
ATOM     19  C   UNL     1       0.006  -0.689  -1.198  0.00  0.00    +0.007 A 
ATOM     20  C   UNL     1       0.024  -2.071  -1.206  0.00  0.00    +0.000 A 
ATOM     21  C   UNL     1       0.039  -2.772  -0.014  0.00  0.00    +0.004 A 
ATOM     22  C   UNL     1       0.036  -2.092   1.188  0.00  0.00    +0.046 A 
ATOM     23  C   UNL     1       0.023  -0.705   1.199  0.00  0.00    +0.124 A 
ENDBRANCH  16  23
ENDBRANCH  15  16
ENDBRANCH   1  15
BRANCH   3  24
ATOM     24  C   UNL     1       0.087  -1.887   6.199  0.00  0.00    +0.114 C 
BRANCH  24  25
ATOM     25  C   UNL     1       1.537  -2.374   6.248  0.00  0.00    +0.001 C 
BRANCH  25  26
ATOM     26  C   UNL     1       1.559  -3.892   6.438  0.00  0.00    -0.078 C 
BRANCH  26  27
ATOM     27  N   UNL     1       2.950  -4.359   6.485  0.00  0.00    +0.376 N 
ATOM     28  C   UNL     1       3.612  -3.809   7.676  0.00  0.00    -0.097 C 
ATOM     29  C   UNL     1       2.972  -5.827   6.547  0.00  0.00    -0.097 C 
ATOM     30  H   UNL     1       3.437  -4.050   5.657  0.00  0.00    -0.083 HD
ENDBRANCH  26  27
ENDBRANCH  25  26
ENDBRANCH  24  25
ENDBRANCH   3  24
TORSDOF 7
