REMARK  Name = ZINC20681548
REMARK  5 active torsions:
REMARK  status: ('A' for Active; 'I' for Inactive)
REMARK    1  A    between atoms: C_4  and  N_7
REMARK    2  A    between atoms: C_8  and  C_10
REMARK    3  A    between atoms: C_17  and  C_26
REMARK    4  A    between atoms: C_29  and  O_33
REMARK    5  A    between atoms: C_31  and  O_32
REMARK                            x       y       z     vdW  Elec       q    Type
REMARK                         _______ _______ _______ _____ _____    ______ ____
ROOT
ATOM      1  C   UNL     1       3.848   1.976  -5.073  0.00  0.00    +0.058 A 
ATOM      2  C   UNL     1       5.025   1.408  -5.556  0.00  0.00    +0.015 A 
ATOM      3  C   UNL     1       5.479   0.215  -5.037  0.00  0.00    +0.001 A 
ATOM      4  C   UNL     1       4.766  -0.415  -4.030  0.00  0.00    +0.006 A 
ATOM      5  C   UNL     1       3.605   0.136  -3.536  0.00  0.00    -0.019 A 
ATOM      6  C   UNL     1       3.113   1.338  -4.052  0.00  0.00    +0.044 A 
ATOM      7  N   UNL     1       1.943   1.947  -3.629  0.00  0.00    -0.336 N 
ATOM      8  C   UNL     1       1.243   1.325  -2.494  0.00  0.00    +0.108 C 
ATOM      9  C   UNL     1       1.343  -0.175  -2.678  0.00  0.00    +0.029 C 
ATOM     10  C   UNL     1       2.850  -0.501  -2.434  0.00  0.00    +0.049 C 
ATOM     11  C   UNL     1       2.826  -1.970  -2.225  0.00  0.00    -0.023 C 
ATOM     12  C   UNL     1       1.647  -2.304  -1.710  0.00  0.00    -0.030 C 
ATOM     13  C   UNL     1       0.767  -1.059  -1.571  0.00  0.00    +0.033 C 
ATOM     14  H   UNL     1       1.533   2.853  -4.098  0.00  0.00    +0.147 HD
ENDROOT
BRANCH   8  15
ATOM     15  C   UNL     1       1.901   1.729  -1.200  0.00  0.00    +0.015 A 
ATOM     16  C   UNL     1       3.238   2.078  -1.185  0.00  0.00    +0.012 A 
ATOM     17  C   UNL     1       3.844   2.448   0.000  0.00  0.00    +0.046 A 
ATOM     18  C   UNL     1       3.111   2.470   1.179  0.00  0.00    +0.120 A 
ATOM     19  C   UNL     1       1.769   2.126   1.165  0.00  0.00    +0.091 A 
ATOM     20  C   UNL     1       1.164   1.749  -0.024  0.00  0.00    +0.125 A 
BRANCH  20  21
ATOM     21  O   UNL     1      -0.151   1.407  -0.040  0.00  0.00    -0.506 OA
ATOM     22  H   UNL     1      -0.735   1.423   0.892  0.00  0.00    +0.292 HD
ENDBRANCH  20  21
BRANCH  18  23
ATOM     23  O   UNL     1       3.708   2.834   2.344  0.00  0.00    -0.507 OA
ATOM     24  H   UNL     1       3.127   2.851   3.278  0.00  0.00    +0.292 HD
ENDBRANCH  18  23
ENDBRANCH   8  15
BRANCH   1  26
ATOM     25  N   UNL     1       4.066   3.864  -6.610  0.00  0.00    -0.281 N 
ATOM     26  C   UNL     1       3.367   3.251  -5.634  0.00  0.00    +0.250 C 
ATOM     27  O   UNL     1       2.340   3.751  -5.216  0.00  0.00    -0.270 OA
ATOM     28  H   UNL     1       4.953   3.377  -7.040  0.00  0.00    +0.155 HD
BRANCH  25  32
ATOM     29  C   UNL     1       2.864   7.603  -7.999  0.00  0.00    +0.000 A 
ATOM     30  C   UNL     1       4.210   7.294  -7.925  0.00  0.00    +0.002 A 
ATOM     31  C   UNL     1       4.612   6.056  -7.465  0.00  0.00    +0.023 A 
ATOM     32  C   UNL     1       3.662   5.120  -7.076  0.00  0.00    +0.034 A 
ATOM     33  C   UNL     1       2.311   5.431  -7.157  0.00  0.00    +0.023 A 
ATOM     34  C   UNL     1       1.916   6.673  -7.613  0.00  0.00    +0.002 A 
ENDBRANCH  25  32
ENDBRANCH   1  26
TORSDOF 5
