REMARK  Name = ZINC12050835
REMARK  7 active torsions:
REMARK  status: ('A' for Active; 'I' for Inactive)
REMARK    1  A    between atoms: C_5  and  C_7
REMARK    2  A    between atoms: C_10  and  C_12
REMARK    3  A    between atoms: C_12  and  N_60
REMARK    4  A    between atoms: C_18  and  C_22
REMARK    5  A    between atoms: C_22  and  N_23
REMARK    6  A    between atoms: C_24  and  C_26
REMARK    7  A    between atoms: C_26  and  C_27
REMARK                            x       y       z     vdW  Elec       q    Type
REMARK                         _______ _______ _______ _____ _____    ______ ____
ROOT
ATOM      1  C   UNL     1       1.207  -0.056  -2.112  0.00  0.00    -0.070 C 
ATOM      2  C   UNL     1       2.400   0.022  -1.154  0.00  0.00    +0.058 C 
ATOM      3  C   UNL     1       2.432   1.391  -0.525  0.00  0.00    +0.132 A 
ATOM      4  N   UNL     1       3.459   2.176  -0.376  0.00  0.00    -0.134 NA
ATOM      5  N   UNL     1       3.094   3.251   0.231  0.00  0.00    -0.133 NA
ATOM      6  C   UNL     1       1.813   3.200   0.488  0.00  0.00    +0.151 A 
ATOM      7  N   UNL     1       1.356   2.028   0.000  0.00  0.00    -0.315 N 
ATOM      8  C   UNL     1      -0.019   1.527   0.010  0.00  0.00    +0.106 C 
ATOM      9  C   UNL     1       0.002  -0.004   0.002  0.00  0.00    -0.056 C 
ATOM     10  N   UNL     1      -0.016  -0.485  -1.398  0.00  0.00    +0.386 N 
ATOM     11  H   UNL     1      -0.834  -0.085  -1.874  0.00  0.00    -0.081 HD
ENDROOT
BRANCH  10  12
ATOM     12  C   UNL     1      -0.121  -1.955  -1.424  0.00  0.00    -0.003 C 
BRANCH  12  16
ATOM     13  C   UNL     1      -1.369  -2.941  -4.713  0.00  0.00    +0.136 A 
ATOM     14  C   UNL     1      -0.034  -3.075  -4.933  0.00  0.00    +0.050 A 
ATOM     15  C   UNL     1       0.613  -2.724  -3.731  0.00  0.00    +0.043 A 
ATOM     16  C   UNL     1      -0.349  -2.396  -2.847  0.00  0.00    +0.089 A 
ATOM     17  O   UNL     1      -1.545  -2.534  -3.442  0.00  0.00    -0.462 OA
BRANCH  13  22
ATOM     18  C   UNL     1      -4.520  -4.254  -6.277  0.00  0.00    +0.001 A 
ATOM     19  C   UNL     1      -4.449  -3.694  -7.540  0.00  0.00    +0.001 A 
ATOM     20  C   UNL     1      -3.378  -2.890  -7.888  0.00  0.00    +0.021 A 
ATOM     21  C   UNL     1      -2.376  -2.636  -6.972  0.00  0.00    +0.052 A 
ATOM     22  C   UNL     1      -2.440  -3.203  -5.697  0.00  0.00    +0.036 A 
ATOM     23  C   UNL     1      -3.524  -4.014  -5.354  0.00  0.00    +0.013 A 
ATOM     24 CL   UNL     1      -1.036  -1.621  -7.407  0.00  0.00    -0.083 Cl
ENDBRANCH  13  22
ENDBRANCH  12  16
ENDBRANCH  10  12
BRANCH   6  25
ATOM     25  C   UNL     1       1.000   4.253   1.196  0.00  0.00    +0.180 C 
BRANCH  25  26
ATOM     26  N   UNL     1       0.469   5.203   0.214  0.00  0.00    -0.308 N 
ATOM     27  C   UNL     1      -0.293   6.237   0.621  0.00  0.00    +0.218 C 
ATOM     28  O   UNL     1      -0.541   6.381   1.799  0.00  0.00    -0.275 OA
ATOM     29  H   UNL     1       0.668   5.087  -0.729  0.00  0.00    +0.149 HD
BRANCH  27  30
ATOM     30  C   UNL     1      -0.839   7.214  -0.389  0.00  0.00    +0.131 C 
BRANCH  30  31
ATOM     31  C   UNL     1      -1.652   8.266   0.319  0.00  0.00    -0.036 A 
ATOM     32  C   UNL     1      -3.007   8.076   0.515  0.00  0.00    +0.004 A 
ATOM     33  C   UNL     1      -3.754   9.039   1.168  0.00  0.00    +0.003 A 
ATOM     34  C   UNL     1      -3.148  10.197   1.617  0.00  0.00    +0.038 A 
ATOM     35  C   UNL     1      -1.792  10.391   1.417  0.00  0.00    +0.124 A 
ATOM     36  C   UNL     1      -1.044   9.424   0.766  0.00  0.00    +0.042 A 
ATOM     37  F   UNL     1      -1.199  11.523   1.854  0.00  0.00    -0.205 F 
ENDBRANCH  30  31
ENDBRANCH  27  30
ENDBRANCH  25  26
ENDBRANCH   6  25
TORSDOF 7
