REMARK  Name = ZINC55325839
REMARK  8 active torsions:
REMARK  status: ('A' for Active; 'I' for Inactive)
REMARK    1  A    between atoms: C_1  and  C_2
REMARK    2  A    between atoms: C_2  and  C_4
REMARK    3  A    between atoms: C_2  and  N_13
REMARK    4  A    between atoms: N_13  and  C_14
REMARK    5  A    between atoms: C_14  and  C_15
REMARK    6  A    between atoms: N_17  and  C_24
REMARK    7  A    between atoms: C_24  and  C_25
REMARK    8  A    between atoms: C_25  and  C_26
REMARK                            x       y       z     vdW  Elec       q    Type
REMARK                         _______ _______ _______ _____ _____    ______ ____
ROOT
ATOM      1  C   UNL     1       0.620  -0.579  -3.634  0.00  0.00    -0.039 A 
ATOM      2  C   UNL     1       1.399   0.151  -4.447  0.00  0.00    +0.088 A 
ATOM      3  N   UNL     1       1.866  -0.629  -5.470  0.00  0.00    -0.346 N 
ATOM      4  C   UNL     1       1.387  -1.913  -5.335  0.00  0.00    +0.049 A 
ATOM      5  C   UNL     1       0.590  -1.940  -4.176  0.00  0.00    +0.001 A 
ATOM      6  C   UNL     1      -0.029  -3.127  -3.784  0.00  0.00    +0.010 A 
ATOM      7  C   UNL     1       0.146  -4.261  -4.527  0.00  0.00    +0.001 A 
ATOM      8  C   UNL     1       0.934  -4.241  -5.669  0.00  0.00    +0.002 A 
ATOM      9  C   UNL     1       1.546  -3.077  -6.080  0.00  0.00    +0.026 A 
ENDROOT
BRANCH   1  10
ATOM     10  C   UNL     1      -0.086  -0.093  -2.394  0.00  0.00    -0.044 C 
BRANCH  10  11
ATOM     11  N   UNL     1       0.690  -0.478  -1.207  0.00  0.00    +0.387 N 
ATOM     12  H   UNL     1       1.608  -0.063  -1.256  0.00  0.00    -0.084 HD
ATOM     13  H   UNL     1       0.776  -1.482  -1.172  0.00  0.00    -0.084 HD
BRANCH  11  15
ATOM     14  C   UNL     1      -0.019   1.526   0.010  0.00  0.00    -0.007 C 
ATOM     15  C   UNL     1       0.002  -0.004   0.002  0.00  0.00    -0.018 C 
BRANCH  15  16
ATOM     16  C   UNL     1       0.731  -0.503   1.223  0.00  0.00    +0.065 A 
ATOM     17  N   UNL     1       2.019  -0.503   1.458  0.00  0.00    -0.250 NA
ATOM     18  C   UNL     1       2.531  -0.978   2.587  0.00  0.00    +0.052 A 
ATOM     19  C   UNL     1       1.616  -1.462   3.469  0.00  0.00    +0.013 A 
ATOM     20  S   UNL     1       0.086  -1.191   2.620  0.00  0.00    -0.078 S 
ATOM     21  C   UNL     1       1.870  -2.060   4.811  0.00  0.00    +0.044 C 
ATOM     22  C   UNL     1       3.369  -2.389   4.912  0.00  0.00    +0.006 C 
ATOM     23  C   UNL     1       4.174  -1.179   4.434  0.00  0.00    +0.006 C 
ATOM     24  C   UNL     1       4.015  -1.003   2.922  0.00  0.00    +0.056 C 
ENDBRANCH  15  16
ENDBRANCH  11  15
ENDBRANCH  10  11
ENDBRANCH   1  10
BRANCH   3  25
ATOM     25  C   UNL     1       2.745  -0.167  -6.546  0.00  0.00    +0.131 C 
BRANCH  25  26
ATOM     26  C   UNL     1       1.902   0.226  -7.761  0.00  0.00    +0.117 C 
BRANCH  26  27
ATOM     27  C   UNL     1       2.806   0.701  -8.868  0.00  0.00    +0.212 C 
ATOM     28  O   UNL     1       4.007   0.724  -8.703  0.00  0.00    -0.276 OA
ATOM     29  N   UNL     1       2.280   1.101 -10.043  0.00  0.00    -0.329 N 
ATOM     30  H   UNL     1       1.319   1.083 -10.175  0.00  0.00    +0.145 HD
ATOM     31  H   UNL     1       2.862   1.407 -10.756  0.00  0.00    +0.145 HD
ENDBRANCH  26  27
ENDBRANCH  25  26
ENDBRANCH   3  25
TORSDOF 7
