REMARK  Name = ZINC40778819
REMARK  8 active torsions:
REMARK  status: ('A' for Active; 'I' for Inactive)
REMARK    1  A    between atoms: C_1  and  C_2
REMARK    2  A    between atoms: C_2  and  C_4
REMARK    3  A    between atoms: C_2  and  N_7
REMARK    4  A    between atoms: C_4  and  O_5
REMARK    5  A    between atoms: O_5  and  C_6
REMARK    6  A    between atoms: C_9  and  N_23
REMARK    7  A    between atoms: C_10  and  N_14
REMARK    8  A    between atoms: N_14  and  C_15
REMARK                            x       y       z     vdW  Elec       q    Type
REMARK                         _______ _______ _______ _____ _____    ______ ____
ROOT
ATOM      1  N   UNL     1       0.908   0.397  -1.527  0.00  0.00    -0.323 N 
ATOM      2  C   UNL     1       0.148   0.034  -2.632  0.00  0.00    +0.145 A 
ATOM      3  C   UNL     1       0.737  -0.630  -3.710  0.00  0.00    +0.105 A 
ATOM      4  C   UNL     1      -0.072  -0.972  -4.795  0.00  0.00    +0.149 A 
ATOM      5  N   UNL     1      -1.365  -0.654  -4.761  0.00  0.00    -0.219 NA
ATOM      6  C   UNL     1      -1.881  -0.027  -3.724  0.00  0.00    +0.225 A 
ATOM      7  N   UNL     1      -1.153   0.309  -2.678  0.00  0.00    -0.219 NA
ATOM      8  H   UNL     1       1.856   0.192  -1.502  0.00  0.00    +0.148 HD
ENDROOT
BRANCH   3   9
ATOM      9  N   UNL     1       2.105  -0.945  -3.704  0.00  0.00    -0.353 N 
ATOM     10  H   UNL     1       2.655  -0.701  -2.943  0.00  0.00    +0.143 HD
ATOM     11  H   UNL     1       2.500  -1.407  -4.460  0.00  0.00    +0.143 HD
ENDBRANCH   3   9
BRANCH   1  13
ATOM     12  C   UNL     1       0.236   2.591  -0.680  0.00  0.00    +0.030 C 
ATOM     13  C   UNL     1       0.277   1.087  -0.399  0.00  0.00    +0.094 C 
BRANCH  13  14
ATOM     14  C   UNL     1       1.085   0.829   0.874  0.00  0.00    +0.181 C 
BRANCH  14  15
ATOM     15  O   UNL     1       2.380   1.419   0.745  0.00  0.00    -0.381 OA
ATOM     16  C   UNL     1       3.220   1.235   1.886  0.00  0.00    +0.194 C 
ENDBRANCH  14  15
ENDBRANCH  13  14
ENDBRANCH   1  13
BRANCH   4  17
ATOM     17  N   UNL     1       0.463  -1.633  -5.895  0.00  0.00    -0.297 N 
ATOM     18  H   UNL     1       1.381  -1.946  -5.873  0.00  0.00    +0.154 HD
BRANCH  17  19
ATOM     19  C   UNL     1      -0.321  -1.848  -7.032  0.00  0.00    +0.052 A 
ATOM     20  C   UNL     1      -1.407  -1.023  -7.294  0.00  0.00    +0.025 A 
ATOM     21  C   UNL     1      -2.181  -1.236  -8.418  0.00  0.00    +0.003 A 
ATOM     22  C   UNL     1      -1.875  -2.271  -9.284  0.00  0.00    +0.021 A 
ATOM     23  C   UNL     1      -0.794  -3.095  -9.027  0.00  0.00    +0.061 A 
ATOM     24  C   UNL     1      -0.012  -2.883  -7.906  0.00  0.00    +0.080 A 
ATOM     25 CL   UNL     1       1.349  -3.913  -7.588  0.00  0.00    -0.080 Cl
ATOM     26 CL   UNL     1      -0.415  -4.393 -10.116  0.00  0.00    -0.082 Cl
ENDBRANCH  17  19
ENDBRANCH   4  17
TORSDOF 6
