REMARK  Name = ZINC10046010
REMARK  4 active torsions:
REMARK  status: ('A' for Active; 'I' for Inactive)
REMARK    1  A    between atoms: C_1  and  S_2
REMARK    2  A    between atoms: S_2  and  C_5
REMARK    3  A    between atoms: C_8  and  C_11
REMARK    4  A    between atoms: N_13  and  N_14
REMARK                            x       y       z     vdW  Elec       q    Type
REMARK                         _______ _______ _______ _____ _____    ______ ____
ROOT
ATOM      1  C   UNL     1       1.172   3.565   0.009  0.00  0.00    +0.260 C 
ATOM      2  O   UNL     1       0.114   4.164   0.022  0.00  0.00    -0.269 OA
ATOM      3  N   UNL     1       2.333   4.249   0.002  0.00  0.00    -0.231 N 
ATOM      4  H   UNL     1       3.177   3.771  -0.008  0.00  0.00    +0.173 HD
ENDROOT
BRANCH   3   5
ATOM      5  N   UNL     1       2.321   5.650   0.009  0.00  0.00    -0.242 N 
ATOM      6  C   UNL     1       3.511   6.350   0.002  0.00  0.00    +0.176 A 
ATOM      7  N   UNL     1       3.702   7.649   0.006  0.00  0.00    -0.222 NA
ATOM      8  C   UNL     1       4.935   8.202  -0.002  0.00  0.00    +0.100 A 
ATOM      9  C   UNL     1       6.014   7.289  -0.017  0.00  0.00    +0.042 A 
ATOM     10  S   UNL     1       5.183   5.719  -0.009  0.00  0.00    -0.051 S 
ATOM     11  C   UNL     1       7.326   7.692  -0.027  0.00  0.00    +0.019 A 
ATOM     12  C   UNL     1       7.626   9.043  -0.022  0.00  0.00    +0.023 A 
ATOM     13  C   UNL     1       6.592   9.969  -0.008  0.00  0.00    +0.061 A 
ATOM     14  C   UNL     1       5.277   9.574   0.002  0.00  0.00    +0.086 A 
ATOM     15 CL   UNL     1       4.021  10.772   0.019  0.00  0.00    -0.080 Cl
ATOM     16 CL   UNL     1       6.970  11.663  -0.003  0.00  0.00    -0.082 Cl
ATOM     17  H   UNL     1       1.477   6.128   0.020  0.00  0.00    +0.172 HD
ENDBRANCH   3   5
BRANCH   1  21
ATOM     18  C   UNL     1       1.208  -0.682  -0.013  0.00  0.00    +0.088 A 
ATOM     19  C   UNL     1       0.002  -0.004   0.002  0.00  0.00    +0.027 A 
ATOM     20  C   UNL     1      -0.017   1.375   0.010  0.00  0.00    +0.015 A 
ATOM     21  C   UNL     1       1.184   2.087   0.002  0.00  0.00    +0.038 A 
ATOM     22  C   UNL     1       2.397   1.396  -0.013  0.00  0.00    +0.015 A 
ATOM     23  C   UNL     1       2.402   0.016  -0.020  0.00  0.00    +0.027 A 
BRANCH  18  25
ATOM     24  C   UNL     1       1.210  -2.902  -1.777  0.00  0.00    +0.200 C 
ATOM     25  S   UNL     1       1.223  -2.445  -0.022  0.00  0.00    -0.006 S 
ATOM     26  O   UNL     1       2.466  -2.800   0.568  0.00  0.00    -0.170 OA
ATOM     27  O   UNL     1      -0.003  -2.821   0.591  0.00  0.00    -0.170 OA
ENDBRANCH  18  25
ENDBRANCH   1  21
TORSDOF 3
