REMARK  Name = ZINC39325465
REMARK  11 active torsions:
REMARK  status: ('A' for Active; 'I' for Inactive)
REMARK    1  A    between atoms: C_1  and  O_2
REMARK    2  A    between atoms: O_2  and  C_3
REMARK    3  A    between atoms: C_8  and  C_15
REMARK    4  A    between atoms: C_15  and  N_16
REMARK    5  A    between atoms: N_16  and  C_17
REMARK    6  A    between atoms: N_16  and  S_25
REMARK    7  A    between atoms: C_17  and  C_18
REMARK    8  A    between atoms: S_25  and  C_28
REMARK    9  A    between atoms: C_32  and  C_34
REMARK   10  A    between atoms: C_34  and  O_36
REMARK   11  A    between atoms: O_36  and  C_37
REMARK                            x       y       z     vdW  Elec       q    Type
REMARK                         _______ _______ _______ _____ _____    ______ ____
ROOT
ATOM      1  N   UNL     1      -5.913  -5.948   1.186  0.00  0.00    -0.171 NA
ENDROOT
BRANCH   1   2
ATOM      2  S   UNL     1      -7.241  -6.517   0.378  0.00  0.00    +0.061 S 
ATOM      3  O   UNL     1      -7.464  -7.841   0.844  0.00  0.00    -0.153 OA
ATOM      4  O   UNL     1      -8.233  -5.503   0.462  0.00  0.00    -0.153 OA
BRANCH   2   5
ATOM      5  C   UNL     1      -6.799  -6.649  -1.323  0.00  0.00    +0.106 A 
ATOM      6  C   UNL     1      -6.991  -5.573  -2.172  0.00  0.00    +0.028 A 
ATOM      7  C   UNL     1      -6.646  -5.668  -3.508  0.00  0.00    +0.003 A 
ATOM      8  C   UNL     1      -6.109  -6.838  -4.004  0.00  0.00    +0.015 A 
ATOM      9  C   UNL     1      -5.912  -7.928  -3.153  0.00  0.00    +0.061 A 
ATOM     10  C   UNL     1      -6.257  -7.823  -1.804  0.00  0.00    +0.043 A 
BRANCH   9  11
ATOM     11  C   UNL     1      -5.338  -9.184  -3.676  0.00  0.00    +0.339 C 
ATOM     12  O   UNL     1      -5.168 -10.130  -2.934  0.00  0.00    -0.245 OA
BRANCH  11  13
ATOM     13  O   UNL     1      -5.001  -9.280  -4.977  0.00  0.00    -0.464 OA
ATOM     14  C   UNL     1      -4.451 -10.524  -5.415  0.00  0.00    +0.280 C 
ENDBRANCH  11  13
ENDBRANCH   9  11
ENDBRANCH   2   5
ENDBRANCH   1   2
BRANCH   1  15
ATOM     15  C   UNL     1      -5.717  -4.505   1.350  0.00  0.00    +0.126 C 
BRANCH  15  21
ATOM     16  C   UNL     1      -1.078  -0.799   0.183  0.00  0.00    +0.122 A 
ATOM     17  C   UNL     1      -2.188   0.037   0.374  0.00  0.00    +0.046 A 
ATOM     18  C   UNL     1      -3.446  -0.462   0.414  0.00  0.00    +0.013 A 
ATOM     19  C   UNL     1      -3.645  -1.904   0.254  0.00  0.00    -0.007 A 
ATOM     20  C   UNL     1      -4.894  -2.442   0.288  0.00  0.00    -0.003 C 
ATOM     21  C   UNL     1      -5.012  -3.943   0.113  0.00  0.00    +0.114 C 
ATOM     22  C   UNL     1      -3.733  -4.723  -0.085  0.00  0.00    +0.225 C 
ATOM     23  O   UNL     1      -3.770  -5.931  -0.230  0.00  0.00    -0.275 OA
ATOM     24  N   UNL     1      -2.574  -4.088  -0.100  0.00  0.00    -0.284 N 
ATOM     25  C   UNL     1      -2.466  -2.767   0.053  0.00  0.00    +0.044 A 
ATOM     26  C   UNL     1      -1.202  -2.161   0.021  0.00  0.00    +0.069 A 
ATOM     27  H   UNL     1      -1.764  -4.607  -0.228  0.00  0.00    +0.155 HD
BRANCH  16  29
ATOM     28  C   UNL     1       0.242   1.169   0.324  0.00  0.00    +0.277 C 
ATOM     29  O   UNL     1       0.159  -0.247   0.151  0.00  0.00    -0.495 OA
ENDBRANCH  16  29
ENDBRANCH  15  21
ENDBRANCH   1  15
BRANCH   1  30
ATOM     30  C   UNL     1      -4.933  -6.887   1.738  0.00  0.00    +0.144 C 
BRANCH  30  31
ATOM     31  C   UNL     1      -5.269  -7.173   3.179  0.00  0.00    -0.031 A 
ATOM     32  C   UNL     1      -4.740  -6.382   4.182  0.00  0.00    +0.008 A 
ATOM     33  C   UNL     1      -5.047  -6.644   5.504  0.00  0.00    +0.038 A 
ATOM     34  C   UNL     1      -5.885  -7.698   5.824  0.00  0.00    +0.123 A 
ATOM     35  C   UNL     1      -6.415  -8.490   4.819  0.00  0.00    +0.038 A 
ATOM     36  C   UNL     1      -6.110  -8.223   3.497  0.00  0.00    +0.008 A 
ATOM     37  F   UNL     1      -6.186  -7.955   7.116  0.00  0.00    -0.205 F 
ENDBRANCH  30  31
ENDBRANCH   1  30
TORSDOF 9
