REMARK  Name = ZINC58056724
REMARK  5 active torsions:
REMARK  status: ('A' for Active; 'I' for Inactive)
REMARK    1  A    between atoms: C_4  and  C_7
REMARK    2  A    between atoms: C_7  and  O_8
REMARK    3  A    between atoms: O_8  and  C_9
REMARK    4  A    between atoms: C_12  and  C_15
REMARK    5  A    between atoms: C_19  and  N_23
REMARK                            x       y       z     vdW  Elec       q    Type
REMARK                         _______ _______ _______ _____ _____    ______ ____
ROOT
ATOM      1  C   UNL     1       5.317  -1.604   1.466  0.00  0.00    +0.121 A 
ATOM      2  C   UNL     1       6.046  -2.006   0.353  0.00  0.00    +0.046 A 
ATOM      3  C   UNL     1       7.240  -2.673   0.514  0.00  0.00    +0.015 A 
ATOM      4  C   UNL     1       7.719  -2.946   1.798  0.00  0.00    +0.016 A 
ATOM      5  C   UNL     1       6.983  -2.540   2.914  0.00  0.00    +0.015 A 
ATOM      6  C   UNL     1       5.793  -1.869   2.745  0.00  0.00    +0.046 A 
ENDROOT
BRANCH   4   7
ATOM      7  C   UNL     1       8.998  -3.661   1.974  0.00  0.00    +0.121 A 
ATOM      8  N   UNL     1       9.387  -4.536   1.046  0.00  0.00    -0.307 N 
ATOM      9  C   UNL     1      10.547  -5.206   1.176  0.00  0.00    +0.276 A 
ATOM     10  O   UNL     1      10.933  -6.085   0.238  0.00  0.00    -0.266 OA
ATOM     11  C   UNL     1      11.345  -4.975   2.298  0.00  0.00    +0.155 A 
ATOM     12  C   UNL     1      10.907  -4.052   3.249  0.00  0.00    +0.276 A 
ATOM     13  O   UNL     1      11.644  -3.800   4.342  0.00  0.00    -0.266 OA
ATOM     14  N   UNL     1       9.738  -3.413   3.054  0.00  0.00    -0.307 N 
ATOM     15  H   UNL     1       9.429  -2.768   3.709  0.00  0.00    +0.170 HD
ATOM     16  H   UNL     1       8.828  -4.692   0.269  0.00  0.00    +0.170 HD
BRANCH  11  17
ATOM     17  N   UNL     1      12.564  -5.657   2.467  0.00  0.00    -0.350 N 
ATOM     18  H   UNL     1      12.859  -6.297   1.799  0.00  0.00    +0.143 HD
ATOM     19  H   UNL     1      13.110  -5.489   3.250  0.00  0.00    +0.143 HD
ENDBRANCH  11  17
ENDBRANCH   4   7
BRANCH   1  20
ATOM     20  O   UNL     1       4.141  -0.946   1.304  0.00  0.00    -0.487 OA
BRANCH  20  21
ATOM     21  C   UNL     1       3.711  -0.707  -0.038  0.00  0.00    +0.264 C 
BRANCH  21  25
ATOM     22  C   UNL     1      -0.017   1.378   0.010  0.00  0.00    +0.000 A 
ATOM     23  C   UNL     1       1.171   2.086   0.002  0.00  0.00    +0.000 A 
ATOM     24  C   UNL     1       2.377   1.411  -0.013  0.00  0.00    +0.007 A 
ATOM     25  C   UNL     1       2.396   0.029  -0.020  0.00  0.00    -0.010 A 
ATOM     26  C   UNL     1       1.208  -0.679  -0.012  0.00  0.00    +0.007 A 
ATOM     27  C   UNL     1       0.002  -0.004   0.002  0.00  0.00    +0.000 A 
ENDBRANCH  21  25
ENDBRANCH  20  21
ENDBRANCH   1  20
TORSDOF 5
