REMARK  Name = ZINC10173375
REMARK  11 active torsions:
REMARK  status: ('A' for Active; 'I' for Inactive)
REMARK    1  A    between atoms: C_1  and  C_2
REMARK    2  A    between atoms: C_2  and  N_3
REMARK    3  A    between atoms: N_3  and  C_4
REMARK    4  A    between atoms: C_7  and  S_28
REMARK    5  A    between atoms: C_9  and  N_10
REMARK    6  A    between atoms: N_10  and  C_11
REMARK    7  A    between atoms: C_11  and  C_12
REMARK    8  A    between atoms: C_25  and  C_27
REMARK    9  A    between atoms: S_28  and  N_31
REMARK   10  A    between atoms: N_31  and  C_32
REMARK   11  A    between atoms: N_31  and  C_33
REMARK                            x       y       z     vdW  Elec       q    Type
REMARK                         _______ _______ _______ _____ _____    ______ ____
ROOT
ATOM      1  N   UNL     1      -1.226   4.793   3.692  0.00  0.00    -0.334 N 
ATOM      2  H   UNL     1      -1.727   5.059   4.479  0.00  0.00    +0.147 HD
ENDROOT
BRANCH   1   8
ATOM      3  C   UNL     1      -2.361   2.653   3.688  0.00  0.00    +0.048 A 
ATOM      4  C   UNL     1      -2.562   1.404   3.120  0.00  0.00    +0.027 A 
ATOM      5  C   UNL     1      -1.845   1.031   1.998  0.00  0.00    +0.030 A 
ATOM      6  C   UNL     1      -0.927   1.900   1.439  0.00  0.00    +0.107 A 
ATOM      7  C   UNL     1      -0.716   3.145   2.002  0.00  0.00    +0.053 A 
ATOM      8  C   UNL     1      -1.434   3.530   3.124  0.00  0.00    +0.051 A 
BRANCH   6   9
ATOM      9  S   UNL     1      -0.017   1.417   0.010  0.00  0.00    +0.060 S 
ATOM     10  O   UNL     1       0.002  -0.004   0.002  0.00  0.00    -0.153 OA
ATOM     11  O   UNL     1       1.172   2.195   0.003  0.00  0.00    -0.153 OA
BRANCH   9  12
ATOM     12  N   UNL     1      -0.897   1.885  -1.312  0.00  0.00    -0.183 NA
ATOM     13  C   UNL     1      -0.691   3.213  -1.897  0.00  0.00    +0.131 C 
ATOM     14  C   UNL     1      -1.883   0.973  -1.897  0.00  0.00    +0.131 C 
ENDBRANCH   9  12
ENDBRANCH   6   9
BRANCH   3  15
ATOM     15  N   UNL     1      -3.086   3.033   4.824  0.00  0.00    -0.343 N 
ATOM     16  H   UNL     1      -2.944   3.907   5.220  0.00  0.00    +0.146 HD
BRANCH  15  18
ATOM     17  C   UNL     1      -4.706   2.766   6.636  0.00  0.00    +0.024 C 
ATOM     18  C   UNL     1      -4.058   2.111   5.415  0.00  0.00    +0.098 C 
ENDBRANCH  15  18
ENDBRANCH   3  15
ENDBRANCH   1   8
BRANCH   1  19
ATOM     19  C   UNL     1      -0.252   5.712   3.098  0.00  0.00    +0.198 C 
BRANCH  19  20
ATOM     20  C   UNL     1      -0.220   6.992   3.893  0.00  0.00    +0.237 C 
ATOM     21  O   UNL     1      -0.940   7.123   4.861  0.00  0.00    -0.274 OA
ATOM     22  N   UNL     1       0.609   7.990   3.529  0.00  0.00    -0.265 N 
ATOM     23  C   UNL     1       1.446   7.852   2.413  0.00  0.00    +0.058 A 
ATOM     24  C   UNL     1       2.547   7.012   2.456  0.00  0.00    +0.025 A 
ATOM     25  C   UNL     1       3.374   6.906   1.353  0.00  0.00    +0.002 A 
ATOM     26  C   UNL     1       3.108   7.637   0.209  0.00  0.00    +0.002 A 
ATOM     27  C   UNL     1       2.006   8.470   0.155  0.00  0.00    +0.025 A 
ATOM     28  C   UNL     1       1.167   8.573   1.252  0.00  0.00    +0.055 A 
ATOM     29  N   UNL     1       0.015   9.368   1.202  0.00  0.00    -0.284 N 
ATOM     30  C   UNL     1      -0.264  10.232   2.202  0.00  0.00    +0.219 C 
ATOM     31  O   UNL     1      -1.306  10.854   2.187  0.00  0.00    -0.275 OA
ATOM     32  C   UNL     1       0.709  10.430   3.334  0.00  0.00    +0.118 C 
ATOM     33  C   UNL     1       0.647   9.242   4.288  0.00  0.00    +0.087 C 
ATOM     34  C   UNL     1       1.884   9.253   5.188  0.00  0.00    +0.029 C 
ATOM     35  H   UNL     1      -0.586   9.297   0.444  0.00  0.00    +0.155 HD
ENDBRANCH  19  20
ENDBRANCH   1  19
TORSDOF 7
