REMARK  Name = ZINC67103516
REMARK  10 active torsions:
REMARK  status: ('A' for Active; 'I' for Inactive)
REMARK    1  A    between atoms: C_1  and  C_2
REMARK    2  A    between atoms: C_2  and  C_3
REMARK    3  A    between atoms: C_2  and  C_4
REMARK    4  A    between atoms: C_2  and  O_5
REMARK    5  A    between atoms: O_5  and  C_6
REMARK    6  A    between atoms: C_11  and  C_14
REMARK    7  A    between atoms: C_14  and  N_15
REMARK    8  A    between atoms: N_18  and  N_19
REMARK    9  A    between atoms: C_20  and  C_22
REMARK   10  A    between atoms: C_22  and  C_23
REMARK                            x       y       z     vdW  Elec       q    Type
REMARK                         _______ _______ _______ _____ _____    ______ ____
ROOT
ATOM      1  N   UNL     1       6.494  -2.957  -4.713  0.00  0.00    -0.298 N 
ATOM      2  C   UNL     1       7.430  -3.884  -5.001  0.00  0.00    +0.316 C 
ATOM      3  O   UNL     1       7.169  -5.066  -4.890  0.00  0.00    -0.251 OA
ATOM      4  N   UNL     1       8.655  -3.500  -5.411  0.00  0.00    -0.218 N 
ATOM      5  H   UNL     1       6.703  -2.014  -4.802  0.00  0.00    +0.150 HD
ATOM      6  H   UNL     1       9.328  -4.167  -5.618  0.00  0.00    +0.174 HD
ENDROOT
BRANCH   4   7
ATOM      7  N   UNL     1       8.956  -2.137  -5.539  0.00  0.00    -0.233 N 
ATOM      8  C   UNL     1      10.181  -1.754  -5.949  0.00  0.00    +0.229 C 
ATOM      9  O   UNL     1      11.023  -2.587  -6.208  0.00  0.00    -0.274 OA
ATOM     10  H   UNL     1       8.283  -1.470  -5.332  0.00  0.00    +0.173 HD
BRANCH   8  11
ATOM     11  C   UNL     1      10.505  -0.288  -6.087  0.00  0.00    +0.101 C 
BRANCH  11  12
ATOM     12  C   UNL     1      11.949  -0.128  -6.565  0.00  0.00    -0.002 C 
ATOM     13  C   UNL     1      12.903  -0.654  -5.490  0.00  0.00    +0.004 C 
ATOM     14  C   UNL     1      14.348  -0.493  -5.968  0.00  0.00    +0.000 C 
ATOM     15  C   UNL     1      14.638   0.987  -6.228  0.00  0.00    +0.000 C 
ATOM     16  C   UNL     1      13.684   1.513  -7.302  0.00  0.00    +0.000 C 
ATOM     17  C   UNL     1      12.239   1.352  -6.824  0.00  0.00    +0.004 C 
ENDBRANCH  11  12
ENDBRANCH   8  11
ENDBRANCH   4   7
BRANCH   1  18
ATOM     18  C   UNL     1       5.163  -3.374  -4.267  0.00  0.00    +0.109 C 
BRANCH  18  24
ATOM     19  C   UNL     1       1.952  -0.085  -1.337  0.00  0.00    +0.403 C 
ATOM     20  O   UNL     1       2.488   0.619  -0.503  0.00  0.00    -0.226 OA
ATOM     21  N   UNL     1       2.641  -0.485  -2.424  0.00  0.00    -0.267 N 
ATOM     22  C   UNL     1       2.005  -1.331  -3.443  0.00  0.00    +0.111 C 
ATOM     23  C   UNL     1       2.874  -2.573  -3.666  0.00  0.00    +0.024 C 
ATOM     24  C   UNL     1       4.300  -2.137  -4.011  0.00  0.00    +0.009 C 
ATOM     25  C   UNL     1       4.888  -1.339  -2.845  0.00  0.00    +0.024 C 
ATOM     26  C   UNL     1       4.040  -0.078  -2.616  0.00  0.00    +0.111 C 
BRANCH  19  27
ATOM     27  O   UNL     1       0.671  -0.465  -1.174  0.00  0.00    -0.445 OA
BRANCH  27  29
ATOM     28  C   UNL     1      -0.019   1.526   0.010  0.00  0.00    +0.055 C 
ATOM     29  C   UNL     1       0.002  -0.004   0.002  0.00  0.00    +0.107 C 
ATOM     30  C   UNL     1       0.742  -0.511   1.242  0.00  0.00    +0.055 C 
ATOM     31  C   UNL     1      -1.433  -0.534   0.013  0.00  0.00    +0.055 C 
ENDBRANCH  27  29
ENDBRANCH  19  27
ENDBRANCH  18  24
ENDBRANCH   1  18
TORSDOF 7
