REMARK  Name = ZINC63686683
REMARK  11 active torsions:
REMARK  status: ('A' for Active; 'I' for Inactive)
REMARK    1  A    between atoms: C_1  and  C_2
REMARK    2  A    between atoms: C_5  and  C_33
REMARK    3  A    between atoms: C_6  and  O_8
REMARK    4  A    between atoms: O_8  and  C_9
REMARK    5  A    between atoms: C_9  and  C_10
REMARK    6  A    between atoms: C_14  and  S_18
REMARK    7  A    between atoms: N_16  and  C_17
REMARK    8  A    between atoms: S_18  and  C_19
REMARK    9  A    between atoms: C_19  and  C_20
REMARK   10  A    between atoms: C_27  and  O_28
REMARK   11  A    between atoms: O_28  and  C_29
REMARK                            x       y       z     vdW  Elec       q    Type
REMARK                         _______ _______ _______ _____ _____    ______ ____
ROOT
ATOM      1  C   UNL     1       0.049  -2.963   4.766  0.00  0.00    +0.178 C 
ATOM      2  N   UNL     1      -1.153  -3.837   4.783  0.00  0.00    -0.234 NA
ATOM      3  N   UNL     1      -0.713  -4.992   5.580  0.00  0.00    -0.229 NA
ATOM      4  C   UNL     1       0.697  -5.203   5.179  0.00  0.00    +0.200 C 
ATOM      5  N   UNL     1       1.186  -3.906   4.662  0.00  0.00    -0.261 NA
ATOM      6  C   UNL     1       1.640  -4.032   3.270  0.00  0.00    +0.109 C 
ATOM      7  H   UNL     1      -1.409  -4.119   3.848  0.00  0.00    +0.142 HD
ATOM      8  H   UNL     1      -0.782  -4.798   6.568  0.00  0.00    +0.143 HD
ENDROOT
BRANCH   1   9
ATOM      9  C   UNL     1       0.015  -2.029   3.554  0.00  0.00    +0.265 C 
BRANCH   9  10
ATOM     10  O   UNL     1      -1.010  -1.050   3.736  0.00  0.00    -0.489 OA
BRANCH  10  16
ATOM     11  C   UNL     1       0.345   0.700  -0.614  0.00  0.00    +0.044 C 
ATOM     12  C   UNL     1      -0.534   0.748   0.609  0.00  0.00    -0.047 A 
ATOM     13  C   UNL     1      -1.508   1.722   0.722  0.00  0.00    +0.004 A 
ATOM     14  C   UNL     1      -2.316   1.769   1.843  0.00  0.00    +0.007 A 
ATOM     15  C   UNL     1      -2.151   0.842   2.854  0.00  0.00    -0.009 A 
ATOM     16  C   UNL     1      -1.175  -0.137   2.743  0.00  0.00    +0.124 A 
ATOM     17  C   UNL     1      -0.369  -0.185   1.615  0.00  0.00    +0.049 A 
ATOM     18  C   UNL     1      -3.031   0.894   4.076  0.00  0.00    +0.047 C 
ENDBRANCH  10  16
ENDBRANCH   9  10
ENDBRANCH   1   9
BRANCH   4  19
ATOM     19  S   UNL     1       1.683  -5.710   6.614  0.00  0.00    -0.119 S 
BRANCH  19  20
ATOM     20  C   UNL     1       1.474  -4.348   7.794  0.00  0.00    +0.125 C 
BRANCH  20  21
ATOM     21  C   UNL     1       2.253  -4.646   9.049  0.00  0.00    +0.030 A 
ATOM     22  N   UNL     1       1.769  -5.571   9.912  0.00  0.00    -0.354 N 
ATOM     23  C   UNL     1       2.433  -5.889  11.076  0.00  0.00    +0.093 A 
ATOM     24  C   UNL     1       3.642  -5.244  11.383  0.00  0.00    +0.049 A 
ATOM     25  C   UNL     1       4.323  -5.557  12.560  0.00  0.00    +0.014 A 
ATOM     26  C   UNL     1       3.810  -6.494  13.413  0.00  0.00    +0.004 A 
ATOM     27  C   UNL     1       2.617  -7.138  13.119  0.00  0.00    +0.048 A 
ATOM     28  C   UNL     1       1.925  -6.844  11.960  0.00  0.00    +0.144 A 
ATOM     29  C   UNL     1       4.161  -4.240  10.438  0.00  0.00    +0.190 A 
ATOM     30  O   UNL     1       5.207  -3.650  10.656  0.00  0.00    -0.287 OA
ATOM     31  C   UNL     1       3.410  -3.986   9.267  0.00  0.00    +0.073 A 
ATOM     32  H   UNL     1       0.934  -6.020   9.705  0.00  0.00    +0.166 HD
BRANCH  28  33
ATOM     33  O   UNL     1       0.756  -7.480  11.681  0.00  0.00    -0.493 OA
ATOM     34  C   UNL     1       0.299  -8.444  12.632  0.00  0.00    +0.277 C 
ENDBRANCH  28  33
ENDBRANCH  20  21
ENDBRANCH  19  20
ENDBRANCH   4  19
TORSDOF 7
