REMARK  Name = ZINC63270325
REMARK  12 active torsions:
REMARK  status: ('A' for Active; 'I' for Inactive)
REMARK    1  A    between atoms: C_1  and  O_2
REMARK    2  A    between atoms: O_2  and  C_3
REMARK    3  A    between atoms: C_5  and  C_13
REMARK    4  A    between atoms: C_7  and  O_11
REMARK    5  A    between atoms: C_8  and  O_9
REMARK    6  A    between atoms: O_9  and  C_10
REMARK    7  A    between atoms: O_11  and  C_12
REMARK    8  A    between atoms: C_13  and  O_15
REMARK    9  A    between atoms: O_15  and  C_16
REMARK   10  A    between atoms: C_22  and  C_25
REMARK   11  A    between atoms: C_25  and  C_26
REMARK   12  A    between atoms: C_26  and  N_27
REMARK                            x       y       z     vdW  Elec       q    Type
REMARK                         _______ _______ _______ _____ _____    ______ ____
ROOT
ATOM      1  C   UNL     1       3.533   0.461  -6.292  0.00  0.00    +0.133 A 
ATOM      2  C   UNL     1       3.536   1.865  -6.221  0.00  0.00    +0.048 A 
ATOM      3  C   UNL     1       4.052   2.641  -7.198  0.00  0.00    +0.029 A 
ATOM      4  C   UNL     1       4.639   2.018  -8.389  0.00  0.00    +0.043 A 
ATOM      5  N   UNL     1       5.196   2.526  -9.460  0.00  0.00    -0.380 N 
ATOM      6  C   UNL     1       5.611   1.427 -10.338  0.00  0.00    +0.144 C 
ATOM      7  C   UNL     1       5.215   0.154  -9.624  0.00  0.00    -0.040 C 
ATOM      8  C   UNL     1       4.637   0.538  -8.464  0.00  0.00    +0.002 A 
ATOM      9  C   UNL     1       4.055  -0.211  -7.346  0.00  0.00    +0.056 A 
ATOM     10  H   UNL     1       5.313   3.472  -9.642  0.00  0.00    +0.160 HD
ENDROOT
BRANCH   1  11
ATOM     11  O   UNL     1       2.993  -0.246  -5.264  0.00  0.00    -0.422 OA
BRANCH  11  12
ATOM     12  C   UNL     1       1.650  -0.322  -5.185  0.00  0.00    +0.345 C 
ATOM     13  O   UNL     1       0.959   0.304  -5.964  0.00  0.00    -0.245 OA
BRANCH  12  16
ATOM     14  C   UNL     1      -0.964  -2.038  -3.104  0.00  0.00    +0.166 A 
ATOM     15  C   UNL     1      -0.374  -1.246  -4.071  0.00  0.00    +0.064 A 
ATOM     16  C   UNL     1       1.018  -1.166  -4.154  0.00  0.00    +0.067 A 
ATOM     17  C   UNL     1       1.812  -1.888  -3.258  0.00  0.00    +0.064 A 
ATOM     18  C   UNL     1       1.217  -2.678  -2.292  0.00  0.00    +0.166 A 
ATOM     19  C   UNL     1      -0.171  -2.752  -2.209  0.00  0.00    +0.204 A 
BRANCH  14  21
ATOM     20  C   UNL     1      -3.071  -1.357  -3.972  0.00  0.00    +0.277 C 
ATOM     21  O   UNL     1      -2.319  -2.116  -3.022  0.00  0.00    -0.491 OA
ENDBRANCH  14  21
BRANCH  19  22
ATOM     22  O   UNL     1      -0.753  -3.525  -1.255  0.00  0.00    -0.488 OA
ATOM     23  C   UNL     1      -1.022  -4.886  -1.599  0.00  0.00    +0.277 C 
ENDBRANCH  19  22
BRANCH  18  24
ATOM     24  O   UNL     1       1.988  -3.381  -1.420  0.00  0.00    -0.491 OA
ATOM     25  C   UNL     1       3.405  -3.256  -1.560  0.00  0.00    +0.277 C 
ENDBRANCH  18  24
ENDBRANCH  12  16
ENDBRANCH  11  12
ENDBRANCH   1  11
BRANCH   7  26
ATOM     26  C   UNL     1       5.423  -1.258 -10.109  0.00  0.00    +0.052 C 
BRANCH  26  27
ATOM     27  C   UNL     1       4.266  -1.657 -11.028  0.00  0.00    +0.121 C 
BRANCH  27  28
ATOM     28  N   UNL     1       4.468  -3.030 -11.498  0.00  0.00    -0.234 N 
ATOM     29  C   UNL     1       5.141  -3.360 -12.616  0.00  0.00    +0.254 C 
ATOM     30  O   UNL     1       5.669  -2.580 -13.382  0.00  0.00    -0.270 OA
ATOM     31  C   UNL     1       5.130  -4.832 -12.754  0.00  0.00    +0.049 A 
ATOM     32  C   UNL     1       5.649  -5.720 -13.682  0.00  0.00    +0.014 A 
ATOM     33  C   UNL     1       5.455  -7.082 -13.513  0.00  0.00    +0.001 A 
ATOM     34  C   UNL     1       4.747  -7.559 -12.426  0.00  0.00    +0.001 A 
ATOM     35  C   UNL     1       4.222  -6.682 -11.489  0.00  0.00    +0.014 A 
ATOM     36  C   UNL     1       4.409  -5.318 -11.645  0.00  0.00    +0.049 A 
ATOM     37  C   UNL     1       4.010  -4.126 -10.868  0.00  0.00    +0.254 C 
ATOM     38  O   UNL     1       3.373  -4.135  -9.834  0.00  0.00    -0.270 OA
ENDBRANCH  27  28
ENDBRANCH  26  27
ENDBRANCH   7  26
TORSDOF 9
