REMARK  Name = ZINC36024599
REMARK  10 active torsions:
REMARK  status: ('A' for Active; 'I' for Inactive)
REMARK    1  A    between atoms: C_1  and  C_2
REMARK    2  A    between atoms: C_2  and  C_3
REMARK    3  A    between atoms: C_3  and  C_5
REMARK    4  A    between atoms: C_3  and  C_6
REMARK    5  A    between atoms: C_6  and  N_7
REMARK    6  A    between atoms: C_10  and  C_30
REMARK    7  A    between atoms: N_16  and  S_19
REMARK    8  A    between atoms: S_19  and  C_22
REMARK    9  A    between atoms: C_30  and  C_31
REMARK   10  A    between atoms: C_30  and  C_32
REMARK                            x       y       z     vdW  Elec       q    Type
REMARK                         _______ _______ _______ _____ _____    ______ ____
ROOT
ATOM      1  N   UNL     1       1.513  -2.710  -2.421  0.00  0.00    -0.313 N 
ATOM      2  C   UNL     1       0.902  -3.036  -3.579  0.00  0.00    +0.201 C 
ATOM      3  O   UNL     1      -0.280  -2.908  -3.817  0.00  0.00    -0.277 OA
ATOM      4  C   UNL     1       1.941  -3.589  -4.530  0.00  0.00    +0.022 C 
ATOM      5  N   UNL     1       3.242  -3.165  -3.958  0.00  0.00    +0.401 N 
ATOM      6  C   UNL     1       2.943  -3.012  -2.520  0.00  0.00    +0.006 C 
ATOM      7  C   UNL     1       3.260  -4.316  -1.790  0.00  0.00    +0.023 C 
ATOM      8  C   UNL     1       2.913  -4.165  -0.305  0.00  0.00    +0.109 C 
ATOM      9  N   UNL     1       3.608  -2.983   0.224  0.00  0.00    -0.177 NA
ATOM     10  C   UNL     1       3.426  -1.693  -0.455  0.00  0.00    +0.109 C 
ATOM     11  C   UNL     1       3.768  -1.865  -1.939  0.00  0.00    +0.023 C 
ATOM     12  H   UNL     1       3.944  -3.875  -4.105  0.00  0.00    -0.082 HD
ATOM     13  H   UNL     1       3.535  -2.284  -4.352  0.00  0.00    -0.082 HD
ENDROOT
BRANCH   9  14
ATOM     14  S   UNL     1       4.577  -3.103   1.561  0.00  0.00    +0.062 S 
ATOM     15  O   UNL     1       4.490  -1.857   2.239  0.00  0.00    -0.153 OA
ATOM     16  O   UNL     1       4.252  -4.336   2.189  0.00  0.00    -0.153 OA
BRANCH  14  17
ATOM     17  C   UNL     1       6.237  -3.251   0.990  0.00  0.00    +0.125 A 
ATOM     18  C   UNL     1       7.142  -2.233   1.225  0.00  0.00    +0.030 A 
ATOM     19  C   UNL     1       8.445  -2.348   0.777  0.00  0.00    +0.003 A 
ATOM     20  C   UNL     1       8.844  -3.481   0.093  0.00  0.00    +0.021 A 
ATOM     21  C   UNL     1       7.940  -4.501  -0.143  0.00  0.00    +0.061 A 
ATOM     22  C   UNL     1       6.636  -4.388   0.312  0.00  0.00    +0.086 A 
ATOM     23 CL   UNL     1       5.502  -5.670   0.023  0.00  0.00    -0.080 Cl
ATOM     24 CL   UNL     1       8.440  -5.925  -1.001  0.00  0.00    -0.082 Cl
ENDBRANCH  14  17
ENDBRANCH   9  14
BRANCH   4  25
ATOM     25  C   UNL     1       1.753  -2.996  -5.928  0.00  0.00    -0.023 C 
ATOM     26  C   UNL     1       0.374  -3.383  -6.465  0.00  0.00    +0.006 C 
ATOM     27  C   UNL     1       1.863  -1.472  -5.854  0.00  0.00    +0.006 C 
ENDBRANCH   4  25
BRANCH   1  28
ATOM     28  C   UNL     1       0.849  -2.136  -1.247  0.00  0.00    +0.109 C 
BRANCH  28  29
ATOM     29  C   UNL     1       0.834  -0.611  -1.365  0.00  0.00    +0.003 C 
ATOM     30  C   UNL     1      -0.052  -0.200  -2.543  0.00  0.00    +0.009 C 
BRANCH  29  32
ATOM     31  C   UNL     1       0.380   1.520  -0.142  0.00  0.00    +0.004 C 
ATOM     32  C   UNL     1       0.279  -0.005  -0.074  0.00  0.00    +0.001 C 
ENDBRANCH  29  32
ENDBRANCH  28  29
ENDBRANCH   1  28
TORSDOF 6
