REMARK  Name = ZINC39912010
REMARK  15 active torsions:
REMARK  status: ('A' for Active; 'I' for Inactive)
REMARK    1  A    between atoms: C_1  and  C_2
REMARK    2  A    between atoms: C_2  and  C_3
REMARK    3  A    between atoms: C_3  and  C_4
REMARK    4  A    between atoms: C_4  and  C_5
REMARK    5  A    between atoms: C_5  and  N_6
REMARK    6  A    between atoms: C_7  and  C_26
REMARK    7  A    between atoms: C_10  and  C_17
REMARK    8  A    between atoms: C_19  and  C_25
REMARK    9  A    between atoms: C_21  and  C_24
REMARK   10  A    between atoms: C_22  and  O_23
REMARK   11  A    between atoms: C_29  and  O_34
REMARK   12  A    between atoms: C_30  and  O_32
REMARK   13  A    between atoms: O_32  and  C_33
REMARK   14  A    between atoms: O_34  and  C_35
REMARK   15  A    between atoms: C_35  and  C_36
REMARK                            x       y       z     vdW  Elec       q    Type
REMARK                         _______ _______ _______ _____ _____    ______ ____
ROOT
ATOM      1  N   UNL     1       1.344  -4.200  -2.817  0.00  0.00    -0.285 N 
ATOM      2  C   UNL     1       2.499  -4.687  -2.052  0.00  0.00    +0.141 C 
ATOM      3  C   UNL     1       2.296  -6.168  -1.889  0.00  0.00    +0.035 A 
ATOM      4  C   UNL     1       2.781  -7.376  -1.376  0.00  0.00    +0.102 A 
ATOM      5  N   UNL     1       1.917  -8.318  -1.700  0.00  0.00    -0.173 NA
ATOM      6  N   UNL     1       0.935  -7.825  -2.365  0.00  0.00    -0.272 N 
ATOM      7  H   UNL     1       0.182  -8.333  -2.706  0.00  0.00    +0.189 HD
ATOM      8  C   UNL     1       1.107  -6.479  -2.521  0.00  0.00    +0.126 A 
ATOM      9  C   UNL     1       0.540  -5.246  -3.080  0.00  0.00    +0.265 C 
ATOM     10  O   UNL     1      -0.507  -5.180  -3.695  0.00  0.00    -0.268 OA
ENDROOT
BRANCH   4  11
ATOM     11  C   UNL     1       4.039  -7.563  -0.610  0.00  0.00    +0.044 A 
ATOM     12  C   UNL     1       4.791  -6.457  -0.220  0.00  0.00    +0.017 A 
ATOM     13  C   UNL     1       5.959  -6.636   0.493  0.00  0.00    -0.049 A 
ATOM     14  C   UNL     1       6.387  -7.910   0.822  0.00  0.00    +0.010 A 
ATOM     15  C   UNL     1       5.648  -9.014   0.440  0.00  0.00    -0.008 A 
ATOM     16  C   UNL     1       4.470  -8.848  -0.271  0.00  0.00    +0.129 A 
ATOM     17  C   UNL     1       6.120 -10.398   0.802  0.00  0.00    +0.047 C 
ATOM     18  C   UNL     1       6.772  -5.439   0.914  0.00  0.00    +0.044 C 
BRANCH  16  19
ATOM     19  O   UNL     1       3.740  -9.932  -0.642  0.00  0.00    -0.506 OA
ATOM     20  H   UNL     1       3.983 -10.293  -1.506  0.00  0.00    +0.292 HD
ENDBRANCH  16  19
ENDBRANCH   4  11
BRANCH   2  21
ATOM     21  C   UNL     1       3.774  -4.418  -2.810  0.00  0.00    -0.019 A 
ATOM     22  C   UNL     1       4.858  -3.858  -2.159  0.00  0.00    +0.009 A 
ATOM     23  C   UNL     1       6.029  -3.609  -2.850  0.00  0.00    +0.050 A 
ATOM     24  C   UNL     1       6.119  -3.921  -4.197  0.00  0.00    +0.162 A 
ATOM     25  C   UNL     1       5.028  -4.485  -4.852  0.00  0.00    +0.162 A 
ATOM     26  C   UNL     1       3.858  -4.736  -4.152  0.00  0.00    +0.055 A 
BRANCH  25  27
ATOM     27  O   UNL     1       5.111  -4.792  -6.174  0.00  0.00    -0.491 OA
ATOM     28  C   UNL     1       3.999  -5.480  -6.751  0.00  0.00    +0.277 C 
ENDBRANCH  25  27
BRANCH  24  29
ATOM     29  O   UNL     1       7.271  -3.676  -4.878  0.00  0.00    -0.484 OA
BRANCH  29  30
ATOM     30  C   UNL     1       8.349  -3.096  -4.141  0.00  0.00    +0.264 C 
BRANCH  30  31
ATOM     31  C   UNL     1       9.532  -2.899  -5.054  0.00  0.00    -0.010 A 
ATOM     32  C   UNL     1      10.469  -3.905  -5.197  0.00  0.00    +0.007 A 
ATOM     33  C   UNL     1      11.555  -3.724  -6.034  0.00  0.00    +0.000 A 
ATOM     34  C   UNL     1      11.702  -2.538  -6.728  0.00  0.00    +0.000 A 
ATOM     35  C   UNL     1      10.764  -1.533  -6.585  0.00  0.00    +0.000 A 
ATOM     36  C   UNL     1       9.677  -1.715  -5.752  0.00  0.00    +0.007 A 
ENDBRANCH  30  31
ENDBRANCH  29  30
ENDBRANCH  24  29
ENDBRANCH   2  21
BRANCH   1  37
ATOM     37  C   UNL     1       1.105  -2.812  -3.220  0.00  0.00    +0.109 C 
BRANCH  37  38
ATOM     38  C   UNL     1       0.311  -2.093  -2.127  0.00  0.00    +0.019 C 
BRANCH  38  39
ATOM     39  C   UNL     1       0.062  -0.643  -2.548  0.00  0.00    +0.001 C 
BRANCH  39  41
ATOM     40  C   UNL     1      -0.982   1.525  -1.875  0.00  0.00    +0.004 C 
ATOM     41  C   UNL     1      -0.732   0.075  -1.455  0.00  0.00    -0.003 C 
ENDBRANCH  39  41
ENDBRANCH  38  39
ENDBRANCH  37  38
ENDBRANCH   1  37
TORSDOF 11
