REMARK  Name = ZINC39530427
REMARK  8 active torsions:
REMARK  status: ('A' for Active; 'I' for Inactive)
REMARK    1  A    between atoms: C_1  and  O_2
REMARK    2  A    between atoms: O_2  and  C_3
REMARK    3  A    between atoms: C_6  and  N_19
REMARK    4  A    between atoms: C_7  and  S_9
REMARK    5  A    between atoms: S_9  and  O_12
REMARK    6  A    between atoms: O_12  and  C_13
REMARK    7  A    between atoms: C_23  and  C_26
REMARK    8  A    between atoms: C_31  and  O_32
REMARK                            x       y       z     vdW  Elec       q    Type
REMARK                         _______ _______ _______ _____ _____    ______ ____
ROOT
ATOM      1  C   UNL     1      -1.015  -0.721   0.221  0.00  0.00    +0.122 A 
ATOM      2  C   UNL     1      -2.145   0.067   0.385  0.00  0.00    +0.047 A 
ATOM      3  C   UNL     1      -3.394  -0.518   0.437  0.00  0.00    +0.029 A 
ATOM      4  C   UNL     1      -3.520  -1.897   0.324  0.00  0.00    +0.058 A 
ATOM      5  C   UNL     1      -2.388  -2.685   0.159  0.00  0.00    +0.152 A 
ATOM      6  C   UNL     1      -1.140  -2.097   0.102  0.00  0.00    +0.078 A 
ENDROOT
BRANCH   4   7
ATOM      7  N   UNL     1      -4.785  -2.491   0.376  0.00  0.00    -0.331 N 
ATOM      8  C   UNL     1      -5.367  -2.920   1.658  0.00  0.00    +0.086 C 
ATOM      9  C   UNL     1      -6.785  -2.348   1.762  0.00  0.00    -0.063 C 
ATOM     10  N   UNL     1      -7.561  -2.747   0.581  0.00  0.00    +0.386 N 
ATOM     11  C   UNL     1      -6.980  -2.144  -0.625  0.00  0.00    -0.020 C 
ATOM     12  C   UNL     1      -5.574  -2.700  -0.848  0.00  0.00    +0.094 C 
ATOM     13  H   UNL     1      -7.546  -3.752   0.494  0.00  0.00    -0.085 HD
ATOM     14  H   UNL     1      -8.515  -2.435   0.686  0.00  0.00    -0.085 HD
BRANCH  11  15
ATOM     15  C   UNL     1      -7.845  -2.470  -1.816  0.00  0.00    -0.018 A 
ATOM     16  C   UNL     1      -8.728  -3.531  -1.759  0.00  0.00    +0.005 A 
ATOM     17  C   UNL     1      -9.522  -3.830  -2.851  0.00  0.00    +0.000 A 
ATOM     18  C   UNL     1      -9.434  -3.068  -4.002  0.00  0.00    +0.004 A 
ATOM     19  C   UNL     1      -8.553  -2.006  -4.063  0.00  0.00    +0.045 A 
ATOM     20  C   UNL     1      -7.760  -1.700  -2.967  0.00  0.00    +0.118 A 
BRANCH  20  21
ATOM     21  O   UNL     1      -6.896  -0.652  -3.023  0.00  0.00    -0.507 OA
ATOM     22  H   UNL     1      -6.016  -0.885  -3.350  0.00  0.00    +0.292 HD
ENDBRANCH  20  21
ENDBRANCH  11  15
ENDBRANCH   4   7
BRANCH   5  23
ATOM     23  S   UNL     1      -2.546  -4.434   0.015  0.00  0.00    +0.153 S 
ATOM     24  O   UNL     1      -2.358  -4.967   1.319  0.00  0.00    -0.131 OA
ATOM     25  O   UNL     1      -3.723  -4.675  -0.744  0.00  0.00    -0.131 OA
BRANCH  23  26
ATOM     26  O   UNL     1      -1.377  -4.923  -0.828  0.00  0.00    -0.342 OA
BRANCH  26  27
ATOM     27  C   UNL     1      -1.512  -4.675  -2.157  0.00  0.00    +0.157 A 
ATOM     28  C   UNL     1      -2.227  -5.552  -2.959  0.00  0.00    +0.048 A 
ATOM     29  C   UNL     1      -2.362  -5.297  -4.310  0.00  0.00    +0.004 A 
ATOM     30  C   UNL     1      -1.786  -4.168  -4.863  0.00  0.00    +0.000 A 
ATOM     31  C   UNL     1      -1.073  -3.292  -4.066  0.00  0.00    +0.004 A 
ATOM     32  C   UNL     1      -0.939  -3.540  -2.713  0.00  0.00    +0.048 A 
ENDBRANCH  26  27
ENDBRANCH  23  26
ENDBRANCH   5  23
BRANCH   1  34
ATOM     33  C   UNL     1       0.270   1.279   0.299  0.00  0.00    +0.277 C 
ATOM     34  O   UNL     1       0.215  -0.143   0.171  0.00  0.00    -0.495 OA
ENDBRANCH   1  34
TORSDOF 7
