REMARK  Name = ZINC14344896
REMARK  8 active torsions:
REMARK  status: ('A' for Active; 'I' for Inactive)
REMARK    1  A    between atoms: C_1  and  C_2
REMARK    2  A    between atoms: C_4  and  C_11
REMARK    3  A    between atoms: C_5  and  C_10
REMARK    4  A    between atoms: N_6  and  C_7
REMARK    5  A    between atoms: C_7  and  C_8
REMARK    6  A    between atoms: C_17  and  C_19
REMARK    7  A    between atoms: C_19  and  N_20
REMARK    8  A    between atoms: N_27  and  C_30
REMARK                            x       y       z     vdW  Elec       q    Type
REMARK                         _______ _______ _______ _____ _____    ______ ____
ROOT
ATOM      1  C   UNL     1      -1.638   4.728   0.040  0.00  0.00    +0.082 A 
ATOM      2  C   UNL     1      -1.123   5.994   0.046  0.00  0.00    +0.077 A 
ATOM      3  S   UNL     1      -2.623   6.964   0.058  0.00  0.00    -0.060 S 
ATOM      4  C   UNL     1      -3.751   5.644   0.063  0.00  0.00    +0.165 A 
ATOM      5  N   UNL     1      -2.957   4.593   0.051  0.00  0.00    -0.225 NA
ATOM      6  N   UNL     1      -5.140   5.685   0.075  0.00  0.00    -0.263 N 
ATOM      7  C   UNL     1      -5.778   6.872   0.086  0.00  0.00    +0.239 C 
ATOM      8  O   UNL     1      -5.141   7.904   0.086  0.00  0.00    -0.273 OA
ATOM      9  H   UNL     1      -5.649   4.860   0.076  0.00  0.00    +0.157 HD
ENDROOT
BRANCH   1  13
ATOM     10  C   UNL     1       2.515   1.804  -0.011  0.00  0.00    +0.063 C 
ATOM     11  C   UNL     1       1.081   2.268   0.004  0.00  0.00    +0.017 A 
ATOM     12  C   UNL     1       0.670   3.550   0.014  0.00  0.00    +0.032 A 
ATOM     13  C   UNL     1      -0.748   3.540   0.027  0.00  0.00    +0.022 A 
ATOM     14  C   UNL     1      -1.138   2.238   0.019  0.00  0.00    +0.025 A 
ATOM     15  N   UNL     1      -0.018   1.461   0.010  0.00  0.00    -0.344 N 
ATOM     16  C   UNL     1      -2.561   1.740   0.023  0.00  0.00    +0.064 C 
BRANCH  15  17
ATOM     17  C   UNL     1       0.002  -0.004   0.002  0.00  0.00    +0.148 C 
BRANCH  17  18
ATOM     18  C   UNL     1       0.022  -0.514   1.420  0.00  0.00    -0.013 C 
ATOM     19  C   UNL     1      -0.892  -1.361   1.824  0.00  0.00    +0.005 C 
ENDBRANCH  17  18
ENDBRANCH  15  17
ENDBRANCH   1  13
BRANCH   7  20
ATOM     20  C   UNL     1      -7.285   6.917   0.100  0.00  0.00    +0.223 C 
BRANCH  20  21
ATOM     21  N   UNL     1      -7.731   8.312   0.110  0.00  0.00    -0.283 N 
ATOM     22  C   UNL     1      -7.990   9.093  -1.014  0.00  0.00    +0.070 A 
ATOM     23  C   UNL     1      -7.923   8.851  -2.377  0.00  0.00    +0.028 A 
ATOM     24  C   UNL     1      -8.250   9.852  -3.271  0.00  0.00    +0.002 A 
ATOM     25  C   UNL     1      -8.646  11.096  -2.810  0.00  0.00    +0.002 A 
ATOM     26  C   UNL     1      -8.716  11.347  -1.454  0.00  0.00    +0.028 A 
ATOM     27  C   UNL     1      -8.389  10.348  -0.550  0.00  0.00    +0.070 A 
ATOM     28  N   UNL     1      -8.360  10.290   0.842  0.00  0.00    -0.295 N 
ATOM     29  C   UNL     1      -7.968   9.055   1.207  0.00  0.00    +0.330 A 
ATOM     30  O   UNL     1      -7.843   8.671   2.355  0.00  0.00    -0.246 OA
ATOM     31  C   UNL     1      -8.704  11.385   1.752  0.00  0.00    +0.154 C 
ENDBRANCH  20  21
ENDBRANCH   7  20
TORSDOF 5
