REMARK  Name = ZINC36156020
REMARK  15 active torsions:
REMARK  status: ('A' for Active; 'I' for Inactive)
REMARK    1  A    between atoms: C_1  and  O_2
REMARK    2  A    between atoms: O_2  and  C_3
REMARK    3  A    between atoms: C_3  and  C_4
REMARK    4  A    between atoms: C_4  and  N_5
REMARK    5  A    between atoms: N_5  and  C_6
REMARK    6  A    between atoms: N_5  and  C_29
REMARK    7  A    between atoms: C_6  and  C_7
REMARK    8  A    between atoms: N_19  and  C_22
REMARK    9  A    between atoms: C_22  and  C_23
REMARK   10  A    between atoms: C_29  and  C_30
REMARK   11  A    between atoms: C_30  and  C_32
REMARK   12  A    between atoms: C_30  and  O_37
REMARK   13  A    between atoms: C_32  and  O_33
REMARK   14  A    between atoms: O_33  and  C_34
REMARK   15  A    between atoms: C_34  and  C_35
REMARK                            x       y       z     vdW  Elec       q    Type
REMARK                         _______ _______ _______ _____ _____    ______ ____
ROOT
ATOM      1  C   UNL     1       3.349  -0.348   0.276  0.00  0.00    +0.094 A 
ATOM      2  N   UNL     1       4.650   0.011   0.423  0.00  0.00    -0.312 N 
ATOM      3  H   UNL     1       5.312  -0.672   0.613  0.00  0.00    +0.170 HD
ATOM      4  C   UNL     1       5.040   1.294   0.311  0.00  0.00    +0.260 A 
ATOM      5  O   UNL     1       6.212   1.599   0.445  0.00  0.00    -0.267 OA
ATOM      6  C   UNL     1       4.054   2.296   0.030  0.00  0.00    +0.075 A 
ATOM      7  C   UNL     1       4.240   3.735  -0.133  0.00  0.00    -0.020 A 
ATOM      8  C   UNL     1       3.138   4.471  -0.395  0.00  0.00    +0.010 A 
ATOM      9  S   UNL     1       1.807   3.304  -0.442  0.00  0.00    -0.072 S 
ATOM     10  C   UNL     1       2.736   1.829  -0.106  0.00  0.00    +0.116 A 
ATOM     11  N   UNL     1       2.428   0.541   0.014  0.00  0.00    -0.229 NA
ATOM     12  C   UNL     1       3.081   5.954  -0.597  0.00  0.00    +0.127 C 
ATOM     13  N   UNL     1       4.350   6.533  -0.116  0.00  0.00    -0.293 NA
ATOM     14  C   UNL     1       5.497   5.800  -0.670  0.00  0.00    +0.090 C 
ATOM     15  C   UNL     1       5.601   4.418  -0.021  0.00  0.00    +0.052 C 
ENDROOT
BRANCH   1  16
ATOM     16  C   UNL     1       2.961  -1.798   0.411  0.00  0.00    -0.003 C 
BRANCH  16  17
ATOM     17  N   UNL     1       1.545  -1.962   0.054  0.00  0.00    +0.388 N 
ATOM     18  H   UNL     1       0.982  -1.344   0.620  0.00  0.00    -0.081 HD
BRANCH  17  19
ATOM     19  C   UNL     1       1.137  -3.353   0.293  0.00  0.00    -0.050 C 
BRANCH  19  20
ATOM     20  C   UNL     1       1.256  -3.670   1.785  0.00  0.00    +0.141 C 
BRANCH  20  22
ATOM     21  C   UNL     1       0.505  -2.946   3.943  0.00  0.00    +0.193 C 
ATOM     22  O   UNL     1       0.389  -2.808   2.525  0.00  0.00    -0.385 OA
ENDBRANCH  20  22
ENDBRANCH  19  20
ENDBRANCH  17  19
BRANCH  17  23
ATOM     23  C   UNL     1       1.357  -1.633  -1.365  0.00  0.00    -0.044 C 
BRANCH  23  24
ATOM     24  C   UNL     1      -0.138  -1.601  -1.687  0.00  0.00    +0.124 C 
BRANCH  24  25
ATOM     25  O   UNL     1      -0.663  -2.929  -1.643  0.00  0.00    -0.391 OA
ATOM     26  H   UNL     1      -0.249  -3.537  -2.271  0.00  0.00    +0.210 HD
ENDBRANCH  24  25
BRANCH  24  27
ATOM     27  C   UNL     1      -0.346  -1.016  -3.086  0.00  0.00    +0.189 C 
BRANCH  27  28
ATOM     28  O   UNL     1      -1.746  -0.878  -3.341  0.00  0.00    -0.373 OA
BRANCH  28  29
ATOM     29  C   UNL     1      -2.051  -0.338  -4.628  0.00  0.00    +0.186 C 
BRANCH  29  30
ATOM     30  C   UNL     1      -3.546  -0.237  -4.789  0.00  0.00    -0.007 C 
ATOM     31  C   UNL     1      -4.080   0.851  -5.287  0.00  0.00    +0.006 C 
ENDBRANCH  29  30
ENDBRANCH  28  29
ENDBRANCH  27  28
ENDBRANCH  24  27
ENDBRANCH  23  24
ENDBRANCH  17  23
ENDBRANCH  16  17
ENDBRANCH   1  16
BRANCH  13  32
ATOM     32  C   UNL     1       4.432   7.963  -0.441  0.00  0.00    +0.120 C 
BRANCH  32  33
ATOM     33  C   UNL     1       3.379   8.716   0.332  0.00  0.00    -0.033 A 
ATOM     34  C   UNL     1       2.121   8.896  -0.212  0.00  0.00    +0.005 A 
ATOM     35  C   UNL     1       1.155   9.586   0.497  0.00  0.00    +0.000 A 
ATOM     36  C   UNL     1       1.447  10.095   1.748  0.00  0.00    +0.000 A 
ATOM     37  C   UNL     1       2.705   9.914   2.292  0.00  0.00    +0.000 A 
ATOM     38  C   UNL     1       3.670   9.220   1.585  0.00  0.00    +0.005 A 
ENDBRANCH  32  33
ENDBRANCH  13  32
TORSDOF 14
