REMARK  Name = ZINC61886239
REMARK  4 active torsions:
REMARK  status: ('A' for Active; 'I' for Inactive)
REMARK    1  A    between atoms: C_2  and  C_9
REMARK    2  A    between atoms: N_11  and  C_12
REMARK    3  A    between atoms: C_17  and  C_19
REMARK    4  A    between atoms: N_20  and  O_21
REMARK                            x       y       z     vdW  Elec       q    Type
REMARK                         _______ _______ _______ _____ _____    ______ ____
ROOT
ATOM      1  C   UNL     1       1.008   3.728  -0.036  0.00  0.00    +0.244 C 
ATOM      2  O   UNL     1      -0.009   4.394  -0.036  0.00  0.00    -0.270 OA
ATOM      3  N   UNL     1       2.211   4.336  -0.024  0.00  0.00    -0.308 N 
ATOM      4  H   UNL     1       3.023   3.804  -0.024  0.00  0.00    +0.149 HD
ENDROOT
BRANCH   1   6
ATOM      5  C   UNL     1      -0.319   1.620  -0.062  0.00  0.00    +0.033 A 
ATOM      6  C   UNL     1       0.925   2.252  -0.049  0.00  0.00    +0.039 A 
ATOM      7  C   UNL     1       2.091   1.485  -0.050  0.00  0.00    +0.033 A 
ATOM      8  C   UNL     1       2.008   0.107  -0.063  0.00  0.00    +0.043 A 
ATOM      9  C   UNL     1       0.771  -0.514  -0.076  0.00  0.00    +0.040 A 
ATOM     10  C   UNL     1      -0.390   0.241  -0.075  0.00  0.00    +0.043 A 
ATOM     11 CL   UNL     1      -1.936  -0.547  -0.091  0.00  0.00    -0.083 Cl
ATOM     12 CL   UNL     1       3.457  -0.849  -0.065  0.00  0.00    -0.083 Cl
ENDBRANCH   1   6
BRANCH   3  13
ATOM     13  C   UNL     1       2.293   5.798  -0.010  0.00  0.00    +0.083 C 
ATOM     14  C   UNL     1       2.257   6.341  -1.450  0.00  0.00    +0.023 C 
ATOM     15  C   UNL     1       3.582   7.101  -1.667  0.00  0.00    +0.003 C 
ATOM     16  C   UNL     1       4.036   7.489  -0.238  0.00  0.00    +0.013 C 
ATOM     17  C   UNL     1       3.638   6.247   0.598  0.00  0.00    +0.076 C 
BRANCH  17  18
ATOM     18  C   UNL     1       3.463   6.619   2.048  0.00  0.00    +0.136 C 
ATOM     19  N   UNL     1       4.395   6.349   2.901  0.00  0.00    -0.076 NA
ATOM     20  N   UNL     1       2.310   7.247   2.463  0.00  0.00    -0.344 N 
ATOM     21  H   UNL     1       1.610   7.449   1.823  0.00  0.00    +0.144 HD
ATOM     22  H   UNL     1       2.197   7.486   3.397  0.00  0.00    +0.144 HD
BRANCH  19  23
ATOM     23  O   UNL     1       5.625   5.806   2.457  0.00  0.00    -0.408 OA
ATOM     24  H   UNL     1       6.259   5.638   3.167  0.00  0.00    +0.328 HD
ENDBRANCH  19  23
ENDBRANCH  17  18
ENDBRANCH   3  13
TORSDOF 4
