REMARK  Name = ZINC28509902
REMARK  9 active torsions:
REMARK  status: ('A' for Active; 'I' for Inactive)
REMARK    1  A    between atoms: C_1  and  C_2
REMARK    2  A    between atoms: C_2  and  C_4
REMARK    3  A    between atoms: C_2  and  N_21
REMARK    4  A    between atoms: C_4  and  C_5
REMARK    5  A    between atoms: N_10  and  C_11
REMARK    6  A    between atoms: C_16  and  C_17
REMARK    7  A    between atoms: C_17  and  C_18
REMARK    8  A    between atoms: C_17  and  C_19
REMARK    9  A    between atoms: C_17  and  C_20
REMARK                            x       y       z     vdW  Elec       q    Type
REMARK                         _______ _______ _______ _____ _____    ______ ____
ROOT
ATOM      1  C   UNL     1       2.990   1.872   2.442  0.00  0.00    +0.049 A 
ATOM      2  C   UNL     1       2.664   3.117   2.864  0.00  0.00    +0.071 A 
ATOM      3  S   UNL     1       1.064   3.321   2.094  0.00  0.00    -0.060 S 
ATOM      4  C   UNL     1       0.992   1.773   1.310  0.00  0.00    +0.163 A 
ATOM      5  N   UNL     1       2.135   1.224   1.673  0.00  0.00    -0.230 NA
ATOM      6  N   UNL     1      -0.013   1.247   0.512  0.00  0.00    -0.294 N 
ATOM      7  H   UNL     1       0.039   0.199   0.181  0.00  0.00    +0.154 HD
ENDROOT
BRANCH   6   8
ATOM      8  C   UNL     1      -1.091   2.049   0.127  0.00  0.00    +0.036 A 
ATOM      9  C   UNL     1      -0.902   3.406  -0.105  0.00  0.00    +0.023 A 
ATOM     10  C   UNL     1      -1.970   4.194  -0.486  0.00  0.00    +0.002 A 
ATOM     11  C   UNL     1      -3.226   3.635  -0.637  0.00  0.00    +0.000 A 
ATOM     12  C   UNL     1      -3.417   2.285  -0.407  0.00  0.00    +0.006 A 
ATOM     13  C   UNL     1      -2.353   1.489  -0.031  0.00  0.00    -0.021 A 
BRANCH  13  14
ATOM     14  C   UNL     1      -2.561   0.017   0.213  0.00  0.00    -0.011 C 
ATOM     15  C   UNL     1      -4.055  -0.307   0.135  0.00  0.00    +0.015 C 
ATOM     16  C   UNL     1      -1.808  -0.788  -0.848  0.00  0.00    +0.015 C 
ATOM     17  C   UNL     1      -2.033  -0.349   1.602  0.00  0.00    +0.015 C 
ENDBRANCH  13  14
ENDBRANCH   6   8
BRANCH   1  18
ATOM     18  C   UNL     1       4.296   1.238   2.846  0.00  0.00    +0.039 C 
BRANCH  18  20
ATOM     19  C   UNL     1       5.353  -0.813   3.804  0.00  0.00    -0.014 C 
ATOM     20  C   UNL     1       4.025  -0.114   3.507  0.00  0.00    -0.072 C 
BRANCH  20  21
ATOM     21  N   UNL     1       3.289   0.093   4.762  0.00  0.00    +0.380 N 
ATOM     22  H   UNL     1       2.334   0.596   4.548  0.00  0.00    -0.090 HD
ATOM     23  H   UNL     1       3.889   0.719   5.439  0.00  0.00    -0.090 HD
ATOM     24  H   UNL     1       3.094  -0.879   5.237  0.00  0.00    -0.090 HD
ENDBRANCH  20  21
ENDBRANCH  18  20
ENDBRANCH   1  18
TORSDOF 5
