REMARK  Name = ZINC39780515
REMARK  8 active torsions:
REMARK  status: ('A' for Active; 'I' for Inactive)
REMARK    1  A    between atoms: C_4  and  N_11
REMARK    2  A    between atoms: C_5  and  C_7
REMARK    3  A    between atoms: C_12  and  C_14
REMARK    4  A    between atoms: C_14  and  N_15
REMARK    5  A    between atoms: N_15  and  C_16
REMARK    6  A    between atoms: N_15  and  S_22
REMARK    7  A    between atoms: C_16  and  C_17
REMARK    8  A    between atoms: S_22  and  C_25
REMARK                            x       y       z     vdW  Elec       q    Type
REMARK                         _______ _______ _______ _____ _____    ______ ____
ROOT
ATOM      1  N   UNL     1       7.180   0.264  -0.382  0.00  0.00    -0.160 NA
ENDROOT
BRANCH   1   2
ATOM      2  S   UNL     1       7.743   0.722  -1.870  0.00  0.00    +0.062 S 
ATOM      3  O   UNL     1       9.078   1.170  -1.679  0.00  0.00    -0.153 OA
ATOM      4  O   UNL     1       7.413  -0.328  -2.769  0.00  0.00    -0.153 OA
BRANCH   2   5
ATOM      5  C   UNL     1       6.807   2.128  -2.372  0.00  0.00    +0.107 A 
ATOM      6  C   UNL     1       5.576   1.925  -3.126  0.00  0.00    +0.030 A 
ATOM      7  C   UNL     1       4.811   2.959  -3.540  0.00  0.00    +0.027 A 
ATOM      8  C   UNL     1       5.219   4.327  -3.229  0.00  0.00    +0.056 A 
ATOM      9  N   UNL     1       4.727   5.516  -3.473  0.00  0.00    -0.268 N 
ATOM     10  C   UNL     1       5.566   6.455  -2.921  0.00  0.00    +0.308 C 
ATOM     11  O   UNL     1       5.397   7.654  -2.968  0.00  0.00    -0.252 OA
ATOM     12  N   UNL     1       6.627   5.829  -2.309  0.00  0.00    -0.267 N 
ATOM     13  C   UNL     1       6.484   4.536  -2.455  0.00  0.00    +0.058 A 
ATOM     14  C   UNL     1       7.249   3.361  -2.041  0.00  0.00    +0.053 A 
ATOM     15  H   UNL     1       7.356   6.271  -1.847  0.00  0.00    +0.156 HD
ATOM     16  H   UNL     1       3.909   5.702  -3.959  0.00  0.00    +0.156 HD
ENDBRANCH   2   5
ENDBRANCH   1   2
BRANCH   1  17
ATOM     17  C   UNL     1       6.083  -0.701  -0.278  0.00  0.00    +0.205 C 
BRANCH  17  19
ATOM     18  N   UNL     1       3.622  -0.651  -0.037  0.00  0.00    -0.284 N 
ATOM     19  C   UNL     1       4.775   0.037  -0.147  0.00  0.00    +0.233 C 
ATOM     20  O   UNL     1       4.761   1.250  -0.141  0.00  0.00    -0.274 OA
ATOM     21  H   UNL     1       3.638  -1.619   0.023  0.00  0.00    +0.155 HD
BRANCH  18  25
ATOM     22  C   UNL     1      -0.015   1.381   0.041  0.00  0.00    +0.001 A 
ATOM     23  C   UNL     1       1.104   1.945   0.627  0.00  0.00    +0.002 A 
ATOM     24  C   UNL     1       2.311   1.274   0.603  0.00  0.00    +0.024 A 
ATOM     25  C   UNL     1       2.400   0.031  -0.011  0.00  0.00    +0.045 A 
ATOM     26  C   UNL     1       1.275  -0.532  -0.598  0.00  0.00    +0.076 A 
ATOM     27  C   UNL     1       0.071   0.144  -0.571  0.00  0.00    +0.014 A 
BRANCH  26  28
ATOM     28  C   UNL     1       1.368  -1.881  -1.264  0.00  0.00    +0.419 C 
ATOM     29  F   UNL     1       0.116  -2.235  -1.777  0.00  0.00    -0.166 F 
ATOM     30  F   UNL     1       2.299  -1.823  -2.307  0.00  0.00    -0.166 F 
ATOM     31  F   UNL     1       1.775  -2.837  -0.328  0.00  0.00    -0.166 F 
ENDBRANCH  26  28
ENDBRANCH  18  25
ENDBRANCH  17  19
ENDBRANCH   1  17
BRANCH   1  32
ATOM     32  C   UNL     1       7.779   0.825   0.832  0.00  0.00    +0.184 C 
BRANCH  32  33
ATOM     33  C   UNL     1       8.843  -0.111   1.345  0.00  0.00    +0.120 A 
ATOM     34  C   UNL     1      10.146  -0.081   1.011  0.00  0.00    +0.046 A 
ATOM     35  C   UNL     1      10.775  -1.129   1.720  0.00  0.00    +0.041 A 
ATOM     36  C   UNL     1       9.820  -1.738   2.445  0.00  0.00    +0.195 A 
ATOM     37  O   UNL     1       8.652  -1.113   2.219  0.00  0.00    -0.466 OA
ENDBRANCH  32  33
ENDBRANCH   1  32
TORSDOF 8
