REMARK  Name = ZINC12779639
REMARK  8 active torsions:
REMARK  status: ('A' for Active; 'I' for Inactive)
REMARK    1  A    between atoms: C_1  and  C_2
REMARK    2  A    between atoms: C_8  and  C_30
REMARK    3  A    between atoms: C_12  and  C_13
REMARK    4  A    between atoms: C_18  and  C_21
REMARK    5  A    between atoms: C_21  and  C_23
REMARK    6  A    between atoms: C_26  and  O_29
REMARK    7  A    between atoms: C_30  and  S_31
REMARK    8  A    between atoms: S_31  and  C_32
REMARK                            x       y       z     vdW  Elec       q    Type
REMARK                         _______ _______ _______ _____ _____    ______ ____
ROOT
ATOM      1  C   UNL     1      -7.703   1.819   1.342  0.00  0.00    +0.254 C 
ATOM      2  O   UNL     1      -8.582   1.964   0.513  0.00  0.00    -0.269 OA
ATOM      3  N   UNL     1      -6.509   1.310   0.977  0.00  0.00    -0.297 N 
ATOM      4  C   UNL     1      -6.285   0.840  -0.397  0.00  0.00    +0.109 C 
ATOM      5  C   UNL     1      -5.763  -0.599  -0.347  0.00  0.00    +0.030 C 
ATOM      6  C   UNL     1      -4.522  -0.657   0.547  0.00  0.00    +0.063 C 
ATOM      7  C   UNL     1      -4.896  -0.229   1.968  0.00  0.00    +0.030 C 
ATOM      8  C   UNL     1      -5.408   1.215   1.944  0.00  0.00    +0.109 C 
ENDROOT
BRANCH   1  20
ATOM      9  C   UNL     1     -10.179   1.131   2.963  0.00  0.00    +0.046 C 
ATOM     10  C   UNL     1      -9.025   1.923   3.521  0.00  0.00    -0.017 A 
ATOM     11  C   UNL     1      -9.059   2.373   4.843  0.00  0.00    +0.076 A 
ATOM     12  C   UNL     1     -10.114   2.193   5.866  0.00  0.00    +0.260 A 
ATOM     13  O   UNL     1     -11.132   1.573   5.612  0.00  0.00    -0.267 OA
ATOM     14  N   UNL     1      -9.920   2.733   7.085  0.00  0.00    -0.310 N 
ATOM     15  H   UNL     1     -10.602   2.624   7.767  0.00  0.00    +0.170 HD
ATOM     16  C   UNL     1      -8.792   3.425   7.379  0.00  0.00    +0.121 A 
ATOM     17  N   UNL     1      -7.843   3.603   6.501  0.00  0.00    -0.226 NA
ATOM     18  C   UNL     1      -7.933   3.113   5.271  0.00  0.00    +0.116 A 
ATOM     19  S   UNL     1      -6.892   3.137   3.833  0.00  0.00    -0.064 S 
ATOM     20  C   UNL     1      -7.942   2.197   2.739  0.00  0.00    +0.080 A 
BRANCH  16  21
ATOM     21  C   UNL     1      -8.630   4.007   8.759  0.00  0.00    +0.143 C 
BRANCH  21  22
ATOM     22  S   UNL     1      -7.039   4.873   8.867  0.00  0.00    -0.156 S 
ATOM     23  C   UNL     1      -6.999   5.507  10.566  0.00  0.00    +0.084 C 
ENDBRANCH  21  22
ENDBRANCH  16  21
ENDBRANCH   1  20
BRANCH   6  24
ATOM     24  C   UNL     1      -3.986  -2.065   0.572  0.00  0.00    +0.166 C 
ATOM     25  O   UNL     1      -4.726  -3.000   0.348  0.00  0.00    -0.292 OA
BRANCH  24  26
ATOM     26  C   UNL     1      -2.568  -2.305   0.867  0.00  0.00    +0.018 A 
ATOM     27  C   UNL     1      -2.067  -3.613   0.891  0.00  0.00    +0.015 A 
ATOM     28  C   UNL     1      -0.740  -3.831   1.161  0.00  0.00    +0.046 A 
ATOM     29  C   UNL     1       0.106  -2.757   1.417  0.00  0.00    +0.117 A 
ATOM     30  C   UNL     1      -0.388  -1.457   1.400  0.00  0.00    +0.046 A 
ATOM     31  C   UNL     1      -1.713  -1.228   1.131  0.00  0.00    +0.015 A 
BRANCH  29  32
ATOM     32  O   UNL     1       1.418  -2.979   1.683  0.00  0.00    -0.507 OA
ATOM     33  H   UNL     1       1.983  -2.984   0.899  0.00  0.00    +0.292 HD
ENDBRANCH  29  32
ENDBRANCH  24  26
ENDBRANCH   6  24
TORSDOF 6
