REMARK  Name = ZINC10022509
REMARK  12 active torsions:
REMARK  status: ('A' for Active; 'I' for Inactive)
REMARK    1  A    between atoms: C_1  and  C_2
REMARK    2  A    between atoms: C_2  and  C_3
REMARK    3  A    between atoms: C_2  and  C_4
REMARK    4  A    between atoms: C_4  and  N_5
REMARK    5  A    between atoms: N_5  and  C_6
REMARK    6  A    between atoms: C_7  and  N_22
REMARK    7  A    between atoms: N_8  and  C_15
REMARK    8  A    between atoms: C_15  and  C_16
REMARK    9  A    between atoms: C_23  and  C_25
REMARK   10  A    between atoms: C_25  and  N_69
REMARK   11  A    between atoms: C_29  and  C_31
REMARK   12  A    between atoms: N_35  and  C_36
REMARK                            x       y       z     vdW  Elec       q    Type
REMARK                         _______ _______ _______ _____ _____    ______ ____
ROOT
ATOM      1  N   UNL     1       0.046   0.825   2.859  0.00  0.00    -0.266 N 
ATOM      2  C   UNL     1      -0.824   1.132   1.874  0.00  0.00    +0.203 C 
ATOM      3  O   UNL     1      -1.964   1.443   2.146  0.00  0.00    -0.277 OA
ENDROOT
BRANCH   1   4
ATOM      4  C   UNL     1      -0.341   0.962   4.209  0.00  0.00    +0.140 A 
ATOM      5  C   UNL     1      -0.708   2.193   4.713  0.00  0.00    +0.128 A 
ATOM      6  N   UNL     1      -1.080   2.295   6.033  0.00  0.00    -0.276 N 
ATOM      7  C   UNL     1      -1.087   1.207   6.824  0.00  0.00    +0.331 A 
ATOM      8  O   UNL     1      -1.419   1.318   7.988  0.00  0.00    -0.246 OA
ATOM      9  N   UNL     1      -0.734  -0.001   6.351  0.00  0.00    -0.273 N 
ATOM     10  H   UNL     1      -0.744  -0.793   6.961  0.00  0.00    +0.173 HD
ATOM     11  C   UNL     1      -0.365  -0.156   5.064  0.00  0.00    +0.277 A 
ATOM     12  O   UNL     1      -0.051  -1.257   4.644  0.00  0.00    -0.266 OA
BRANCH   5  13
ATOM     13  N   UNL     1      -0.701   3.305   3.904  0.00  0.00    -0.343 N 
ATOM     14  H   UNL     1      -0.378   3.239   2.992  0.00  0.00    +0.144 HD
ATOM     15  H   UNL     1      -1.018   4.155   4.246  0.00  0.00    +0.144 HD
ENDBRANCH   5  13
BRANCH   6  16
ATOM     16  C   UNL     1      -1.472   3.596   6.580  0.00  0.00    +0.163 C 
BRANCH  16  17
ATOM     17  C   UNL     1      -2.956   3.788   6.407  0.00  0.00    -0.028 A 
ATOM     18  C   UNL     1      -3.446   4.388   5.262  0.00  0.00    +0.005 A 
ATOM     19  C   UNL     1      -4.808   4.560   5.100  0.00  0.00    +0.000 A 
ATOM     20  C   UNL     1      -5.680   4.141   6.088  0.00  0.00    +0.000 A 
ATOM     21  C   UNL     1      -5.190   3.546   7.235  0.00  0.00    +0.000 A 
ATOM     22  C   UNL     1      -3.828   3.369   7.395  0.00  0.00    +0.005 A 
ENDBRANCH  16  17
ENDBRANCH   6  16
ENDBRANCH   1   4
BRANCH   1  23
ATOM     23  C   UNL     1       1.391   0.349   2.527  0.00  0.00    +0.117 C 
BRANCH  23  25
ATOM     24  C   UNL     1       2.493   2.300   3.633  0.00  0.00    +0.009 C 
ATOM     25  C   UNL     1       2.317   1.548   2.312  0.00  0.00    +0.001 C 
ATOM     26  C   UNL     1       3.680   1.058   1.819  0.00  0.00    +0.009 C 
ENDBRANCH  23  25
ENDBRANCH   1  23
BRANCH   2  27
ATOM     27  C   UNL     1      -0.378   1.088   0.435  0.00  0.00    +0.020 C 
BRANCH  27  32
ATOM     28  C   UNL     1      -1.824   2.892  -0.298  0.00  0.00    -0.077 C 
ATOM     29  C   UNL     1      -1.725   3.522  -1.703  0.00  0.00    -0.020 C 
ATOM     30  C   UNL     1      -1.906   2.304  -2.646  0.00  0.00    -0.011 C 
ATOM     31  C   UNL     1      -1.183   1.186  -1.855  0.00  0.00    -0.020 C 
ATOM     32  N   UNL     1      -1.518   1.460  -0.443  0.00  0.00    +0.391 N 
ATOM     33  H   UNL     1      -2.341   0.908  -0.176  0.00  0.00    -0.080 HD
BRANCH  31  34
ATOM     34  C   UNL     1      -1.710  -0.167  -2.257  0.00  0.00    +0.005 A 
ATOM     35  C   UNL     1      -2.290  -1.066  -1.436  0.00  0.00    +0.021 A 
ATOM     36  C   UNL     1      -2.636  -2.188  -2.215  0.00  0.00    +0.019 A 
ATOM     37  C   UNL     1      -2.248  -1.935  -3.481  0.00  0.00    +0.085 A 
ATOM     38  N   UNL     1      -1.679  -0.696  -3.514  0.00  0.00    -0.355 N 
ATOM     39  C   UNL     1      -1.126  -0.042  -4.702  0.00  0.00    +0.148 C 
ENDBRANCH  31  34
ENDBRANCH  27  32
ENDBRANCH   2  27
TORSDOF 9
