REMARK  Name = ZINC37944083
REMARK  5 active torsions:
REMARK  status: ('A' for Active; 'I' for Inactive)
REMARK    1  A    between atoms: C_5  and  N_7
REMARK    2  A    between atoms: N_7  and  C_8
REMARK    3  A    between atoms: C_8  and  C_10
REMARK    4  A    between atoms: C_8  and  C_17
REMARK    5  A    between atoms: C_13  and  O_16
REMARK                            x       y       z     vdW  Elec       q    Type
REMARK                         _______ _______ _______ _____ _____    ______ ____
ROOT
ATOM      1  C   UNL     1      -0.019  -2.831  -0.013  0.00  0.00    +0.187 C 
ENDROOT
BRANCH   1   2
ATOM      2  C   UNL     1       0.217  -4.197   0.577  0.00  0.00    -0.018 A 
ATOM      3  C   UNL     1       1.375  -4.889   0.272  0.00  0.00    +0.009 A 
ATOM      4  C   UNL     1       1.594  -6.142   0.812  0.00  0.00    +0.046 A 
ATOM      5  C   UNL     1       0.652  -6.705   1.661  0.00  0.00    +0.117 A 
ATOM      6  C   UNL     1      -0.508  -6.008   1.965  0.00  0.00    +0.046 A 
ATOM      7  C   UNL     1      -0.720  -4.753   1.427  0.00  0.00    +0.009 A 
BRANCH   5   8
ATOM      8  O   UNL     1       0.865  -7.937   2.192  0.00  0.00    -0.507 OA
ATOM      9  H   UNL     1       1.331  -7.925   3.039  0.00  0.00    +0.292 HD
ENDBRANCH   5   8
ENDBRANCH   1   2
BRANCH   1  10
ATOM     10  C   UNL     1      -0.528  -2.974  -1.424  0.00  0.00    +0.235 C 
ATOM     11  O   UNL     1       0.097  -2.495  -2.346  0.00  0.00    -0.274 OA
ATOM     12  N   UNL     1      -1.679  -3.635  -1.662  0.00  0.00    -0.328 N 
ATOM     13  H   UNL     1      -2.179  -4.019  -0.924  0.00  0.00    +0.145 HD
ATOM     14  H   UNL     1      -2.006  -3.728  -2.570  0.00  0.00    +0.145 HD
ENDBRANCH   1  10
BRANCH   1  15
ATOM     15  N   UNL     1       1.237  -2.078  -0.021  0.00  0.00    -0.329 N 
ATOM     16  H   UNL     1       2.085  -2.549  -0.033  0.00  0.00    +0.147 HD
BRANCH  15  21
ATOM     17  C   UNL     1      -0.017   1.377   0.010  0.00  0.00    +0.002 A 
ATOM     18  C   UNL     1       1.170   2.086   0.002  0.00  0.00    +0.001 A 
ATOM     19  C   UNL     1       2.380   1.417  -0.013  0.00  0.00    +0.017 A 
ATOM     20  C   UNL     1       2.406   0.035  -0.021  0.00  0.00    +0.039 A 
ATOM     21  C   UNL     1       1.215  -0.681  -0.013  0.00  0.00    +0.042 A 
ATOM     22  C   UNL     1       0.002  -0.004   0.002  0.00  0.00    +0.024 A 
ATOM     23 BR   UNL     1       4.061  -0.880  -0.043  0.00  0.00    -0.048 Br
ENDBRANCH  15  21
ENDBRANCH   1  15
TORSDOF 5
