REMARK  Name = ZINC30514367
REMARK  10 active torsions:
REMARK  status: ('A' for Active; 'I' for Inactive)
REMARK    1  A    between atoms: C_1  and  C_2
REMARK    2  A    between atoms: C_2  and  C_4
REMARK    3  A    between atoms: C_2  and  N_14
REMARK    4  A    between atoms: N_9  and  C_10
REMARK    5  A    between atoms: C_10  and  C_11
REMARK    6  A    between atoms: C_10  and  C_12
REMARK    7  A    between atoms: C_10  and  C_13
REMARK    8  A    between atoms: N_14  and  C_15
REMARK    9  A    between atoms: C_15  and  C_16
REMARK   10  A    between atoms: C_16  and  N_21
REMARK                            x       y       z     vdW  Elec       q    Type
REMARK                         _______ _______ _______ _____ _____    ______ ____
ROOT
ATOM      1  N   UNL     1      -0.018   1.465   0.010  0.00  0.00    -0.307 NA
ATOM      2  H   UNL     1      -0.550   1.829  -0.881  0.00  0.00    +0.123 HD
ENDROOT
BRANCH   1   4
ATOM      3  C   UNL     1       0.121  -0.505  -1.439  0.00  0.00    +0.034 C 
ATOM      4  C   UNL     1       0.002  -0.004   0.002  0.00  0.00    +0.138 C 
BRANCH   4   5
ATOM      5  C   UNL     1      -1.273  -0.527   0.612  0.00  0.00    +0.237 C 
ATOM      6  O   UNL     1      -2.115   0.247   1.014  0.00  0.00    -0.274 OA
ATOM      7  N   UNL     1      -1.477  -1.856   0.711  0.00  0.00    -0.239 N 
ATOM      8  C   UNL     1      -2.617  -2.323   1.256  0.00  0.00    +0.306 C 
ATOM      9  O   UNL     1      -3.462  -1.547   1.659  0.00  0.00    -0.252 OA
ATOM     10  N   UNL     1      -2.822  -3.652   1.355  0.00  0.00    -0.294 N 
ATOM     11  H   UNL     1      -0.713  -2.558   0.346  0.00  0.00    +0.159 HD
ATOM     12  H   UNL     1      -2.058  -4.354   0.991  0.00  0.00    +0.151 HD
BRANCH  10  13
ATOM     13  C   UNL     1      -4.061  -4.160   1.948  0.00  0.00    +0.028 C 
ATOM     14  C   UNL     1      -5.257  -3.662   1.135  0.00  0.00    +0.031 C 
ATOM     15  C   UNL     1      -4.040  -5.690   1.940  0.00  0.00    +0.031 C 
ATOM     16  C   UNL     1      -4.180  -3.660   3.389  0.00  0.00    +0.031 C 
ENDBRANCH  10  13
ENDBRANCH   4   5
ENDBRANCH   1   4
BRANCH   1  17
ATOM     17  C   UNL     1       1.346   2.010   0.000  0.00  0.00    +0.069 C 
BRANCH  17  18
ATOM     18  C   UNL     1       1.285   3.539   0.009  0.00  0.00    -0.053 C 
ATOM     19  C   UNL     1       0.574   4.046  -1.263  0.00  0.00    -0.011 C 
ATOM     20  C   UNL     1       1.345   5.336  -1.640  0.00  0.00    -0.001 C 
ATOM     21  C   UNL     1       2.812   4.966  -1.307  0.00  0.00    -0.001 C 
ATOM     22  C   UNL     1       2.708   4.124  -0.019  0.00  0.00    -0.011 C 
BRANCH  18  23
ATOM     23  N   UNL     1       0.572   4.006   1.205  0.00  0.00    +0.385 N 
ATOM     24  C   UNL     1       1.331   3.703   2.421  0.00  0.00    -0.067 C 
ATOM     25  C   UNL     1       0.829   4.574   3.578  0.00  0.00    +0.050 C 
ATOM     26  S   UNL     1      -0.923   4.182   3.872  0.00  0.00    -0.164 S 
ATOM     27  C   UNL     1      -1.647   4.308   2.207  0.00  0.00    +0.050 C 
ATOM     28  C   UNL     1      -0.792   3.474   1.245  0.00  0.00    -0.067 C 
ATOM     29  H   UNL     1       0.481   5.101   1.156  0.00  0.00    -0.081 HD
ENDBRANCH  18  23
ENDBRANCH  17  18
ENDBRANCH   1  17
TORSDOF 6
