REMARK  Name = ZINC42140176
REMARK  4 active torsions:
REMARK  status: ('A' for Active; 'I' for Inactive)
REMARK    1  A    between atoms: C_6  and  S_11
REMARK    2  A    between atoms: S_11  and  C_12
REMARK    3  A    between atoms: C_13  and  C_19
REMARK    4  A    between atoms: C_15  and  N_18
REMARK                            x       y       z     vdW  Elec       q    Type
REMARK                         _______ _______ _______ _____ _____    ______ ____
ROOT
ATOM      1  C   UNL     1       4.777  -4.541   0.082  0.00  0.00    +0.114 A 
ATOM      2  C   UNL     1       5.777  -5.519   0.211  0.00  0.00    +0.070 A 
ATOM      3  C   UNL     1       5.399  -6.862   0.325  0.00  0.00    +0.040 A 
ATOM      4  C   UNL     1       4.044  -7.168   0.304  0.00  0.00    +0.044 A 
ATOM      5  C   UNL     1       3.115  -6.143   0.172  0.00  0.00    +0.134 A 
ATOM      6  N   UNL     1       3.498  -4.885   0.072  0.00  0.00    -0.246 NA
ENDROOT
BRANCH   2   7
ATOM      7  C   UNL     1       7.201  -5.138   0.227  0.00  0.00    +0.244 C 
ATOM      8  O   UNL     1       7.519  -3.968   0.127  0.00  0.00    -0.270 OA
ATOM      9  N   UNL     1       8.152  -6.085   0.353  0.00  0.00    -0.325 N 
ATOM     10  H   UNL     1       7.898  -7.018   0.432  0.00  0.00    +0.145 HD
ATOM     11  H   UNL     1       9.088  -5.834   0.363  0.00  0.00    +0.145 HD
ENDBRANCH   2   7
BRANCH   4  12
ATOM     12  N   UNL     1       3.618  -8.498   0.415  0.00  0.00    -0.357 N 
ATOM     13  H   UNL     1       4.270  -9.210   0.506  0.00  0.00    +0.142 HD
ATOM     14  H   UNL     1       2.671  -8.706   0.400  0.00  0.00    +0.142 HD
ENDBRANCH   4  12
BRANCH   1  15
ATOM     15  S   UNL     1       5.227  -2.844  -0.064  0.00  0.00    -0.069 S 
BRANCH  15  21
ATOM     16  C   UNL     1      -0.559   0.356   1.129  0.00  0.00    +0.001 A 
ATOM     17  C   UNL     1       0.045   0.021   2.339  0.00  0.00    +0.001 A 
ATOM     18  C   UNL     1       1.236  -0.637   2.368  0.00  0.00    +0.008 A 
ATOM     19  C   UNL     1       1.868  -0.986   1.161  0.00  0.00    -0.017 A 
ATOM     20  C   UNL     1       3.096  -1.666   1.154  0.00  0.00    +0.023 A 
ATOM     21  C   UNL     1       3.685  -1.991  -0.049  0.00  0.00    +0.015 A 
ATOM     22  C   UNL     1       3.069  -1.651  -1.260  0.00  0.00    +0.016 A 
ATOM     23  C   UNL     1       1.881  -0.993  -1.279  0.00  0.00    +0.009 A 
ATOM     24  C   UNL     1       1.252  -0.646  -0.070  0.00  0.00    -0.018 A 
ATOM     25  C   UNL     1       0.023   0.035  -0.059  0.00  0.00    +0.008 A 
ENDBRANCH  15  21
ENDBRANCH   1  15
TORSDOF 4
