REMARK  Name = ZINC42875019
REMARK  7 active torsions:
REMARK  status: ('A' for Active; 'I' for Inactive)
REMARK    1  A    between atoms: C_7  and  C_11
REMARK    2  A    between atoms: C_11  and  C_13
REMARK    3  A    between atoms: C_11  and  C_21
REMARK    4  A    between atoms: C_13  and  N_14
REMARK    5  A    between atoms: N_17  and  C_18
REMARK    6  A    between atoms: C_18  and  C_19
REMARK    7  A    between atoms: C_19  and  O_20
REMARK                            x       y       z     vdW  Elec       q    Type
REMARK                         _______ _______ _______ _____ _____    ______ ____
ROOT
ATOM      1  C   UNL     1       0.666  -3.275  -0.021  0.00  0.00    +0.069 C 
ENDROOT
BRANCH   1   8
ATOM      2  C   UNL     1      -0.017   1.362   0.009  0.00  0.00    +0.001 A 
ATOM      3  C   UNL     1       1.170   2.083   0.002  0.00  0.00    +0.002 A 
ATOM      4  C   UNL     1       2.386   1.436  -0.013  0.00  0.00    +0.026 A 
ATOM      5  C   UNL     1       2.428   0.046  -0.021  0.00  0.00    +0.047 A 
ATOM      6  C   UNL     1       1.223  -0.681  -0.013  0.00  0.00    +0.003 A 
ATOM      7  C   UNL     1       0.002  -0.004   0.002  0.00  0.00    +0.010 A 
ATOM      8  C   UNL     1       1.604  -2.095  -0.025  0.00  0.00    -0.013 A 
ATOM      9  C   UNL     1       2.945  -2.141  -0.038  0.00  0.00    +0.088 A 
ATOM     10  N   UNL     1       3.455  -0.871  -0.036  0.00  0.00    -0.360 N 
ATOM     11  H   UNL     1       4.399  -0.650  -0.044  0.00  0.00    +0.165 HD
ENDBRANCH   1   8
BRANCH   1  12
ATOM     12  C   UNL     1       0.898  -4.104  -1.258  0.00  0.00    -0.020 A 
ATOM     13  C   UNL     1       2.138  -4.669  -1.490  0.00  0.00    +0.006 A 
ATOM     14  C   UNL     1       2.350  -5.429  -2.625  0.00  0.00    +0.000 A 
ATOM     15  C   UNL     1       1.322  -5.625  -3.529  0.00  0.00    +0.001 A 
ATOM     16  C   UNL     1       0.082  -5.061  -3.298  0.00  0.00    +0.020 A 
ATOM     17  C   UNL     1      -0.133  -4.304  -2.159  0.00  0.00    +0.045 A 
ATOM     18 CL   UNL     1      -1.692  -3.600  -1.866  0.00  0.00    -0.083 Cl
ENDBRANCH   1  12
BRANCH   1  19
ATOM     19  C   UNL     1       0.927  -4.130   1.221  0.00  0.00    +0.118 C 
BRANCH  19  20
ATOM     20  N   UNL     1      -0.061  -5.209   1.287  0.00  0.00    -0.299 N 
ATOM     21  C   UNL     1      -0.027  -6.093   2.304  0.00  0.00    +0.300 C 
ATOM     22  O   UNL     1       0.824  -5.995   3.167  0.00  0.00    -0.253 OA
ATOM     23  N   UNL     1      -0.936  -7.086   2.365  0.00  0.00    -0.297 N 
ATOM     24  H   UNL     1      -0.741  -5.288   0.599  0.00  0.00    +0.150 HD
ATOM     25  H   UNL     1      -1.615  -7.165   1.677  0.00  0.00    +0.150 HD
BRANCH  23  26
ATOM     26  C   UNL     1      -0.899  -8.047   3.470  0.00  0.00    +0.133 C 
BRANCH  26  27
ATOM     27  C   UNL     1      -2.030  -9.062   3.302  0.00  0.00    +0.174 C 
BRANCH  27  28
ATOM     28  O   UNL     1      -1.805  -9.835   2.122  0.00  0.00    -0.393 OA
ATOM     29  H   UNL     1      -2.486 -10.501   1.952  0.00  0.00    +0.209 HD
ENDBRANCH  27  28
ENDBRANCH  26  27
ENDBRANCH  23  26
ENDBRANCH  19  20
ENDBRANCH   1  19
TORSDOF 7
