REMARK  Name = ZINC65147423
REMARK  7 active torsions:
REMARK  status: ('A' for Active; 'I' for Inactive)
REMARK    1  A    between atoms: C_4  and  S_7
REMARK    2  A    between atoms: S_7  and  C_8
REMARK    3  A    between atoms: C_8  and  C_9
REMARK    4  A    between atoms: C_12  and  C_15
REMARK    5  A    between atoms: N_17  and  N_18
REMARK    6  A    between atoms: N_21  and  C_22
REMARK    7  A    between atoms: C_22  and  C_23
REMARK                            x       y       z     vdW  Elec       q    Type
REMARK                         _______ _______ _______ _____ _____    ______ ____
ROOT
ATOM      1  C   UNL     1       8.201  -5.846  -0.112  0.00  0.00    +0.260 C 
ATOM      2  O   UNL     1       8.693  -6.182  -1.172  0.00  0.00    -0.269 OA
ATOM      3  N   UNL     1       8.764  -6.240   1.047  0.00  0.00    -0.229 N 
ATOM      4  H   UNL     1       8.372  -5.972   1.893  0.00  0.00    +0.173 HD
ENDROOT
BRANCH   1   8
ATOM      5  C   UNL     1       4.705  -3.433  -0.063  0.00  0.00    -0.037 A 
ATOM      6  C   UNL     1       5.263  -3.814  -1.271  0.00  0.00    +0.005 A 
ATOM      7  C   UNL     1       6.398  -4.597  -1.294  0.00  0.00    +0.013 A 
ATOM      8  C   UNL     1       6.984  -5.006  -0.095  0.00  0.00    +0.038 A 
ATOM      9  C   UNL     1       6.417  -4.619   1.120  0.00  0.00    +0.013 A 
ATOM     10  C   UNL     1       5.285  -3.831   1.129  0.00  0.00    +0.005 A 
BRANCH   5  11
ATOM     11  C   UNL     1       3.465  -2.578  -0.046  0.00  0.00    +0.109 C 
BRANCH  11  12
ATOM     12  S   UNL     1       3.939  -0.827  -0.042  0.00  0.00    -0.121 S 
BRANCH  12  16
ATOM     13  C   UNL     1      -0.017   1.379   0.010  0.00  0.00    +0.000 A 
ATOM     14  C   UNL     1       1.169   2.090   0.002  0.00  0.00    +0.001 A 
ATOM     15  C   UNL     1       2.377   1.421  -0.013  0.00  0.00    +0.015 A 
ATOM     16  C   UNL     1       2.400   0.031  -0.021  0.00  0.00    +0.008 A 
ATOM     17  C   UNL     1       1.206  -0.680  -0.013  0.00  0.00    +0.015 A 
ATOM     18  C   UNL     1       0.002  -0.004   0.002  0.00  0.00    +0.001 A 
ENDBRANCH  12  16
ENDBRANCH  11  12
ENDBRANCH   5  11
ENDBRANCH   1   8
BRANCH   3  19
ATOM     19  N   UNL     1       9.917  -7.036   1.031  0.00  0.00    -0.218 N 
ATOM     20  C   UNL     1      10.480  -7.430   2.191  0.00  0.00    +0.316 C 
ATOM     21  O   UNL     1      11.481  -8.121   2.176  0.00  0.00    -0.251 OA
ATOM     22  N   UNL     1       9.935  -7.057   3.365  0.00  0.00    -0.296 N 
ATOM     23  H   UNL     1      10.309  -7.304   0.186  0.00  0.00    +0.174 HD
ATOM     24  H   UNL     1       9.137  -6.506   3.377  0.00  0.00    +0.150 HD
BRANCH  22  25
ATOM     25  C   UNL     1      10.547  -7.485   4.626  0.00  0.00    +0.137 C 
BRANCH  25  26
ATOM     26  C   UNL     1       9.738  -6.931   5.800  0.00  0.00    +0.135 C 
ATOM     27  C   UNL     1      10.440  -7.279   7.130  0.00  0.00    +0.035 C 
ATOM     28  C   UNL     1       9.241  -7.623   8.055  0.00  0.00    +0.031 C 
ATOM     29  C   UNL     1       8.266  -8.276   7.043  0.00  0.00    +0.160 C 
ATOM     30  O   UNL     1       8.440  -7.535   5.824  0.00  0.00    -0.375 OA
ENDBRANCH  25  26
ENDBRANCH  22  25
ENDBRANCH   3  19
TORSDOF 7
