REMARK  Name = ZINC39629713
REMARK  7 active torsions:
REMARK  status: ('A' for Active; 'I' for Inactive)
REMARK    1  A    between atoms: C_4  and  C_7
REMARK    2  A    between atoms: C_7  and  N_8
REMARK    3  A    between atoms: C_9  and  C_11
REMARK    4  A    between atoms: C_22  and  C_24
REMARK    5  A    between atoms: C_30  and  O_32
REMARK    6  A    between atoms: O_32  and  C_33
REMARK    7  A    between atoms: C_33  and  C_34
REMARK                            x       y       z     vdW  Elec       q    Type
REMARK                         _______ _______ _______ _____ _____    ______ ____
ROOT
ATOM      1  C   UNL     1       5.764  -1.853   2.984  0.00  0.00    +0.100 C 
ATOM      2  C   UNL     1       6.136  -0.522   3.675  0.00  0.00    +0.121 C 
ATOM      3  N   UNL     1       7.310  -0.852   4.516  0.00  0.00    -0.300 N 
ATOM      4  C   UNL     1       8.109  -1.784   3.684  0.00  0.00    +0.115 C 
ATOM      5  C   UNL     1       7.062  -2.678   2.991  0.00  0.00    -0.004 C 
ATOM      6  C   UNL     1       7.498  -2.990   1.563  0.00  0.00    -0.010 C 
ATOM      7  C   UNL     1       8.757  -3.860   1.597  0.00  0.00    -0.082 C 
ATOM      8  N   UNL     1       8.476  -5.103   2.327  0.00  0.00    +0.379 N 
ATOM      9  C   UNL     1       8.148  -4.799   3.725  0.00  0.00    -0.082 C 
ATOM     10  C   UNL     1       6.863  -3.968   3.781  0.00  0.00    -0.010 C 
ATOM     11  C   UNL     1       7.589  -0.407   5.757  0.00  0.00    +0.219 C 
ATOM     12  O   UNL     1       8.600  -0.772   6.320  0.00  0.00    -0.275 OA
ATOM     13  H   UNL     1       7.697  -5.576   1.895  0.00  0.00    -0.086 HD
ATOM     14  H   UNL     1       9.289  -5.700   2.296  0.00  0.00    -0.086 HD
ENDROOT
BRANCH  11  15
ATOM     15  C   UNL     1       6.645   0.545   6.446  0.00  0.00    +0.078 C 
ATOM     16  C   UNL     1       6.512   1.822   5.614  0.00  0.00    +0.032 C 
ATOM     17  C   UNL     1       5.525   2.773   6.300  0.00  0.00    +0.112 C 
ATOM     18  N   UNL     1       5.967   2.997   7.683  0.00  0.00    -0.267 N 
ATOM     19  C   UNL     1       6.213   1.831   8.543  0.00  0.00    +0.112 C 
ATOM     20  C   UNL     1       7.192   0.891   7.833  0.00  0.00    +0.032 C 
ATOM     21  C   UNL     1       6.144   4.247   8.153  0.00  0.00    +0.403 C 
ATOM     22  O   UNL     1       5.938   5.203   7.431  0.00  0.00    -0.226 OA
BRANCH  21  23
ATOM     23  O   UNL     1       6.550   4.437   9.423  0.00  0.00    -0.445 OA
BRANCH  23  24
ATOM     24  C   UNL     1       6.717   5.789   9.855  0.00  0.00    +0.269 C 
BRANCH  24  25
ATOM     25  C   UNL     1       7.171   5.805  11.292  0.00  0.00    -0.010 A 
ATOM     26  C   UNL     1       6.238   5.833  12.311  0.00  0.00    +0.007 A 
ATOM     27  C   UNL     1       6.655   5.847  13.629  0.00  0.00    +0.000 A 
ATOM     28  C   UNL     1       8.004   5.833  13.928  0.00  0.00    +0.000 A 
ATOM     29  C   UNL     1       8.938   5.805  12.908  0.00  0.00    +0.000 A 
ATOM     30  C   UNL     1       8.521   5.786  11.590  0.00  0.00    +0.007 A 
ENDBRANCH  24  25
ENDBRANCH  23  24
ENDBRANCH  21  23
ENDBRANCH  11  15
BRANCH   1  32
ATOM     31  N   UNL     1       4.434  -2.439   0.982  0.00  0.00    -0.311 N 
ATOM     32  C   UNL     1       5.311  -1.601   1.569  0.00  0.00    +0.218 C 
ATOM     33  O   UNL     1       5.735  -0.642   0.958  0.00  0.00    -0.275 OA
ATOM     34  H   UNL     1       4.095  -3.206   1.471  0.00  0.00    +0.149 HD
BRANCH  31  35
ATOM     35  C   UNL     1       3.994  -2.194  -0.393  0.00  0.00    +0.139 C 
BRANCH  35  39
ATOM     36  C   UNL     1       1.240  -5.239  -1.573  0.00  0.00    +0.000 A 
ATOM     37  C   UNL     1       0.776  -4.084  -0.972  0.00  0.00    +0.000 A 
ATOM     38  C   UNL     1       1.668  -3.098  -0.590  0.00  0.00    +0.005 A 
ATOM     39  C   UNL     1       3.022  -3.269  -0.809  0.00  0.00    -0.030 A 
ATOM     40  C   UNL     1       3.485  -4.425  -1.409  0.00  0.00    +0.005 A 
ATOM     41  C   UNL     1       2.594  -5.409  -1.792  0.00  0.00    +0.000 A 
ENDBRANCH  35  39
ENDBRANCH  31  35
ENDBRANCH   1  32
TORSDOF 7
