REMARK  Name = ZINC43604384
REMARK  10 active torsions:
REMARK  status: ('A' for Active; 'I' for Inactive)
REMARK    1  A    between atoms: C_1  and  C_2
REMARK    2  A    between atoms: C_8  and  C_38
REMARK    3  A    between atoms: C_9  and  O_37
REMARK    4  A    between atoms: C_19  and  C_21
REMARK    5  A    between atoms: C_21  and  N_22
REMARK    6  A    between atoms: N_22  and  C_23
REMARK    7  A    between atoms: C_23  and  C_24
REMARK    8  A    between atoms: C_24  and  C_25
REMARK    9  A    between atoms: C_32  and  O_35
REMARK   10  A    between atoms: O_35  and  C_36
REMARK                            x       y       z     vdW  Elec       q    Type
REMARK                         _______ _______ _______ _____ _____    ______ ____
ROOT
ATOM      1  C   UNL     1      -0.019   1.526   0.010  0.00  0.00    +0.008 C 
ATOM      2  C   UNL     1       0.002  -0.004   0.002  0.00  0.00    -0.001 C 
ATOM      3  C   UNL     1      -1.435  -0.524  -0.009  0.00  0.00    +0.008 C 
ATOM      4  C   UNL     1      -2.151   0.008   1.238  0.00  0.00    +0.027 C 
ATOM      5  C   UNL     1      -1.394  -0.452   2.453  0.00  0.00    -0.027 C 
ATOM      6  C   UNL     1      -0.116  -0.678   2.431  0.00  0.00    -0.061 C 
ATOM      7  C   UNL     1       0.755  -0.497   1.222  0.00  0.00    +0.018 C 
ATOM      8  C   UNL     1       1.448  -1.827   0.933  0.00  0.00    +0.132 C 
ATOM      9  C   UNL     1       2.269  -2.283   2.143  0.00  0.00    +0.071 C 
ATOM     10  C   UNL     1       1.399  -2.369   3.411  0.00  0.00    +0.187 C 
ATOM     11  C   UNL     1       0.575  -1.160   3.693  0.00  0.00    +0.076 C 
ATOM     12  O   UNL     1       0.606  -3.542   3.202  0.00  0.00    -0.460 OA
ATOM     13  C   UNL     1       1.419  -4.486   2.675  0.00  0.00    +0.309 C 
ATOM     14  O   UNL     1       1.270  -5.680   2.782  0.00  0.00    -0.251 OA
ATOM     15  C   UNL     1       2.568  -3.797   1.915  0.00  0.00    +0.090 C 
ATOM     16  C   UNL     1       1.839   0.527   1.563  0.00  0.00    +0.018 C 
ENDROOT
BRANCH   8  17
ATOM     17  O   UNL     1       2.316  -1.671  -0.191  0.00  0.00    -0.391 OA
ATOM     18  H   UNL     1       2.793  -2.477  -0.435  0.00  0.00    +0.210 HD
ENDBRANCH   8  17
BRANCH  15  19
ATOM     19  C   UNL     1       3.924  -4.174   2.515  0.00  0.00    -0.067 C 
BRANCH  19  20
ATOM     20  N   UNL     1       4.235  -5.571   2.183  0.00  0.00    +0.380 N 
ATOM     21  H   UNL     1       3.521  -6.174   2.562  0.00  0.00    -0.086 HD
ATOM     22  H   UNL     1       4.270  -5.678   1.181  0.00  0.00    -0.086 HD
BRANCH  20  23
ATOM     23  C   UNL     1       5.537  -5.933   2.760  0.00  0.00    -0.078 C 
BRANCH  23  24
ATOM     24  C   UNL     1       5.861  -7.387   2.414  0.00  0.00    +0.018 C 
BRANCH  24  25
ATOM     25  C   UNL     1       7.197  -7.758   3.005  0.00  0.00    -0.024 A 
ATOM     26  C   UNL     1       8.386  -7.713   2.383  0.00  0.00    +0.087 A 
ATOM     27  N   UNL     1       9.374  -8.123   3.236  0.00  0.00    -0.360 N 
ATOM     28  H   UNL     1      10.317  -8.175   3.012  0.00  0.00    +0.165 HD
ATOM     29  C   UNL     1       8.831  -8.451   4.460  0.00  0.00    +0.047 A 
ATOM     30  C   UNL     1       7.444  -8.231   4.370  0.00  0.00    +0.006 A 
ATOM     31  C   UNL     1       6.625  -8.477   5.474  0.00  0.00    +0.056 A 
ATOM     32  C   UNL     1       7.186  -8.932   6.651  0.00  0.00    +0.121 A 
ATOM     33  C   UNL     1       8.559  -9.145   6.738  0.00  0.00    +0.047 A 
ATOM     34  C   UNL     1       9.375  -8.914   5.653  0.00  0.00    +0.030 A 
BRANCH  32  35
ATOM     35  O   UNL     1       6.393  -9.172   7.729  0.00  0.00    -0.495 OA
ATOM     36  C   UNL     1       7.037  -9.642   8.915  0.00  0.00    +0.277 C 
ENDBRANCH  32  35
ENDBRANCH  24  25
ENDBRANCH  23  24
ENDBRANCH  20  23
ENDBRANCH  19  20
ENDBRANCH  15  19
TORSDOF 7
