REMARK  Name = ZINC39529930
REMARK  5 active torsions:
REMARK  status: ('A' for Active; 'I' for Inactive)
REMARK    1  A    between atoms: C_1  and  O_2
REMARK    2  A    between atoms: O_2  and  C_3
REMARK    3  A    between atoms: C_6  and  N_16
REMARK    4  A    between atoms: C_7  and  C_9
REMARK    5  A    between atoms: C_14  and  O_15
REMARK                            x       y       z     vdW  Elec       q    Type
REMARK                         _______ _______ _______ _____ _____    ______ ____
ROOT
ATOM      1  C   UNL     1      -1.247  -0.558   0.062  0.00  0.00    +0.121 A 
ATOM      2  C   UNL     1      -2.465   0.104  -0.020  0.00  0.00    +0.047 A 
ATOM      3  C   UNL     1      -3.645  -0.613  -0.063  0.00  0.00    +0.027 A 
ATOM      4  C   UNL     1      -3.619  -1.999  -0.026  0.00  0.00    +0.038 A 
ATOM      5  C   UNL     1      -2.394  -2.670   0.056  0.00  0.00    +0.010 A 
ATOM      6  C   UNL     1      -1.208  -1.941   0.094  0.00  0.00    +0.056 A 
ENDROOT
BRANCH   4   7
ATOM      7  N   UNL     1      -4.814  -2.723  -0.070  0.00  0.00    -0.326 N 
ATOM      8  C   UNL     1      -5.471  -3.019  -1.352  0.00  0.00    +0.120 C 
ATOM      9  C   UNL     1      -6.940  -2.593  -1.256  0.00  0.00    +0.101 C 
ATOM     10  N   UNL     1      -7.554  -3.227  -0.083  0.00  0.00    -0.302 NA
ATOM     11  C   UNL     1      -6.917  -2.777   1.162  0.00  0.00    +0.139 C 
ATOM     12  C   UNL     1      -5.444  -3.216   1.165  0.00  0.00    +0.135 C 
ATOM     13 BR   UNL     1      -7.841  -3.579   2.700  0.00  0.00    -0.070 Br
ATOM     14  H   UNL     1      -8.549  -3.060  -0.060  0.00  0.00    +0.123 HD
ENDBRANCH   4   7
BRANCH   5  15
ATOM     15  C   UNL     1      -2.359  -4.152   0.096  0.00  0.00    +0.025 A 
ATOM     16  C   UNL     1      -1.951  -4.811   1.254  0.00  0.00    +0.012 A 
ATOM     17  C   UNL     1      -1.919  -6.190   1.287  0.00  0.00    +0.001 A 
ATOM     18  C   UNL     1      -2.292  -6.922   0.173  0.00  0.00    +0.004 A 
ATOM     19  C   UNL     1      -2.698  -6.279  -0.981  0.00  0.00    +0.046 A 
ATOM     20  C   UNL     1      -2.740  -4.895  -1.025  0.00  0.00    +0.125 A 
BRANCH  20  21
ATOM     21  O   UNL     1      -3.146  -4.261  -2.157  0.00  0.00    -0.506 OA
ATOM     22  H   UNL     1      -2.429  -4.066  -2.776  0.00  0.00    +0.292 HD
ENDBRANCH  20  21
ENDBRANCH   5  15
BRANCH   1  24
ATOM     23  C   UNL     1      -0.203   1.579   0.068  0.00  0.00    +0.277 C 
ATOM     24  O   UNL     1      -0.090   0.155   0.105  0.00  0.00    -0.495 OA
ENDBRANCH   1  24
TORSDOF 4
