REMARK  Name = ZINC32521388
REMARK  10 active torsions:
REMARK  status: ('A' for Active; 'I' for Inactive)
REMARK    1  A    between atoms: C_1  and  C_2
REMARK    2  A    between atoms: C_2  and  O_3
REMARK    3  A    between atoms: O_3  and  C_4
REMARK    4  A    between atoms: C_4  and  C_6
REMARK    5  A    between atoms: C_10  and  N_11
REMARK    6  A    between atoms: C_12  and  C_14
REMARK    7  A    between atoms: C_14  and  S_15
REMARK    8  A    between atoms: S_15  and  C_16
REMARK    9  A    between atoms: C_22  and  N_24
REMARK   10  A    between atoms: C_26  and  C_30
REMARK                            x       y       z     vdW  Elec       q    Type
REMARK                         _______ _______ _______ _____ _____    ______ ____
ROOT
ATOM      1  N   UNL     1       1.931  -5.845  -1.738  0.00  0.00    -0.279 N 
ATOM      2  C   UNL     1       2.227  -6.106  -3.026  0.00  0.00    +0.228 C 
ATOM      3  O   UNL     1       2.198  -5.215  -3.848  0.00  0.00    -0.275 OA
ATOM      4  H   UNL     1       1.957  -6.654  -0.992  0.00  0.00    +0.155 HD
ENDROOT
BRANCH   1   9
ATOM      5  C   UNL     1       1.258  -4.096  -0.085  0.00  0.00    +0.091 A 
ATOM      6  C   UNL     1       0.941  -2.684   0.053  0.00  0.00    -0.021 A 
ATOM      7  C   UNL     1       1.008  -1.966  -1.089  0.00  0.00    -0.004 A 
ATOM      8  S   UNL     1       1.484  -3.133  -2.332  0.00  0.00    -0.077 S 
ATOM      9  C   UNL     1       1.592  -4.558  -1.351  0.00  0.00    +0.086 A 
ATOM     10  C   UNL     1       0.736  -0.502  -1.252  0.00  0.00    +0.046 C 
ATOM     11  C   UNL     1       0.002  -0.004   0.002  0.00  0.00    -0.009 C 
ATOM     12  C   UNL     1       0.742  -0.514   1.242  0.00  0.00    +0.008 C 
ATOM     13  C   UNL     1       0.557  -2.027   1.373  0.00  0.00    +0.037 C 
ATOM     14  C   UNL     1      -0.019   1.526   0.010  0.00  0.00    +0.008 C 
BRANCH   5  15
ATOM     15  C   UNL     1       1.227  -4.998   1.068  0.00  0.00    +0.342 C 
ATOM     16  O   UNL     1       0.199  -5.581   1.356  0.00  0.00    -0.245 OA
BRANCH  15  17
ATOM     17  O   UNL     1       2.337  -5.181   1.811  0.00  0.00    -0.461 OA
BRANCH  17  19
ATOM     18  C   UNL     1       3.582  -6.169   3.657  0.00  0.00    +0.048 C 
ATOM     19  C   UNL     1       2.233  -6.089   2.940  0.00  0.00    +0.229 C 
ENDBRANCH  17  19
ENDBRANCH  15  17
ENDBRANCH   5  15
ENDBRANCH   1   9
BRANCH   2  20
ATOM     20  C   UNL     1       2.595  -7.506  -3.446  0.00  0.00    +0.173 C 
BRANCH  20  21
ATOM     21  S   UNL     1       2.935  -7.533  -5.223  0.00  0.00    -0.078 S 
BRANCH  21  22
ATOM     22  C   UNL     1       3.326  -9.238  -5.434  0.00  0.00    +0.171 A 
ATOM     23  N   UNL     1       3.655  -9.699  -6.673  0.00  0.00    -0.302 N 
ATOM     24  H   UNL     1       3.674  -9.009  -7.530  0.00  0.00    +0.171 HD
ATOM     25  C   UNL     1       3.957 -11.002  -6.853  0.00  0.00    +0.254 A 
ATOM     26  O   UNL     1       4.251 -11.424  -7.960  0.00  0.00    -0.268 OA
ATOM     27  C   UNL     1       3.926 -11.861  -5.750  0.00  0.00    +0.113 A 
ATOM     28  C   UNL     1       3.586 -11.341  -4.509  0.00  0.00    +0.124 A 
ATOM     29  N   UNL     1       3.300 -10.040  -4.389  0.00  0.00    -0.209 NA
BRANCH  28  30
ATOM     30  N   UNL     1       3.546 -12.164  -3.401  0.00  0.00    -0.343 N 
ATOM     31  H   UNL     1       3.276 -11.750  -2.418  0.00  0.00    +0.144 HD
ATOM     32  H   UNL     1       3.785 -13.233  -3.501  0.00  0.00    +0.144 HD
ENDBRANCH  28  30
ENDBRANCH  21  22
ENDBRANCH  20  21
ENDBRANCH   2  20
TORSDOF 8
