REMARK  Name = ZINC36272898
REMARK  7 active torsions:
REMARK  status: ('A' for Active; 'I' for Inactive)
REMARK    1  A    between atoms: C_1  and  N_2
REMARK    2  A    between atoms: N_2  and  C_3
REMARK    3  A    between atoms: N_2  and  C_10
REMARK    4  A    between atoms: C_3  and  C_4
REMARK    5  A    between atoms: C_10  and  C_11
REMARK    6  A    between atoms: C_12  and  C_21
REMARK    7  A    between atoms: C_17  and  N_20
REMARK                            x       y       z     vdW  Elec       q    Type
REMARK                         _______ _______ _______ _____ _____    ______ ____
ROOT
ATOM      1  C   UNL     1      -0.286  -0.163  -2.406  0.00  0.00    +0.063 A 
ATOM      2  C   UNL     1      -1.309  -0.914  -2.902  0.00  0.00    +0.069 A 
ATOM      3  N   UNL     1      -1.850  -0.256  -3.939  0.00  0.00    -0.339 N 
ATOM      4  C   UNL     1      -1.201   0.887  -4.114  0.00  0.00    +0.116 A 
ATOM      5  N   UNL     1      -0.219   0.974  -3.162  0.00  0.00    -0.302 N 
ATOM      6  C   UNL     1       0.603   2.066  -3.111  0.00  0.00    +0.115 A 
ATOM      7  C   UNL     1       0.457   3.079  -3.998  0.00  0.00    +0.041 A 
ATOM      8  C   UNL     1      -0.548   3.017  -4.985  0.00  0.00    +0.028 A 
ATOM      9  C   UNL     1      -1.363   1.931  -5.047  0.00  0.00    +0.046 A 
ATOM     10  H   UNL     1      -2.596  -0.567  -4.476  0.00  0.00    +0.167 HD
ENDROOT
BRANCH   2  11
ATOM     11  C   UNL     1      -1.750  -2.233  -2.385  0.00  0.00    +0.004 A 
ATOM     12  C   UNL     1      -0.806  -3.209  -2.068  0.00  0.00    +0.014 A 
ATOM     13  C   UNL     1      -1.217  -4.436  -1.587  0.00  0.00    +0.050 A 
ATOM     14  C   UNL     1      -2.567  -4.702  -1.418  0.00  0.00    +0.166 A 
ATOM     15  C   UNL     1      -3.514  -3.730  -1.733  0.00  0.00    +0.167 A 
ATOM     16  C   UNL     1      -3.107  -2.497  -2.209  0.00  0.00    +0.059 A 
ATOM     17  O   UNL     1      -4.758  -4.234  -1.480  0.00  0.00    -0.453 OA
ATOM     18  C   UNL     1      -4.584  -5.661  -1.396  0.00  0.00    +0.466 C 
ATOM     19  O   UNL     1      -3.218  -5.815  -0.968  0.00  0.00    -0.453 OA
ENDBRANCH   2  11
BRANCH   7  20
ATOM     20  N   UNL     1       1.306   4.193  -3.934  0.00  0.00    -0.357 N 
ATOM     21  H   UNL     1       1.997   4.237  -3.256  0.00  0.00    +0.142 HD
ATOM     22  H   UNL     1       1.202   4.919  -4.569  0.00  0.00    +0.142 HD
ENDBRANCH   7  20
BRANCH   1  23
ATOM     23  C   UNL     1       0.600  -0.516  -1.239  0.00  0.00    +0.140 C 
BRANCH  23  25
ATOM     24  C   UNL     1      -0.018   1.465   0.010  0.00  0.00    +0.105 C 
ATOM     25  N   UNL     1       0.002  -0.004   0.002  0.00  0.00    -0.296 NA
BRANCH  25  26
ATOM     26  C   UNL     1       0.706  -0.527   1.180  0.00  0.00    +0.119 C 
BRANCH  26  27
ATOM     27  C   UNL     1      -0.073  -0.186   2.424  0.00  0.00    -0.033 A 
ATOM     28  C   UNL     1       0.169   1.002   3.087  0.00  0.00    +0.005 A 
ATOM     29  C   UNL     1      -0.546   1.315   4.228  0.00  0.00    +0.000 A 
ATOM     30  C   UNL     1      -1.504   0.440   4.705  0.00  0.00    +0.000 A 
ATOM     31  C   UNL     1      -1.747  -0.748   4.041  0.00  0.00    +0.000 A 
ATOM     32  C   UNL     1      -1.035  -1.059   2.898  0.00  0.00    +0.005 A 
ENDBRANCH  26  27
ENDBRANCH  25  26
ENDBRANCH  23  25
ENDBRANCH   1  23
TORSDOF 6
