REMARK  Name = ZINC12864294
REMARK  9 active torsions:
REMARK  status: ('A' for Active; 'I' for Inactive)
REMARK    1  A    between atoms: C_1  and  C_2
REMARK    2  A    between atoms: C_6  and  O_8
REMARK    3  A    between atoms: O_8  and  C_9
REMARK    4  A    between atoms: C_9  and  C_10
REMARK    5  A    between atoms: N_12  and  C_13
REMARK    6  A    between atoms: C_13  and  C_14
REMARK    7  A    between atoms: N_16  and  C_17
REMARK    8  A    between atoms: C_17  and  C_18
REMARK    9  A    between atoms: C_23  and  O_31
REMARK                            x       y       z     vdW  Elec       q    Type
REMARK                         _______ _______ _______ _____ _____    ______ ____
ROOT
ATOM      1  C   UNL     1       5.949  -1.114  -1.891  0.00  0.00    +0.251 C 
ATOM      2  O   UNL     1       5.642   0.055  -1.792  0.00  0.00    -0.272 OA
ATOM      3  N   UNL     1       7.192  -1.453  -2.287  0.00  0.00    -0.304 N 
ATOM      4  H   UNL     1       7.438  -2.388  -2.366  0.00  0.00    +0.149 HD
ENDROOT
BRANCH   1   5
ATOM      5  C   UNL     1       4.941  -2.188  -1.572  0.00  0.00    +0.324 C 
BRANCH   5   6
ATOM      6  O   UNL     1       3.708  -1.582  -1.179  0.00  0.00    -0.482 OA
BRANCH   6  12
ATOM      7  C   UNL     1       2.029  -6.130  -0.649  0.00  0.00    +0.044 C 
ATOM      8  C   UNL     1       1.822  -4.639  -0.582  0.00  0.00    -0.043 A 
ATOM      9  C   UNL     1       0.596  -4.137  -0.192  0.00  0.00    +0.050 A 
ATOM     10  C   UNL     1       0.394  -2.766  -0.126  0.00  0.00    +0.143 A 
ATOM     11  C   UNL     1       1.446  -1.895  -0.459  0.00  0.00    +0.063 A 
ATOM     12  C   UNL     1       2.688  -2.416  -0.855  0.00  0.00    +0.132 A 
ATOM     13  C   UNL     1       2.863  -3.788  -0.912  0.00  0.00    +0.050 A 
ATOM     14  C   UNL     1       1.224  -0.450  -0.385  0.00  0.00    -0.023 A 
ATOM     15  C   UNL     1       0.002  -0.004   0.002  0.00  0.00    +0.041 A 
ATOM     16  C   UNL     1      -1.010  -0.938   0.321  0.00  0.00    +0.341 A 
ATOM     17  O   UNL     1      -2.104  -0.530   0.668  0.00  0.00    -0.245 OA
ATOM     18  O   UNL     1      -0.799  -2.260   0.253  0.00  0.00    -0.422 OA
ATOM     19  C   UNL     1      -0.018   1.509   0.010  0.00  0.00    +0.043 C 
ATOM     20  C   UNL     1       1.467   1.932  -0.002  0.00  0.00    +0.010 C 
ATOM     21  C   UNL     1       2.142   0.716  -0.673  0.00  0.00    +0.037 C 
ENDBRANCH   6  12
ENDBRANCH   5   6
ENDBRANCH   1   5
BRANCH   3  22
ATOM     22  C   UNL     1       8.172  -0.409  -2.598  0.00  0.00    +0.200 C 
BRANCH  22  23
ATOM     23  C   UNL     1       9.473  -1.048  -3.012  0.00  0.00    +0.231 C 
ATOM     24  O   UNL     1       9.571  -2.256  -3.045  0.00  0.00    -0.274 OA
ATOM     25  N   UNL     1      10.526  -0.277  -3.347  0.00  0.00    -0.305 N 
ATOM     26  H   UNL     1      10.447   0.690  -3.321  0.00  0.00    +0.149 HD
BRANCH  25  27
ATOM     27  C   UNL     1      11.790  -0.898  -3.750  0.00  0.00    +0.200 C 
BRANCH  27  28
ATOM     28  C   UNL     1      12.798   0.176  -4.069  0.00  0.00    +0.233 C 
ATOM     29  O   UNL     1      12.491   1.345  -3.970  0.00  0.00    -0.274 OA
ATOM     30  N   UNL     1      14.041  -0.163  -4.465  0.00  0.00    -0.300 N 
ATOM     31  C   UNL     1      14.431  -1.574  -4.584  0.00  0.00    +0.110 C 
ATOM     32  C   UNL     1      14.990  -1.808  -5.995  0.00  0.00    +0.054 C 
ATOM     33  C   UNL     1      16.131  -0.821  -6.258  0.00  0.00    +0.072 C 
ATOM     34  C   UNL     1      16.703  -1.071  -7.656  0.00  0.00    +0.035 C 
ATOM     35  C   UNL     1      15.596  -0.888  -8.696  0.00  0.00    +0.003 C 
ATOM     36  C   UNL     1      15.050   0.539  -8.617  0.00  0.00    +0.001 C 
ATOM     37  C   UNL     1      14.485   0.793  -7.218  0.00  0.00    +0.008 C 
ATOM     38  C   UNL     1      15.595   0.611  -6.181  0.00  0.00    +0.038 C 
ATOM     39  C   UNL     1      15.035   0.872  -4.780  0.00  0.00    +0.114 C 
BRANCH  33  40
ATOM     40  O   UNL     1      17.159  -0.999  -5.281  0.00  0.00    -0.388 OA
ATOM     41  H   UNL     1      17.545  -1.886  -5.274  0.00  0.00    +0.210 HD
ENDBRANCH  33  40
ENDBRANCH  27  28
ENDBRANCH  25  27
ENDBRANCH  22  23
ENDBRANCH   3  22
TORSDOF 8
