REMARK  Name = ZINC36307487
REMARK  16 active torsions:
REMARK  status: ('A' for Active; 'I' for Inactive)
REMARK    1  A    between atoms: C_1  and  C_2
REMARK    2  A    between atoms: C_2  and  C_3
REMARK    3  A    between atoms: C_2  and  O_4
REMARK    4  A    between atoms: O_4  and  C_5
REMARK    5  A    between atoms: C_5  and  C_6
REMARK    6  A    between atoms: C_6  and  C_8
REMARK    7  A    between atoms: C_6  and  O_37
REMARK    8  A    between atoms: C_8  and  N_9
REMARK    9  A    between atoms: N_9  and  C_10
REMARK   10  A    between atoms: N_9  and  C_16
REMARK   11  A    between atoms: C_10  and  C_11
REMARK   12  A    between atoms: C_16  and  C_17
REMARK   13  A    between atoms: C_18  and  C_31
REMARK   14  A    between atoms: N_20  and  C_30
REMARK   15  A    between atoms: C_21  and  O_22
REMARK   16  A    between atoms: O_22  and  C_23
REMARK                            x       y       z     vdW  Elec       q    Type
REMARK                         _______ _______ _______ _____ _____    ______ ____
ROOT
ATOM      1  C   UNL     1      -6.428  -5.584  -1.100  0.00  0.00    +0.025 A 
ATOM      2  C   UNL     1      -6.621  -6.444  -0.003  0.00  0.00    +0.098 A 
ATOM      3  N   UNL     1      -7.894  -6.774   0.039  0.00  0.00    -0.168 NA
ATOM      4  N   UNL     1      -8.549  -6.139  -1.024  0.00  0.00    -0.235 N 
ATOM      5  C   UNL     1      -7.630  -5.409  -1.707  0.00  0.00    +0.221 A 
ATOM      6  C   UNL     1      -9.975  -6.240  -1.341  0.00  0.00    +0.176 C 
ENDROOT
BRANCH   2   7
ATOM      7  C   UNL     1      -5.572  -6.899   0.943  0.00  0.00    +0.002 A 
ATOM      8  C   UNL     1      -4.325  -7.295   0.466  0.00  0.00    +0.010 A 
ATOM      9  C   UNL     1      -3.352  -7.717   1.349  0.00  0.00    +0.001 A 
ATOM     10  C   UNL     1      -3.614  -7.747   2.707  0.00  0.00    +0.000 A 
ATOM     11  C   UNL     1      -4.851  -7.354   3.187  0.00  0.00    +0.001 A 
ATOM     12  C   UNL     1      -5.829  -6.925   2.312  0.00  0.00    +0.010 A 
ENDBRANCH   2   7
BRANCH   1  13
ATOM     13  C   UNL     1      -5.121  -4.963  -1.522  0.00  0.00    -0.035 C 
BRANCH  13  14
ATOM     14  N   UNL     1      -5.021  -3.607  -0.966  0.00  0.00    +0.389 N 
ATOM     15  H   UNL     1      -5.838  -3.075  -1.227  0.00  0.00    -0.081 HD
BRANCH  14  16
ATOM     16  C   UNL     1      -4.935  -3.683   0.499  0.00  0.00    -0.044 C 
BRANCH  16  17
ATOM     17  C   UNL     1      -5.037  -2.276   1.090  0.00  0.00    +0.124 C 
BRANCH  17  18
ATOM     18  O   UNL     1      -3.869  -1.529   0.746  0.00  0.00    -0.391 OA
ATOM     19  H   UNL     1      -3.044  -1.916   1.071  0.00  0.00    +0.210 HD
ENDBRANCH  17  18
BRANCH  17  20
ATOM     20  C   UNL     1      -5.152  -2.370   2.613  0.00  0.00    +0.189 C 
BRANCH  20  21
ATOM     21  O   UNL     1      -5.364  -1.065   3.156  0.00  0.00    -0.375 OA
BRANCH  21  23
ATOM     22  C   UNL     1      -4.971   0.298   5.112  0.00  0.00    +0.037 C 
ATOM     23  C   UNL     1      -5.485  -1.040   4.580  0.00  0.00    +0.112 C 
ATOM     24  C   UNL     1      -6.954  -1.214   4.969  0.00  0.00    +0.037 C 
ENDBRANCH  21  23
ENDBRANCH  20  21
ENDBRANCH  17  20
ENDBRANCH  16  17
ENDBRANCH  14  16
BRANCH  14  25
ATOM     25  C   UNL     1      -3.819  -2.948  -1.493  0.00  0.00    -0.003 C 
BRANCH  25  26
ATOM     26  C   UNL     1      -3.926  -2.833  -2.992  0.00  0.00    +0.089 A 
ATOM     27  C   UNL     1      -4.403  -1.771  -3.667  0.00  0.00    +0.042 A 
ATOM     28  C   UNL     1      -4.321  -2.090  -5.042  0.00  0.00    +0.041 A 
ATOM     29  C   UNL     1      -3.800  -3.327  -5.125  0.00  0.00    +0.195 A 
ATOM     30  O   UNL     1      -3.557  -3.769  -3.881  0.00  0.00    -0.470 OA
ENDBRANCH  25  26
ENDBRANCH  14  25
ENDBRANCH  13  14
ENDBRANCH   1  13
BRANCH   5  31
ATOM     31  O   UNL     1      -7.869  -4.643  -2.802  0.00  0.00    -0.438 OA
BRANCH  31  32
ATOM     32  C   UNL     1      -7.837  -5.244  -4.020  0.00  0.00    +0.131 A 
ATOM     33  C   UNL     1      -7.674  -6.619  -4.112  0.00  0.00    +0.049 A 
ATOM     34  C   UNL     1      -7.642  -7.229  -5.351  0.00  0.00    +0.042 A 
ATOM     35  C   UNL     1      -7.771  -6.468  -6.501  0.00  0.00    +0.124 A 
ATOM     36  C   UNL     1      -7.933  -5.096  -6.411  0.00  0.00    +0.042 A 
ATOM     37  C   UNL     1      -7.973  -4.484  -5.173  0.00  0.00    +0.049 A 
ATOM     38  F   UNL     1      -7.738  -7.066  -7.713  0.00  0.00    -0.205 F 
ENDBRANCH  31  32
ENDBRANCH   5  31
TORSDOF 13
