REMARK  Name = ZINC02365763
REMARK  9 active torsions:
REMARK  status: ('A' for Active; 'I' for Inactive)
REMARK    1  A    between atoms: C_1  and  C_2
REMARK    2  A    between atoms: N_8  and  C_9
REMARK    3  A    between atoms: C_9  and  C_10
REMARK    4  A    between atoms: C_10  and  C_11
REMARK    5  A    between atoms: C_14  and  O_18
REMARK    6  A    between atoms: C_15  and  O_17
REMARK    7  A    between atoms: C_19  and  C_27
REMARK    8  A    between atoms: C_21  and  C_25
REMARK    9  A    between atoms: C_22  and  N_24
REMARK                            x       y       z     vdW  Elec       q    Type
REMARK                         _______ _______ _______ _____ _____    ______ ____
ROOT
ATOM      1  C   UNL     1       5.696   2.523  -1.734  0.00  0.00    +0.064 C 
ATOM      2  C   UNL     1       4.530   1.705  -1.243  0.00  0.00    +0.022 A 
ATOM      3  C   UNL     1       3.461   2.327  -0.701  0.00  0.00    +0.068 A 
ATOM      4  C   UNL     1       2.367   1.566  -0.240  0.00  0.00    +0.141 A 
ATOM      5  C   UNL     1       2.414   0.192  -0.353  0.00  0.00    +0.072 A 
ATOM      6  C   UNL     1       3.544  -0.409  -0.923  0.00  0.00    +0.259 A 
ATOM      7  O   UNL     1       3.599  -1.625  -1.030  0.00  0.00    -0.267 OA
ATOM      8  N   UNL     1       4.569   0.351  -1.352  0.00  0.00    -0.312 N 
ATOM      9  C   UNL     1       1.270  -0.658   0.126  0.00  0.00    +0.103 C 
ATOM     10  C   UNL     1       0.041   0.187   0.317  0.00  0.00    +0.098 C 
ATOM     11  C   UNL     1       0.122   1.536   0.393  0.00  0.00    +0.199 C 
ATOM     12  O   UNL     1       1.297   2.185   0.302  0.00  0.00    -0.441 OA
ENDROOT
BRANCH   9  13
ATOM     13  C   UNL     1       1.641  -1.303   1.437  0.00  0.00    -0.034 A 
ATOM     14  C   UNL     1       1.947  -0.516   2.531  0.00  0.00    +0.004 A 
ATOM     15  C   UNL     1       2.284  -1.107   3.735  0.00  0.00    +0.000 A 
ATOM     16  C   UNL     1       2.323  -2.485   3.841  0.00  0.00    +0.000 A 
ATOM     17  C   UNL     1       2.022  -3.272   2.745  0.00  0.00    +0.000 A 
ATOM     18  C   UNL     1       1.681  -2.680   1.543  0.00  0.00    +0.004 A 
ENDBRANCH   9  13
BRANCH  11  19
ATOM     19  N   UNL     1      -1.029   2.265   0.562  0.00  0.00    -0.328 N 
ATOM     20  H   UNL     1      -1.884   1.812   0.626  0.00  0.00    +0.145 HD
ATOM     21  H   UNL     1      -0.987   3.232   0.619  0.00  0.00    +0.145 HD
ENDBRANCH  11  19
BRANCH  10  22
ATOM     22  C   UNL     1      -1.239  -0.447   0.420  0.00  0.00    +0.101 C 
ATOM     23  N   UNL     1      -2.254  -0.950   0.502  0.00  0.00    -0.191 NA
ENDBRANCH  10  22
BRANCH   8  24
ATOM     24  C   UNL     1       5.744  -0.292  -1.945  0.00  0.00    +0.130 C 
BRANCH  24  25
ATOM     25  C   UNL     1       5.520  -0.477  -3.447  0.00  0.00    +0.057 C 
BRANCH  25  26
ATOM     26  C   UNL     1       6.729  -1.138  -4.057  0.00  0.00    -0.042 A 
ATOM     27  C   UNL     1       7.765  -0.364  -4.547  0.00  0.00    +0.007 A 
ATOM     28  C   UNL     1       8.879  -0.966  -5.102  0.00  0.00    +0.049 A 
ATOM     29  C   UNL     1       8.953  -2.347  -5.180  0.00  0.00    +0.158 A 
ATOM     30  C   UNL     1       7.908  -3.126  -4.693  0.00  0.00    +0.158 A 
ATOM     31  C   UNL     1       6.797  -2.517  -4.132  0.00  0.00    +0.052 A 
BRANCH  30  32
ATOM     32  O   UNL     1       7.977  -4.482  -4.766  0.00  0.00    -0.503 OA
ATOM     33  H   UNL     1       7.609  -4.851  -5.581  0.00  0.00    +0.292 HD
ENDBRANCH  30  32
BRANCH  29  34
ATOM     34  O   UNL     1      10.046  -2.940  -5.731  0.00  0.00    -0.503 OA
ATOM     35  H   UNL     1       9.975  -3.088  -6.684  0.00  0.00    +0.292 HD
ENDBRANCH  29  34
ENDBRANCH  25  26
ENDBRANCH  24  25
ENDBRANCH   8  24
TORSDOF 8
