REMARK  Name = ZINC45861238
REMARK  10 active torsions:
REMARK  status: ('A' for Active; 'I' for Inactive)
REMARK    1  A    between atoms: C_1  and  C_2
REMARK    2  A    between atoms: C_2  and  C_3
REMARK    3  A    between atoms: C_3  and  C_4
REMARK    4  A    between atoms: C_4  and  C_5
REMARK    5  A    between atoms: C_5  and  C_7
REMARK    6  A    between atoms: C_5  and  N_24
REMARK    7  A    between atoms: N_9  and  C_10
REMARK    8  A    between atoms: C_10  and  C_11
REMARK    9  A    between atoms: C_11  and  C_13
REMARK   10  A    between atoms: C_11  and  N_18
REMARK                            x       y       z     vdW  Elec       q    Type
REMARK                         _______ _______ _______ _____ _____    ______ ____
ROOT
ATOM      1  C   UNL     1      -3.135  -2.392   0.577  0.00  0.00    +0.158 C 
ENDROOT
BRANCH   1   2
ATOM      2  N   UNL     1      -3.857  -1.891  -0.595  0.00  0.00    -0.316 N 
ATOM      3  C   UNL     1      -4.526  -0.688  -0.529  0.00  0.00    +0.150 C 
ATOM      4  N   UNL     1      -4.516   0.008   0.563  0.00  0.00    -0.113 NA
ATOM      5  S   UNL     1      -5.425   1.376   0.242  0.00  0.00    +0.101 S 
ATOM      6  O   UNL     1      -6.609   1.304   1.025  0.00  0.00    -0.146 OA
ATOM      7  O   UNL     1      -4.546   2.492   0.252  0.00  0.00    -0.146 OA
ATOM      8  C   UNL     1      -5.873   1.055  -1.443  0.00  0.00    +0.123 A 
ATOM      9  C   UNL     1      -5.253  -0.176  -1.701  0.00  0.00    +0.043 A 
ATOM     10  C   UNL     1      -5.413  -0.723  -2.983  0.00  0.00    +0.013 A 
ATOM     11  C   UNL     1      -6.150  -0.055  -3.936  0.00  0.00    +0.001 A 
ATOM     12  C   UNL     1      -6.746   1.161  -3.653  0.00  0.00    +0.002 A 
ATOM     13  C   UNL     1      -6.606   1.712  -2.387  0.00  0.00    +0.030 A 
ATOM     14  H   UNL     1      -3.864  -2.405  -1.417  0.00  0.00    +0.148 HD
ENDBRANCH   1   2
BRANCH   1  15
ATOM     15  C   UNL     1      -3.027  -3.893   0.496  0.00  0.00    +0.233 C 
ATOM     16  O   UNL     1      -3.506  -4.486  -0.447  0.00  0.00    -0.274 OA
ATOM     17  N   UNL     1      -2.398  -4.577   1.472  0.00  0.00    -0.315 N 
ATOM     18  H   UNL     1      -2.015  -4.103   2.227  0.00  0.00    +0.149 HD
BRANCH  17  19
ATOM     19  C   UNL     1      -2.294  -6.036   1.394  0.00  0.00    +0.096 C 
BRANCH  19  20
ATOM     20  C   UNL     1      -1.428  -6.548   2.547  0.00  0.00    +0.016 C 
BRANCH  20  21
ATOM     21  N   UNL     1      -0.134  -5.854   2.534  0.00  0.00    +0.387 N 
ATOM     22  C   UNL     1       0.549  -6.120   1.262  0.00  0.00    -0.078 C 
ATOM     23  C   UNL     1       1.861  -5.335   1.209  0.00  0.00    -0.019 C 
ATOM     24  C   UNL     1       2.758  -5.769   2.372  0.00  0.00    -0.004 C 
ATOM     25  C   UNL     1       2.006  -5.556   3.690  0.00  0.00    -0.019 C 
ATOM     26  C   UNL     1       0.689  -6.334   3.651  0.00  0.00    -0.078 C 
ATOM     27  H   UNL     1      -0.284  -4.861   2.631  0.00  0.00    -0.081 HD
ENDBRANCH  20  21
BRANCH  20  28
ATOM     28  C   UNL     1      -2.127  -6.283   3.856  0.00  0.00    +0.093 A 
ATOM     29  C   UNL     1      -2.825  -7.182   4.572  0.00  0.00    +0.043 A 
ATOM     30  C   UNL     1      -3.304  -6.510   5.719  0.00  0.00    +0.041 A 
ATOM     31  C   UNL     1      -2.871  -5.239   5.636  0.00  0.00    +0.195 A 
ATOM     32  O   UNL     1      -2.153  -5.109   4.508  0.00  0.00    -0.469 OA
ENDBRANCH  20  28
ENDBRANCH  19  20
ENDBRANCH  17  19
ENDBRANCH   1  15
BRANCH   1  33
ATOM     33  C   UNL     1      -1.732  -1.781   0.612  0.00  0.00    +0.032 C 
BRANCH  33  34
ATOM     34  C   UNL     1      -1.839  -0.269   0.819  0.00  0.00    +0.002 C 
BRANCH  34  36
ATOM     35  C   UNL     1      -0.544   1.854   1.061  0.00  0.00    +0.004 C 
ATOM     36  C   UNL     1      -0.437   0.342   0.853  0.00  0.00    -0.003 C 
ENDBRANCH  34  36
ENDBRANCH  33  34
ENDBRANCH   1  33
TORSDOF 9
