REMARK  Name = ZINC12888541
REMARK  15 active torsions:
REMARK  status: ('A' for Active; 'I' for Inactive)
REMARK    1  A    between atoms: C_1  and  C_2
REMARK    2  A    between atoms: C_2  and  C_3
REMARK    3  A    between atoms: C_3  and  C_5
REMARK    4  A    between atoms: C_3  and  N_6
REMARK    5  A    between atoms: C_7  and  C_9
REMARK    6  A    between atoms: C_9  and  C_10
REMARK    7  A    between atoms: C_10  and  C_11
REMARK    8  A    between atoms: C_11  and  O_13
REMARK    9  A    between atoms: O_13  and  C_14
REMARK   10  A    between atoms: C_14  and  C_15
REMARK   11  A    between atoms: C_15  and  C_17
REMARK   12  A    between atoms: C_17  and  O_42
REMARK   13  A    between atoms: C_22  and  C_41
REMARK   14  A    between atoms: C_24  and  O_40
REMARK   15  A    between atoms: C_38  and  C_39
REMARK                            x       y       z     vdW  Elec       q    Type
REMARK                         _______ _______ _______ _____ _____    ______ ____
ROOT
ATOM      1  C   UNL     1       2.091   4.328   0.297  0.00  0.00    +0.133 C 
ATOM      2  C   UNL     1       2.495   4.248  -1.194  0.00  0.00    +0.043 C 
ATOM      3  C   UNL     1       2.810   5.698  -1.646  0.00  0.00    +0.008 C 
ATOM      4  C   UNL     1       2.918   6.479  -0.327  0.00  0.00    +0.002 C 
ATOM      5  C   UNL     1       1.815   5.821   0.529  0.00  0.00    +0.009 C 
ATOM      6  C   UNL     1       1.942   6.281   1.960  0.00  0.00    +0.041 C 
ATOM      7  C   UNL     1       2.754   7.596   2.016  0.00  0.00    +0.119 C 
ATOM      8  C   UNL     1       2.300   8.528   0.910  0.00  0.00    +0.031 C 
ATOM      9  C   UNL     1       2.669   7.975  -0.457  0.00  0.00    -0.001 C 
ATOM     10  C   UNL     1       3.934   8.600  -1.038  0.00  0.00    +0.008 C 
ATOM     11  C   UNL     1       3.792  10.111  -1.135  0.00  0.00    +0.032 C 
ATOM     12  C   UNL     1       3.530  10.646   0.259  0.00  0.00    -0.060 C 
ATOM     13  C   UNL     1       4.265  11.687   0.658  0.00  0.00    +0.046 C 
ATOM     14  C   UNL     1       4.069  12.279   1.984  0.00  0.00    +0.156 C 
ATOM     15  O   UNL     1       4.902  13.006   2.485  0.00  0.00    -0.293 OA
ATOM     16  C   UNL     1       2.776  11.943   2.700  0.00  0.00    +0.080 C 
ATOM     17  C   UNL     1       2.567  10.433   2.559  0.00  0.00    +0.019 C 
ATOM     18  C   UNL     1       2.478  10.006   1.105  0.00  0.00    -0.005 C 
ATOM     19  C   UNL     1       1.152  10.616   0.598  0.00  0.00    +0.016 C 
ATOM     20  C   UNL     1       0.420   6.137  -0.017  0.00  0.00    +0.015 C 
ENDROOT
BRANCH   1  21
ATOM     21  C   UNL     1       0.844   3.526   0.550  0.00  0.00    +0.202 C 
ATOM     22  O   UNL     1      -0.241   4.019   0.356  0.00  0.00    -0.291 OA
BRANCH  21  23
ATOM     23  C   UNL     1       0.949   2.106   1.044  0.00  0.00    +0.309 C 
BRANCH  23  24
ATOM     24  O   UNL     1      -0.383   1.551   1.209  0.00  0.00    -0.457 OA
BRANCH  24  25
ATOM     25  C   UNL     1      -0.466   0.285   1.646  0.00  0.00    +0.308 C 
ATOM     26  O   UNL     1       0.540  -0.339   1.884  0.00  0.00    -0.251 OA
BRANCH  25  27
ATOM     27  C   UNL     1      -1.815  -0.358   1.841  0.00  0.00    +0.130 C 
BRANCH  27  28
ATOM     28  C   UNL     1      -1.630  -1.791   2.342  0.00  0.00    +0.107 C 
BRANCH  28  30
ATOM     29  N   UNL     1      -3.062  -3.705   2.976  0.00  0.00    -0.313 N 
ATOM     30  C   UNL     1      -2.979  -2.434   2.537  0.00  0.00    +0.214 C 
ATOM     31  O   UNL     1      -3.989  -1.807   2.299  0.00  0.00    -0.276 OA
ATOM     32  H   UNL     1      -2.254  -4.207   3.167  0.00  0.00    +0.149 HD
BRANCH  29  33
ATOM     33  C   UNL     1      -4.374  -4.330   3.166  0.00  0.00    +0.070 C 
ATOM     34  C   UNL     1      -4.915  -3.971   4.551  0.00  0.00    +0.028 C 
BRANCH  33  36
ATOM     35  C   UNL     1      -3.815  -6.217   1.626  0.00  0.00    +0.005 C 
ATOM     36  C   UNL     1      -4.236  -5.850   3.050  0.00  0.00    +0.018 C 
ENDBRANCH  33  36
ENDBRANCH  29  33
ENDBRANCH  28  30
ENDBRANCH  27  28
ENDBRANCH  25  27
ENDBRANCH  24  25
ENDBRANCH  23  24
ENDBRANCH  21  23
ENDBRANCH   1  21
BRANCH   7  37
ATOM     37  O   UNL     1       2.542   8.136   3.321  0.00  0.00    -0.391 OA
ATOM     38  H   UNL     1       2.826   7.553   4.039  0.00  0.00    +0.210 HD
ENDBRANCH   7  37
BRANCH   1  39
ATOM     39  O   UNL     1       3.159   3.879   1.127  0.00  0.00    -0.380 OA
ATOM     40  H   UNL     1       3.392   2.950   1.000  0.00  0.00    +0.211 HD
ENDBRANCH   1  39
TORSDOF 11
