REMARK  Name = ZINC15380023
REMARK  13 active torsions:
REMARK  status: ('A' for Active; 'I' for Inactive)
REMARK    1  A    between atoms: C_1  and  C_2
REMARK    2  A    between atoms: C_2  and  O_3
REMARK    3  A    between atoms: O_3  and  C_4
REMARK    4  A    between atoms: C_7  and  C_10
REMARK    5  A    between atoms: C_10  and  N_11
REMARK    6  A    between atoms: N_11  and  C_12
REMARK    7  A    between atoms: C_13  and  C_15
REMARK    8  A    between atoms: C_18  and  S_21
REMARK    9  A    between atoms: S_21  and  N_24
REMARK   10  A    between atoms: N_24  and  C_25
REMARK   11  A    between atoms: C_27  and  N_33
REMARK   12  A    between atoms: C_30  and  O_31
REMARK   13  A    between atoms: O_31  and  C_32
REMARK                            x       y       z     vdW  Elec       q    Type
REMARK                         _______ _______ _______ _____ _____    ______ ____
ROOT
ATOM      1  C   UNL     1      -4.690   0.226   5.230  0.00  0.00    +0.037 A 
ATOM      2  C   UNL     1      -5.960   0.115   4.661  0.00  0.00    +0.015 A 
ATOM      3  C   UNL     1      -6.088  -0.115   3.307  0.00  0.00    +0.029 A 
ATOM      4  C   UNL     1      -4.961  -0.235   2.513  0.00  0.00    +0.109 A 
ATOM      5  C   UNL     1      -3.700  -0.132   3.071  0.00  0.00    +0.029 A 
ATOM      6  C   UNL     1      -3.558   0.103   4.423  0.00  0.00    +0.015 A 
ENDROOT
BRANCH   1   9
ATOM      7  N   UNL     1      -5.484   1.180   7.341  0.00  0.00    -0.296 N 
ATOM      8  C   UNL     1      -6.590   1.796   6.604  0.00  0.00    +0.132 C 
ATOM      9  C   UNL     1      -4.545   0.473   6.680  0.00  0.00    +0.247 C 
ATOM     10  O   UNL     1      -3.580   0.038   7.277  0.00  0.00    -0.270 OA
BRANCH   7  11
ATOM     11  C   UNL     1      -5.398   1.332   8.795  0.00  0.00    +0.142 C 
BRANCH  11  15
ATOM     12  C   UNL     1      -3.128   4.830   9.730  0.00  0.00    +0.121 A 
ATOM     13  C   UNL     1      -4.503   4.917   9.569  0.00  0.00    +0.046 A 
ATOM     14  C   UNL     1      -5.235   3.784   9.267  0.00  0.00    +0.009 A 
ATOM     15  C   UNL     1      -4.598   2.565   9.125  0.00  0.00    -0.030 A 
ATOM     16  C   UNL     1      -3.228   2.475   9.290  0.00  0.00    +0.009 A 
ATOM     17  C   UNL     1      -2.491   3.606   9.587  0.00  0.00    +0.046 A 
BRANCH  12  18
ATOM     18  O   UNL     1      -2.406   5.942  10.026  0.00  0.00    -0.492 OA
BRANCH  18  20
ATOM     19  C   UNL     1      -0.357   7.130  10.508  0.00  0.00    +0.048 C 
ATOM     20  C   UNL     1      -0.995   5.779  10.178  0.00  0.00    +0.225 C 
ENDBRANCH  18  20
ENDBRANCH  12  18
ENDBRANCH  11  15
ENDBRANCH   7  11
ENDBRANCH   1   9
BRANCH   4  21
ATOM     21  S   UNL     1      -5.134  -0.529   0.784  0.00  0.00    +0.072 S 
ATOM     22  O   UNL     1      -6.406  -1.134   0.600  0.00  0.00    -0.150 OA
ATOM     23  O   UNL     1      -3.928  -1.146   0.355  0.00  0.00    -0.150 OA
BRANCH  21  24
ATOM     24  N   UNL     1      -5.200   0.949   0.040  0.00  0.00    -0.213 N 
ATOM     25  H   UNL     1      -5.987   1.201  -0.468  0.00  0.00    +0.174 HD
BRANCH  24  26
ATOM     26  C   UNL     1      -4.121   1.834   0.145  0.00  0.00    +0.092 A 
ATOM     27  C   UNL     1      -2.822   1.347   0.172  0.00  0.00    +0.061 A 
ATOM     28  C   UNL     1      -1.758   2.224   0.275  0.00  0.00    +0.128 A 
ATOM     29  C   UNL     1      -1.985   3.585   0.357  0.00  0.00    +0.036 A 
ATOM     30  C   UNL     1      -3.277   4.078   0.326  0.00  0.00    +0.050 A 
ATOM     31  C   UNL     1      -4.349   3.206   0.223  0.00  0.00    +0.142 A 
BRANCH  28  32
ATOM     32  N   UNL     1      -0.373   1.703   0.303  0.00  0.00    +0.056 N 
ATOM     33  O   UNL     1      -0.172   0.504   0.235  0.00  0.00    -0.126 OA
ATOM     34  O   UNL     1       0.566   2.474   0.388  0.00  0.00    -0.126 OA
ENDBRANCH  28  32
BRANCH  31  35
ATOM     35  O   UNL     1      -5.620   3.689   0.198  0.00  0.00    -0.493 OA
ATOM     36  C   UNL     1      -5.777   5.107   0.281  0.00  0.00    +0.277 C 
ENDBRANCH  31  35
ENDBRANCH  24  26
ENDBRANCH  21  24
ENDBRANCH   4  21
TORSDOF 10
