REMARK  Name = ZINC09425152
REMARK  16 active torsions:
REMARK  status: ('A' for Active; 'I' for Inactive)
REMARK    1  A    between atoms: C_1  and  C_2
REMARK    2  A    between atoms: C_2  and  C_3
REMARK    3  A    between atoms: C_3  and  C_4
REMARK    4  A    between atoms: C_4  and  O_5
REMARK    5  A    between atoms: O_5  and  C_6
REMARK    6  A    between atoms: C_10  and  C_12
REMARK    7  A    between atoms: C_14  and  C_25
REMARK    8  A    between atoms: C_15  and  O_24
REMARK    9  A    between atoms: N_18  and  C_19
REMARK   10  A    between atoms: C_19  and  C_20
REMARK   11  A    between atoms: C_20  and  C_21
REMARK   12  A    between atoms: C_21  and  N_72
REMARK   13  A    between atoms: C_22  and  N_72
REMARK   14  A    between atoms: C_23  and  N_72
REMARK   15  A    between atoms: C_25  and  C_27
REMARK   16  A    between atoms: C_34  and  C_37
REMARK                            x       y       z     vdW  Elec       q    Type
REMARK                         _______ _______ _______ _____ _____    ______ ____
ROOT
ATOM      1  C   UNL     1       0.002   1.403  -0.586  0.00  0.00    +0.145 C 
ATOM      2  C   UNL     1       1.407   1.672  -0.100  0.00  0.00    +0.071 C 
ATOM      3  C   UNL     1       1.311   2.010   1.207  0.00  0.00    +0.188 C 
ATOM      4  C   UNL     1      -0.110   1.977   1.614  0.00  0.00    +0.282 C 
ATOM      5  O   UNL     1      -0.522   2.232   2.728  0.00  0.00    -0.267 OA
ATOM      6  N   UNL     1      -0.879   1.622   0.568  0.00  0.00    -0.284 N 
ENDROOT
BRANCH   1  11
ATOM      7  C   UNL     1      -0.678   2.794  -4.032  0.00  0.00    +0.121 A 
ATOM      8  C   UNL     1      -1.008   4.109  -3.737  0.00  0.00    +0.045 A 
ATOM      9  C   UNL     1      -1.009   4.542  -2.426  0.00  0.00    +0.004 A 
ATOM     10  C   UNL     1      -0.687   3.664  -1.407  0.00  0.00    +0.006 A 
ATOM     11  C   UNL     1      -0.354   2.355  -1.698  0.00  0.00    -0.019 A 
ATOM     12  C   UNL     1      -0.351   1.917  -3.009  0.00  0.00    +0.051 A 
BRANCH   7  13
ATOM     13  O   UNL     1      -0.677   2.365  -5.322  0.00  0.00    -0.492 OA
BRANCH  13  14
ATOM     14  C   UNL     1      -1.024   3.323  -6.324  0.00  0.00    +0.229 C 
BRANCH  14  15
ATOM     15  C   UNL     1      -0.968   2.662  -7.703  0.00  0.00    +0.041 C 
BRANCH  15  17
ATOM     16  C   UNL     1      -1.283   3.026 -10.154  0.00  0.00    +0.004 C 
ATOM     17  C   UNL     1      -1.340   3.687  -8.776  0.00  0.00    -0.000 C 
ENDBRANCH  15  17
ENDBRANCH  14  15
ENDBRANCH  13  14
ENDBRANCH   7  13
ENDBRANCH   1  11
BRANCH   3  18
ATOM     18  O   UNL     1       2.350   2.328   2.012  0.00  0.00    -0.502 OA
ATOM     19  H   UNL     1       2.009   2.538   2.929  0.00  0.00    +0.292 HD
ENDBRANCH   3  18
BRANCH   2  20
ATOM     20  C   UNL     1       2.638   1.583  -0.892  0.00  0.00    +0.195 C 
ATOM     21  O   UNL     1       3.303   2.582  -1.097  0.00  0.00    -0.287 OA
BRANCH  20  22
ATOM     22  C   UNL     1       3.070   0.283  -1.441  0.00  0.00    +0.023 A 
ATOM     23  C   UNL     1       2.377  -0.887  -1.113  0.00  0.00    +0.015 A 
ATOM     24  C   UNL     1       2.783  -2.097  -1.621  0.00  0.00    +0.046 A 
ATOM     25  C   UNL     1       3.890  -2.172  -2.469  0.00  0.00    +0.124 A 
ATOM     26  C   UNL     1       4.571  -1.004  -2.799  0.00  0.00    -0.002 A 
ATOM     27  C   UNL     1       4.173   0.211  -2.299  0.00  0.00    +0.019 A 
ATOM     28  C   UNL     1       5.694  -1.396  -3.741  0.00  0.00    +0.083 C 
ATOM     29  C   UNL     1       5.273  -2.823  -4.164  0.00  0.00    +0.175 C 
ATOM     30  O   UNL     1       4.462  -3.256  -3.059  0.00  0.00    -0.488 OA
ATOM     31  C   UNL     1       4.454  -2.785  -5.455  0.00  0.00    +0.052 C 
ENDBRANCH  20  22
ENDBRANCH   2  20
BRANCH   6  32
ATOM     32  C   UNL     1      -2.337   1.480   0.579  0.00  0.00    +0.107 C 
BRANCH  32  33
ATOM     33  C   UNL     1      -2.707   0.043   0.952  0.00  0.00    +0.000 C 
BRANCH  33  34
ATOM     34  C   UNL     1      -4.229  -0.105   0.964  0.00  0.00    -0.078 C 
BRANCH  34  37
ATOM     35  C   UNL     1      -6.026  -1.608   1.575  0.00  0.00    -0.097 C 
ATOM     36  C   UNL     1      -4.150  -2.427   0.282  0.00  0.00    -0.097 C 
ATOM     37  N   UNL     1      -4.571  -1.491   1.346  0.00  0.00    +0.376 N 
ATOM     38  H   UNL     1      -4.077  -1.729   2.214  0.00  0.00    -0.083 HD
ENDBRANCH  34  37
ENDBRANCH  33  34
ENDBRANCH  32  33
ENDBRANCH   6  32
TORSDOF 12
