REMARK  Name = ZINC13142139
REMARK  11 active torsions:
REMARK  status: ('A' for Active; 'I' for Inactive)
REMARK    1  A    between atoms: C_1  and  C_2
REMARK    2  A    between atoms: C_2  and  C_3
REMARK    3  A    between atoms: C_2  and  C_4
REMARK    4  A    between atoms: C_7  and  C_10
REMARK    5  A    between atoms: C_16  and  C_33
REMARK    6  A    between atoms: C_17  and  C_24
REMARK    7  A    between atoms: C_19  and  C_22
REMARK    8  A    between atoms: C_20  and  N_21
REMARK    9  A    between atoms: C_27  and  C_30
REMARK   10  A    between atoms: C_30  and  C_31
REMARK   11  A    between atoms: C_30  and  C_32
REMARK                            x       y       z     vdW  Elec       q    Type
REMARK                         _______ _______ _______ _____ _____    ______ ____
ROOT
ATOM      1  C   UNL     1      -0.913   2.645  -0.683  0.00  0.00    +0.028 C 
ATOM      2  C   UNL     1       0.045   1.780  -0.266  0.00  0.00    +0.079 A 
ATOM      3  C   UNL     1      -0.090   0.396   0.208  0.00  0.00    +0.271 A 
ATOM      4  O   UNL     1      -1.182  -0.135   0.276  0.00  0.00    -0.266 OA
ATOM      5  N   UNL     1       1.026  -0.270   0.567  0.00  0.00    -0.257 N 
ATOM      6  C   UNL     1       2.231   0.395   0.465  0.00  0.00    +0.099 A 
ATOM      7  C   UNL     1       3.434  -0.145   0.789  0.00  0.00    +0.057 C 
ATOM      8  C   UNL     1       3.468  -1.573   1.297  0.00  0.00    +0.100 C 
ATOM      9  C   UNL     1       2.125  -2.268   1.395  0.00  0.00    +0.079 C 
ATOM     10  C   UNL     1       1.014  -1.590   1.034  0.00  0.00    +0.118 C 
ATOM     11  S   UNL     1       1.812   2.013  -0.153  0.00  0.00    -0.065 S 
ENDROOT
BRANCH   1  15
ATOM     12  C   UNL     1      -4.896   1.296  -1.226  0.00  0.00    -0.045 A 
ATOM     13  C   UNL     1      -4.662   2.562  -0.719  0.00  0.00    +0.004 A 
ATOM     14  C   UNL     1      -3.369   3.008  -0.539  0.00  0.00    +0.008 A 
ATOM     15  C   UNL     1      -2.294   2.177  -0.871  0.00  0.00    -0.024 A 
ATOM     16  C   UNL     1      -2.540   0.900  -1.389  0.00  0.00    +0.008 A 
ATOM     17  C   UNL     1      -3.838   0.468  -1.558  0.00  0.00    +0.004 A 
BRANCH  12  19
ATOM     18  C   UNL     1      -6.543   0.491  -2.896  0.00  0.00    +0.012 C 
ATOM     19  C   UNL     1      -6.312   0.817  -1.419  0.00  0.00    +0.013 C 
ATOM     20  C   UNL     1      -6.545  -0.439  -0.577  0.00  0.00    +0.012 C 
ENDBRANCH  12  19
ENDBRANCH   1  15
BRANCH   8  21
ATOM     21  C   UNL     1       4.094  -1.571   2.668  0.00  0.00    -0.035 A 
ATOM     22  C   UNL     1       3.517  -0.841   3.690  0.00  0.00    +0.005 A 
ATOM     23  C   UNL     1       4.089  -0.843   4.949  0.00  0.00    +0.004 A 
ATOM     24  C   UNL     1       5.243  -1.567   5.183  0.00  0.00    -0.045 A 
ATOM     25  C   UNL     1       5.823  -2.292   4.159  0.00  0.00    +0.004 A 
ATOM     26  C   UNL     1       5.249  -2.294   2.901  0.00  0.00    +0.005 A 
BRANCH  24  27
ATOM     27  C   UNL     1       5.869  -1.565   6.554  0.00  0.00    +0.013 C 
ATOM     28  C   UNL     1       6.246  -0.134   6.941  0.00  0.00    +0.012 C 
ATOM     29  C   UNL     1       4.870  -2.123   7.570  0.00  0.00    +0.012 C 
ENDBRANCH  24  27
ENDBRANCH   8  21
BRANCH   7  30
ATOM     30  C   UNL     1       4.617   0.600   0.656  0.00  0.00    +0.241 C 
ATOM     31  O   UNL     1       4.572   1.747   0.246  0.00  0.00    -0.271 OA
ATOM     32  N   UNL     1       5.802   0.046   0.983  0.00  0.00    -0.326 N 
ATOM     33  H   UNL     1       5.838  -0.866   1.309  0.00  0.00    +0.145 HD
ATOM     34  H   UNL     1       6.619   0.561   0.891  0.00  0.00    +0.145 HD
ENDBRANCH   7  30
BRANCH  10  35
ATOM     35  N   UNL     1      -0.197  -2.233   1.128  0.00  0.00    -0.343 N 
ATOM     36  H   UNL     1      -0.924  -1.986   0.535  0.00  0.00    +0.144 HD
ATOM     37  H   UNL     1      -0.324  -2.933   1.787  0.00  0.00    +0.144 HD
ENDBRANCH  10  35
BRANCH   9  38
ATOM     38  C   UNL     1       2.035  -3.619   1.862  0.00  0.00    +0.099 C 
ATOM     39  N   UNL     1       1.964  -4.690   2.232  0.00  0.00    -0.191 NA
ENDBRANCH   9  38
TORSDOF 7
