REMARK  Name = ZINC40382718
REMARK  5 active torsions:
REMARK  status: ('A' for Active; 'I' for Inactive)
REMARK    1  A    between atoms: C_1  and  C_2
REMARK    2  A    between atoms: C_2  and  C_33
REMARK    3  A    between atoms: C_6  and  C_22
REMARK    4  A    between atoms: C_26  and  O_28
REMARK    5  A    between atoms: O_28  and  C_29
REMARK                            x       y       z     vdW  Elec       q    Type
REMARK                         _______ _______ _______ _____ _____    ______ ____
ROOT
ATOM      1  C   UNL     1      -0.236   1.575   0.950  0.00  0.00    +0.011 C 
ATOM      2  C   UNL     1      -0.173   0.069   0.686  0.00  0.00    -0.023 C 
ATOM      3  C   UNL     1      -1.584  -0.521   0.735  0.00  0.00    +0.058 C 
ATOM      4  C   UNL     1      -1.516  -2.014   0.523  0.00  0.00    +0.017 C 
ATOM      5  C   UNL     1      -0.441  -2.724   0.925  0.00  0.00    +0.024 C 
ATOM      6  C   UNL     1      -0.373  -4.216   0.713  0.00  0.00    +0.093 C 
ATOM      7  C   UNL     1      -1.732  -4.788   0.435  0.00  0.00    +0.069 A 
ATOM      8  C   UNL     1      -1.960  -6.175   0.572  0.00  0.00    +0.280 A 
ATOM      9  O   UNL     1      -1.053  -6.915   0.922  0.00  0.00    -0.265 OA
ATOM     10  N   UNL     1      -3.179  -6.674   0.314  0.00  0.00    -0.177 NA
ATOM     11  C   UNL     1      -4.167  -5.890  -0.062  0.00  0.00    +0.200 A 
ATOM     12  N   UNL     1      -3.987  -4.548  -0.202  0.00  0.00    -0.315 N 
ATOM     13  C   UNL     1      -2.762  -3.989   0.049  0.00  0.00    +0.112 A 
ATOM     14  N   UNL     1      -2.574  -2.633  -0.084  0.00  0.00    -0.304 N 
ATOM     15  N   UNL     1      -5.397  -6.435  -0.318  0.00  0.00    -0.297 N 
ATOM     16  C   UNL     1      -6.490  -5.614  -0.863  0.00  0.00    +0.136 C 
ATOM     17  C   UNL     1      -7.076  -6.336  -2.081  0.00  0.00    +0.179 C 
ATOM     18  O   UNL     1      -7.410  -7.678  -1.718  0.00  0.00    -0.377 OA
ATOM     19  C   UNL     1      -6.291  -8.471  -1.315  0.00  0.00    +0.179 C 
ATOM     20  C   UNL     1      -5.663  -7.859  -0.062  0.00  0.00    +0.136 C 
ATOM     21  C   UNL     1       0.652  -2.096   1.548  0.00  0.00    +0.162 C 
ATOM     22  O   UNL     1       1.596  -2.767   1.915  0.00  0.00    -0.292 OA
ATOM     23  C   UNL     1       0.674  -0.608   1.769  0.00  0.00    +0.086 C 
ATOM     24  C   UNL     1       0.450  -0.186  -0.688  0.00  0.00    +0.011 C 
ATOM     25  H   UNL     1      -3.197  -2.111  -0.613  0.00  0.00    +0.153 HD
ATOM     26  H   UNL     1      -4.728  -3.987  -0.480  0.00  0.00    +0.170 HD
ENDROOT
BRANCH   6  27
ATOM     27  C   UNL     1       0.532  -4.507  -0.456  0.00  0.00    -0.032 A 
ATOM     28  C   UNL     1       0.234  -3.995  -1.706  0.00  0.00    +0.005 A 
ATOM     29  C   UNL     1       1.062  -4.260  -2.780  0.00  0.00    +0.004 A 
ATOM     30  C   UNL     1       2.190  -5.040  -2.608  0.00  0.00    +0.045 A 
ATOM     31  C   UNL     1       2.491  -5.555  -1.356  0.00  0.00    +0.120 A 
ATOM     32  C   UNL     1       1.662  -5.282  -0.278  0.00  0.00    +0.050 A 
BRANCH  31  33
ATOM     33  O   UNL     1       3.600  -6.322  -1.184  0.00  0.00    -0.495 OA
ATOM     34  C   UNL     1       4.412  -6.557  -2.337  0.00  0.00    +0.277 C 
ENDBRANCH  31  33
ENDBRANCH   6  27
TORSDOF 2
