REMARK  Name = ZINC39531180
REMARK  7 active torsions:
REMARK  status: ('A' for Active; 'I' for Inactive)
REMARK    1  A    between atoms: C_4  and  C_7
REMARK    2  A    between atoms: C_7  and  C_8
REMARK    3  A    between atoms: C_11  and  C_14
REMARK    4  A    between atoms: C_14  and  C_16
REMARK    5  A    between atoms: C_14  and  N_19
REMARK    6  A    between atoms: C_16  and  N_17
REMARK    7  A    between atoms: C_23  and  O_26
REMARK                            x       y       z     vdW  Elec       q    Type
REMARK                         _______ _______ _______ _____ _____    ______ ____
ROOT
ATOM      1  C   UNL     1       5.450  -1.675   5.388  0.00  0.00    +0.101 C 
ENDROOT
BRANCH   1   2
ATOM      2  N   UNL     1       5.707  -3.103   5.613  0.00  0.00    -0.295 NA
ATOM      3  C   UNL     1       4.457  -3.827   5.887  0.00  0.00    +0.066 C 
ATOM      4  C   UNL     1       4.761  -5.317   6.056  0.00  0.00    -0.063 C 
ATOM      5  N   UNL     1       5.706  -5.502   7.165  0.00  0.00    +0.398 N 
ATOM      6  C   UNL     1       6.958  -4.794   6.866  0.00  0.00    +0.073 C 
ATOM      7  C   UNL     1       6.673  -3.299   6.703  0.00  0.00    +0.096 C 
ATOM      8  H   UNL     1       5.305  -5.132   8.014  0.00  0.00    -0.082 HD
ATOM      9  H   UNL     1       5.896  -6.485   7.284  0.00  0.00    -0.082 HD
BRANCH   6  10
ATOM     10  O   UNL     1       7.883  -4.989   7.938  0.00  0.00    -0.409 OA
ATOM     11  H   UNL     1       8.110  -5.915   8.098  0.00  0.00    +0.207 HD
ENDBRANCH   6  10
ENDBRANCH   1   2
BRANCH   1  15
ATOM     12  C   UNL     1       3.803  -1.123   1.485  0.00  0.00    -0.043 A 
ATOM     13  C   UNL     1       4.147  -0.025   2.252  0.00  0.00    +0.004 A 
ATOM     14  C   UNL     1       4.680  -0.204   3.515  0.00  0.00    +0.005 A 
ATOM     15  C   UNL     1       4.868  -1.480   4.011  0.00  0.00    -0.029 A 
ATOM     16  C   UNL     1       4.523  -2.578   3.245  0.00  0.00    +0.005 A 
ATOM     17  C   UNL     1       3.986  -2.399   1.984  0.00  0.00    +0.004 A 
BRANCH  12  18
ATOM     18  C   UNL     1       3.222  -0.928   0.108  0.00  0.00    +0.070 C 
BRANCH  18  22
ATOM     19  C   UNL     1      -1.032  -0.660   0.380  0.00  0.00    +0.000 A 
ATOM     20  C   UNL     1      -0.261   0.483   0.470  0.00  0.00    +0.000 A 
ATOM     21  C   UNL     1       1.116   0.397   0.382  0.00  0.00    +0.004 A 
ATOM     22  C   UNL     1       1.721  -0.834   0.205  0.00  0.00    -0.043 A 
ATOM     23  C   UNL     1       0.950  -1.977   0.116  0.00  0.00    +0.004 A 
ATOM     24  C   UNL     1      -0.427  -1.890   0.202  0.00  0.00    +0.000 A 
ENDBRANCH  18  22
ENDBRANCH  12  18
ENDBRANCH   1  15
BRANCH   1  25
ATOM     25  C   UNL     1       4.460  -1.163   6.437  0.00  0.00    +0.115 C 
BRANCH  25  26
ATOM     26  N   UNL     1       5.013  -1.384   7.780  0.00  0.00    -0.259 NA
ATOM     27  I   UNL     1       3.722  -0.714   9.224  0.00  0.00    +0.018 I 
ATOM     28  H   UNL     1       5.918  -0.949   7.874  0.00  0.00    +0.134 HD
ENDBRANCH  25  26
ENDBRANCH   1  25
TORSDOF 7
