REMARK  Name = ZINC04898589
REMARK  6 active torsions:
REMARK  status: ('A' for Active; 'I' for Inactive)
REMARK    1  A    between atoms: C_3  and  O_30
REMARK    2  A    between atoms: C_6  and  C_7
REMARK    3  A    between atoms: C_9  and  C_21
REMARK    4  A    between atoms: C_11  and  C_16
REMARK    5  A    between atoms: C_13  and  O_15
REMARK    6  A    between atoms: C_21  and  C_23
REMARK                            x       y       z     vdW  Elec       q    Type
REMARK                         _______ _______ _______ _____ _____    ______ ____
ROOT
ATOM      1  C   UNL     1      -1.293  -0.774   0.011  0.00  0.00    +0.120 C 
ATOM      2  C   UNL     1      -1.587  -1.286   1.429  0.00  0.00    +0.149 C 
ATOM      3  C   UNL     1      -2.892  -2.085   1.394  0.00  0.00    +0.284 C 
ATOM      4  N   UNL     1      -2.867  -3.059   0.308  0.00  0.00    -0.306 N 
ATOM      5  C   UNL     1      -2.084  -2.974  -0.714  0.00  0.00    +0.256 C 
ATOM      6  N   UNL     1      -1.183  -1.949  -0.867  0.00  0.00    -0.293 N 
ATOM      7  O   UNL     1      -3.988  -1.190   1.199  0.00  0.00    -0.194 OA
ATOM      8  H   UNL     1      -0.486  -2.000  -1.540  0.00  0.00    +0.151 HD
ATOM      9  H   UNL     1      -3.474  -3.813   0.357  0.00  0.00    +0.167 HD
ENDROOT
BRANCH   1  15
ATOM     10  C   UNL     1      -0.017   1.378   0.010  0.00  0.00    +0.009 A 
ATOM     11  C   UNL     1       1.169   2.087   0.002  0.00  0.00    +0.046 A 
ATOM     12  C   UNL     1       2.380   1.409  -0.013  0.00  0.00    +0.117 A 
ATOM     13  C   UNL     1       2.396   0.022  -0.021  0.00  0.00    +0.046 A 
ATOM     14  C   UNL     1       1.207  -0.681  -0.013  0.00  0.00    +0.009 A 
ATOM     15  C   UNL     1       0.002  -0.004   0.002  0.00  0.00    -0.026 A 
BRANCH  12  16
ATOM     16  O   UNL     1       3.548   2.104  -0.021  0.00  0.00    -0.507 OA
ATOM     17  H   UNL     1       3.895   2.300   0.860  0.00  0.00    +0.292 HD
ENDBRANCH  12  16
ENDBRANCH   1  15
BRANCH   3  18
ATOM     18  C   UNL     1      -3.070  -2.818   2.725  0.00  0.00    +0.441 C 
ATOM     19  F   UNL     1      -3.120  -1.887   3.767  0.00  0.00    -0.166 F 
ATOM     20  F   UNL     1      -4.262  -3.551   2.697  0.00  0.00    -0.166 F 
ATOM     21  F   UNL     1      -1.993  -3.688   2.927  0.00  0.00    -0.166 F 
ENDBRANCH   3  18
BRANCH   5  22
ATOM     22  O   UNL     1      -2.154  -3.928  -1.668  0.00  0.00    -0.483 OA
ATOM     23  H   UNL     1      -2.811  -4.615  -1.490  0.00  0.00    +0.295 HD
ENDBRANCH   5  22
BRANCH   2  24
ATOM     24  C   UNL     1      -1.733  -0.117   2.370  0.00  0.00    +0.173 C 
ATOM     25  O   UNL     1      -2.153   0.944   1.959  0.00  0.00    -0.292 OA
BRANCH  24  26
ATOM     26  C   UNL     1      -1.366  -0.264   3.786  0.00  0.00    +0.018 A 
ATOM     27  C   UNL     1      -0.875  -1.484   4.262  0.00  0.00    +0.014 A 
ATOM     28  C   UNL     1      -0.533  -1.615   5.590  0.00  0.00    +0.039 A 
ATOM     29  C   UNL     1      -0.674  -0.539   6.455  0.00  0.00    +0.123 A 
ATOM     30  C   UNL     1      -1.160   0.674   5.989  0.00  0.00    +0.039 A 
ATOM     31  C   UNL     1      -1.500   0.819   4.662  0.00  0.00    +0.014 A 
ATOM     32  F   UNL     1      -0.337  -0.674   7.756  0.00  0.00    -0.205 F 
ENDBRANCH  24  26
ENDBRANCH   2  24
TORSDOF 6
