REMARK  Name = ZINC67407887
REMARK  7 active torsions:
REMARK  status: ('A' for Active; 'I' for Inactive)
REMARK    1  A    between atoms: C_1  and  C_2
REMARK    2  A    between atoms: C_2  and  C_3
REMARK    3  A    between atoms: C_2  and  C_4
REMARK    4  A    between atoms: N_12  and  C_13
REMARK    5  A    between atoms: C_13  and  C_14
REMARK    6  A    between atoms: C_14  and  C_16
REMARK    7  A    between atoms: C_14  and  O_26
REMARK                            x       y       z     vdW  Elec       q    Type
REMARK                         _______ _______ _______ _____ _____    ______ ____
ROOT
ATOM      1  C   UNL     1      -1.412  -0.526   0.013  0.00  0.00    +0.106 A 
ATOM      2  N   UNL     1      -2.373  -0.344   0.896  0.00  0.00    -0.144 NA
ATOM      3  N   UNL     1      -3.498  -0.884   0.699  0.00  0.00    -0.126 NA
ATOM      4  C   UNL     1      -3.740  -1.625  -0.364  0.00  0.00    +0.189 A 
ATOM      5  S   UNL     1      -2.261  -1.559  -1.172  0.00  0.00    -0.035 S 
ATOM      6  N   UNL     1      -4.909  -2.284  -0.728  0.00  0.00    -0.247 N 
ATOM      7  C   UNL     1      -5.999  -2.207   0.062  0.00  0.00    +0.305 C 
ATOM      8  O   UNL     1      -5.959  -1.561   1.091  0.00  0.00    -0.252 OA
ATOM      9  N   UNL     1      -7.132  -2.845  -0.290  0.00  0.00    -0.296 N 
ATOM     10  H   UNL     1      -4.941  -2.799  -1.549  0.00  0.00    +0.158 HD
ATOM     11  H   UNL     1      -7.164  -3.360  -1.111  0.00  0.00    +0.150 HD
ENDROOT
BRANCH   1  13
ATOM     12  C   UNL     1      -0.019   1.526   0.010  0.00  0.00    +0.014 C 
ATOM     13  C   UNL     1       0.002  -0.004   0.002  0.00  0.00    +0.040 C 
ATOM     14  C   UNL     1       0.742  -0.511   1.242  0.00  0.00    +0.014 C 
ENDBRANCH   1  13
BRANCH   9  15
ATOM     15  C   UNL     1      -8.317  -2.762   0.568  0.00  0.00    +0.141 C 
BRANCH  15  16
ATOM     16  C   UNL     1      -9.457  -3.570  -0.056  0.00  0.00    +0.162 C 
BRANCH  16  17
ATOM     17  C   UNL     1     -10.709  -3.384   0.761  0.00  0.00    -0.017 A 
ATOM     18  C   UNL     1     -10.874  -4.110   1.940  0.00  0.00    +0.007 A 
ATOM     19  C   UNL     1     -11.993  -3.967   2.700  0.00  0.00    +0.009 A 
ATOM     20  C   UNL     1     -13.000  -3.074   2.295  0.00  0.00    -0.018 A 
ATOM     21  C   UNL     1     -14.169  -2.899   3.054  0.00  0.00    +0.008 A 
ATOM     22  C   UNL     1     -15.123  -2.025   2.631  0.00  0.00    +0.001 A 
ATOM     23  C   UNL     1     -14.958  -1.299   1.452  0.00  0.00    +0.001 A 
ATOM     24  C   UNL     1     -13.839  -1.443   0.691  0.00  0.00    +0.008 A 
ATOM     25  C   UNL     1     -12.833  -2.336   1.097  0.00  0.00    -0.018 A 
ATOM     26  C   UNL     1     -11.661  -2.507   0.340  0.00  0.00    +0.014 A 
ENDBRANCH  16  17
BRANCH  16  27
ATOM     27  O   UNL     1      -9.103  -4.954  -0.078  0.00  0.00    -0.386 OA
ATOM     28  H   UNL     1      -8.932  -5.330   0.796  0.00  0.00    +0.210 HD
ENDBRANCH  16  27
ENDBRANCH  15  16
ENDBRANCH   9  15
TORSDOF 5
