REMARK  Name = ZINC24641386
REMARK  8 active torsions:
REMARK  status: ('A' for Active; 'I' for Inactive)
REMARK    1  A    between atoms: C_4  and  C_7
REMARK    2  A    between atoms: C_7  and  C_8
REMARK    3  A    between atoms: C_7  and  C_24
REMARK    4  A    between atoms: C_8  and  C_9
REMARK    5  A    between atoms: C_9  and  N_10
REMARK    6  A    between atoms: N_13  and  N_14
REMARK    7  A    between atoms: C_15  and  C_17
REMARK    8  A    between atoms: C_22  and  O_23
REMARK                            x       y       z     vdW  Elec       q    Type
REMARK                         _______ _______ _______ _____ _____    ______ ____
ROOT
ATOM      1  N   UNL     1      -2.551   2.975   0.614  0.00  0.00    -0.298 N 
ATOM      2  C   UNL     1      -1.804   4.083   0.789  0.00  0.00    +0.316 C 
ATOM      3  O   UNL     1      -2.331   5.178   0.784  0.00  0.00    -0.251 OA
ATOM      4  N   UNL     1      -0.472   3.976   0.969  0.00  0.00    -0.218 N 
ATOM      5  H   UNL     1      -2.074   1.984   0.619  0.00  0.00    +0.150 HD
ATOM      6  H   UNL     1       0.138   4.880   1.112  0.00  0.00    +0.174 HD
ENDROOT
BRANCH   4   7
ATOM      7  N   UNL     1       0.135   2.713   0.975  0.00  0.00    -0.229 N 
ATOM      8  C   UNL     1       1.467   2.607   1.149  0.00  0.00    +0.264 C 
ATOM      9  O   UNL     1       2.142   3.607   1.302  0.00  0.00    -0.269 OA
ATOM     10  H   UNL     1      -0.475   1.809   0.836  0.00  0.00    +0.173 HD
BRANCH   8  11
ATOM     11  C   UNL     1       2.107   1.278   1.155  0.00  0.00    +0.079 A 
ATOM     12  C   UNL     1       1.334   0.126   0.986  0.00  0.00    +0.017 A 
ATOM     13  C   UNL     1       1.938  -1.113   0.987  0.00  0.00    +0.001 A 
ATOM     14  C   UNL     1       3.308  -1.222   1.166  0.00  0.00    +0.004 A 
ATOM     15  C   UNL     1       4.082  -0.093   1.340  0.00  0.00    +0.046 A 
ATOM     16  C   UNL     1       3.491   1.162   1.336  0.00  0.00    +0.129 A 
BRANCH  16  17
ATOM     17  O   UNL     1       4.251   2.273   1.508  0.00  0.00    -0.506 OA
ATOM     18  H   UNL     1       5.338   2.180   1.650  0.00  0.00    +0.292 HD
ENDBRANCH  16  17
ENDBRANCH   8  11
ENDBRANCH   4   7
BRANCH   1  19
ATOM     19  C   UNL     1      -3.998   3.091   0.418  0.00  0.00    +0.106 C 
BRANCH  19  20
ATOM     20  C   UNL     1      -4.603   1.696   0.245  0.00  0.00    +0.031 C 
BRANCH  20  21
ATOM     21  C   UNL     1      -6.114   1.817   0.041  0.00  0.00    +0.050 C 
BRANCH  21  25
ATOM     22  C   UNL     1      -6.896   3.851  -3.633  0.00  0.00    +0.000 A 
ATOM     23  C   UNL     1      -6.053   2.755  -3.615  0.00  0.00    +0.000 A 
ATOM     24  C   UNL     1      -5.800   2.097  -2.426  0.00  0.00    +0.004 A 
ATOM     25  C   UNL     1      -6.390   2.535  -1.255  0.00  0.00    -0.040 A 
ATOM     26  C   UNL     1      -7.237   3.627  -1.274  0.00  0.00    +0.004 A 
ATOM     27  C   UNL     1      -7.486   4.288  -2.462  0.00  0.00    +0.000 A 
ENDBRANCH  21  25
BRANCH  21  28
ATOM     28  C   UNL     1      -6.726   0.441  -0.007  0.00  0.00    -0.040 A 
ATOM     29  C   UNL     1      -6.219  -0.512  -0.870  0.00  0.00    +0.004 A 
ATOM     30  C   UNL     1      -6.778  -1.776  -0.910  0.00  0.00    +0.000 A 
ATOM     31  C   UNL     1      -7.850  -2.083  -0.094  0.00  0.00    +0.000 A 
ATOM     32  C   UNL     1      -8.361  -1.129   0.765  0.00  0.00    +0.000 A 
ATOM     33  C   UNL     1      -7.799   0.133   0.809  0.00  0.00    +0.004 A 
ENDBRANCH  21  28
ENDBRANCH  20  21
ENDBRANCH  19  20
ENDBRANCH   1  19
TORSDOF 8
