REMARK  Name = ZINC36812778
REMARK  10 active torsions:
REMARK  status: ('A' for Active; 'I' for Inactive)
REMARK    1  A    between atoms: C_1  and  C_2
REMARK    2  A    between atoms: C_2  and  N_3
REMARK    3  A    between atoms: C_4  and  C_20
REMARK    4  A    between atoms: C_7  and  S_8
REMARK    5  A    between atoms: S_8  and  C_9
REMARK    6  A    between atoms: C_9  and  C_11
REMARK    7  A    between atoms: C_9  and  C_14
REMARK    8  A    between atoms: C_11  and  C_12
REMARK    9  A    between atoms: C_11  and  C_13
REMARK   10  A    between atoms: C_22  and  C_30
REMARK                            x       y       z     vdW  Elec       q    Type
REMARK                         _______ _______ _______ _____ _____    ______ ____
ROOT
ATOM      1  N   UNL     1       0.721  -0.715  -0.856  0.00  0.00    -0.302 N 
ATOM      2  C   UNL     1       0.065  -1.213  -1.960  0.00  0.00    +0.166 A 
ATOM      3  N   UNL     1       0.985  -1.571  -2.827  0.00  0.00    -0.128 NA
ATOM      4  N   UNL     1       2.154  -1.334  -2.348  0.00  0.00    -0.122 NA
ATOM      5  C   UNL     1       2.051  -0.804  -1.147  0.00  0.00    +0.193 A 
ENDROOT
BRANCH   2   6
ATOM      6  C   UNL     1      -1.395  -1.325  -2.135  0.00  0.00    +0.030 A 
ATOM      7  C   UNL     1      -2.201  -1.891  -1.151  0.00  0.00    +0.040 A 
ATOM      8  C   UNL     1      -3.580  -1.976  -1.360  0.00  0.00    +0.072 A 
ATOM      9  N   UNL     1      -4.156  -1.538  -2.463  0.00  0.00    -0.247 NA
ATOM     10  C   UNL     1      -3.461  -0.981  -3.458  0.00  0.00    +0.072 A 
ATOM     11  C   UNL     1      -2.056  -0.840  -3.348  0.00  0.00    +0.011 A 
ATOM     12  C   UNL     1      -1.332  -0.251  -4.389  0.00  0.00    +0.011 A 
ATOM     13  C   UNL     1      -1.988   0.187  -5.502  0.00  0.00    +0.001 A 
ATOM     14  C   UNL     1      -3.369   0.056  -5.614  0.00  0.00    +0.002 A 
ATOM     15  C   UNL     1      -4.102  -0.523  -4.623  0.00  0.00    +0.028 A 
BRANCH   8  16
ATOM     16  C   UNL     1      -4.427  -2.582  -0.303  0.00  0.00    +0.000 A 
ATOM     17  C   UNL     1      -3.848  -3.050   0.875  0.00  0.00    +0.010 A 
ATOM     18  C   UNL     1      -4.641  -3.612   1.854  0.00  0.00    +0.001 A 
ATOM     19  C   UNL     1      -6.008  -3.714   1.668  0.00  0.00    +0.000 A 
ATOM     20  C   UNL     1      -6.588  -3.251   0.500  0.00  0.00    +0.001 A 
ATOM     21  C   UNL     1      -5.806  -2.681  -0.483  0.00  0.00    +0.010 A 
ENDBRANCH   8  16
ENDBRANCH   2   6
BRANCH   1  23
ATOM     22  C   UNL     1      -0.023   1.329   0.263  0.00  0.00    +0.027 C 
ATOM     23  C   UNL     1       0.117  -0.191   0.371  0.00  0.00    +0.122 C 
ENDBRANCH   1  23
BRANCH   5  24
ATOM     24  S   UNL     1       3.384  -0.307  -0.107  0.00  0.00    -0.073 S 
BRANCH  24  25
ATOM     25  C   UNL     1       4.858  -0.555  -1.134  0.00  0.00    +0.143 C 
BRANCH  25  26
ATOM     26  C   UNL     1       5.067  -2.030  -1.365  0.00  0.00    +0.234 C 
ATOM     27  O   UNL     1       4.551  -2.838  -0.623  0.00  0.00    -0.274 OA
ATOM     28  N   UNL     1       5.826  -2.450  -2.396  0.00  0.00    -0.239 N 
ATOM     29  C   UNL     1       6.013  -3.768  -2.602  0.00  0.00    +0.303 C 
ATOM     30  O   UNL     1       5.496  -4.579  -1.859  0.00  0.00    -0.253 OA
ATOM     31  N   UNL     1       6.772  -4.188  -3.634  0.00  0.00    -0.313 N 
ATOM     32  H   UNL     1       6.239  -1.803  -2.989  0.00  0.00    +0.159 HD
ATOM     33  H   UNL     1       7.185  -3.541  -4.227  0.00  0.00    +0.146 HD
ATOM     34  H   UNL     1       6.907  -5.137  -3.782  0.00  0.00    +0.146 HD
ENDBRANCH  25  26
BRANCH  25  35
ATOM     35  C   UNL     1       6.080   0.027  -0.421  0.00  0.00    +0.005 C 
ATOM     36  C   UNL     1       7.335  -0.248  -1.252  0.00  0.00    +0.009 C 
ATOM     37  C   UNL     1       5.901   1.537  -0.252  0.00  0.00    +0.009 C 
ENDBRANCH  25  35
ENDBRANCH  24  25
ENDBRANCH   5  24
TORSDOF 7
