REMARK  Name = ZINC06177900
REMARK  12 active torsions:
REMARK  status: ('A' for Active; 'I' for Inactive)
REMARK    1  A    between atoms: C_1  and  C_2
REMARK    2  A    between atoms: C_4  and  C_38
REMARK    3  A    between atoms: C_9  and  C_14
REMARK    4  A    between atoms: C_14  and  C_16
REMARK    5  A    between atoms: C_14  and  N_72
REMARK    6  A    between atoms: N_20  and  C_21
REMARK    7  A    between atoms: C_21  and  C_22
REMARK    8  A    between atoms: C_21  and  C_23
REMARK    9  A    between atoms: C_21  and  C_24
REMARK   10  A    between atoms: N_27  and  C_30
REMARK   11  A    between atoms: C_35  and  O_36
REMARK   12  A    between atoms: O_36  and  C_37
REMARK                            x       y       z     vdW  Elec       q    Type
REMARK                         _______ _______ _______ _____ _____    ______ ____
ROOT
ATOM      1  C   UNL     1      -2.244   1.524   0.330  0.00  0.00    +0.039 C 
ENDROOT
BRANCH   1  10
ATOM      2  C   UNL     1       1.365   6.293   4.785  0.00  0.00    +0.044 C 
ATOM      3  C   UNL     1       1.126   5.689   3.425  0.00  0.00    -0.050 A 
ATOM      4  C   UNL     1       1.871   6.125   2.338  0.00  0.00    +0.008 A 
ATOM      5  C   UNL     1       1.670   5.587   1.086  0.00  0.00    -0.026 A 
ATOM      6  C   UNL     1       0.710   4.596   0.907  0.00  0.00    +0.052 A 
ATOM      7  C   UNL     1      -0.044   4.157   2.011  0.00  0.00    -0.001 A 
ATOM      8  C   UNL     1       0.177   4.718   3.273  0.00  0.00    +0.013 A 
ATOM      9  C   UNL     1      -1.052   3.114   1.812  0.00  0.00    +0.017 A 
ATOM     10  C   UNL     1      -1.220   2.603   0.568  0.00  0.00    +0.011 A 
ATOM     11  C   UNL     1      -0.442   3.083  -0.508  0.00  0.00    +0.251 A 
ATOM     12  O   UNL     1      -0.612   2.615  -1.620  0.00  0.00    -0.268 OA
ATOM     13  N   UNL     1       0.487   4.041  -0.335  0.00  0.00    -0.322 N 
ATOM     14  H   UNL     1       1.007   4.344  -1.095  0.00  0.00    +0.169 HD
ATOM     15  C   UNL     1       2.486   6.069  -0.085  0.00  0.00    +0.046 C 
ENDBRANCH   1  10
BRANCH   1  21
ATOM     16  C   UNL     1      -3.862   3.243  -0.212  0.00  0.00    -0.058 C 
ATOM     17  C   UNL     1      -4.820   3.738  -1.298  0.00  0.00    +0.086 C 
ATOM     18  N   UNL     1      -5.831   2.705  -1.564  0.00  0.00    -0.331 N 
ATOM     19  C   UNL     1      -5.198   1.454  -2.006  0.00  0.00    +0.086 C 
ATOM     20  C   UNL     1      -4.240   0.959  -0.920  0.00  0.00    -0.058 C 
ATOM     21  N   UNL     1      -3.216   1.998  -0.678  0.00  0.00    +0.391 N 
ATOM     22  H   UNL     1      -2.720   2.188  -1.557  0.00  0.00    -0.080 HD
BRANCH  18  23
ATOM     23  C   UNL     1      -6.769   3.151  -2.502  0.00  0.00    +0.072 A 
ATOM     24  C   UNL     1      -6.550   4.330  -3.198  0.00  0.00    +0.027 A 
ATOM     25  C   UNL     1      -7.476   4.766  -4.127  0.00  0.00    +0.002 A 
ATOM     26  C   UNL     1      -8.627   4.034  -4.357  0.00  0.00    +0.004 A 
ATOM     27  C   UNL     1      -8.854   2.860  -3.663  0.00  0.00    +0.047 A 
ATOM     28  C   UNL     1      -7.929   2.414  -2.734  0.00  0.00    +0.141 A 
BRANCH  28  29
ATOM     29  O   UNL     1      -8.152   1.260  -2.050  0.00  0.00    -0.493 OA
ATOM     30  C   UNL     1      -9.363   0.558  -2.340  0.00  0.00    +0.277 C 
ENDBRANCH  28  29
ENDBRANCH  18  23
ENDBRANCH   1  21
BRANCH   1  31
ATOM     31  C   UNL     1      -2.943   1.201   1.625  0.00  0.00    +0.143 A 
ATOM     32  N   UNL     1      -3.818   1.950   2.251  0.00  0.00    -0.115 NA
ATOM     33  N   UNL     1      -4.183   1.329   3.318  0.00  0.00    -0.023 NA
ATOM     34  N   UNL     1      -3.565   0.202   3.390  0.00  0.00    -0.043 NA
ATOM     35  N   UNL     1      -2.795   0.084   2.362  0.00  0.00    -0.225 N 
BRANCH  35  36
ATOM     36  C   UNL     1      -1.920  -1.051   2.055  0.00  0.00    +0.059 C 
ATOM     37  C   UNL     1      -0.487  -0.552   1.861  0.00  0.00    +0.036 C 
ATOM     38  C   UNL     1      -1.960  -2.053   3.211  0.00  0.00    +0.036 C 
ATOM     39  C   UNL     1      -2.401  -1.732   0.772  0.00  0.00    +0.036 C 
ENDBRANCH  35  36
ENDBRANCH   1  31
TORSDOF 6
