REMARK  Name = ZINC55872594
REMARK  10 active torsions:
REMARK  status: ('A' for Active; 'I' for Inactive)
REMARK    1  A    between atoms: C_1  and  C_2
REMARK    2  A    between atoms: C_8  and  N_10
REMARK    3  A    between atoms: C_14  and  C_16
REMARK    4  A    between atoms: C_16  and  N_17
REMARK    5  A    between atoms: N_17  and  C_18
REMARK    6  A    between atoms: C_22  and  C_24
REMARK    7  A    between atoms: N_26  and  C_27
REMARK    8  A    between atoms: C_27  and  C_28
REMARK    9  A    between atoms: C_27  and  C_29
REMARK   10  A    between atoms: C_27  and  C_30
REMARK                            x       y       z     vdW  Elec       q    Type
REMARK                         _______ _______ _______ _____ _____    ______ ____
ROOT
ATOM      1  C   UNL     1       0.083   1.145   7.106  0.00  0.00    +0.198 C 
ENDROOT
BRANCH   1   6
ATOM      2  N   UNL     1       0.056  -0.038   2.447  0.00  0.00    -0.296 N 
ATOM      3  C   UNL     1       0.738   0.093   3.602  0.00  0.00    +0.306 C 
ATOM      4  O   UNL     1       1.921  -0.180   3.644  0.00  0.00    -0.252 OA
ATOM      5  N   UNL     1       0.107   0.528   4.711  0.00  0.00    -0.239 N 
ATOM      6  C   UNL     1       0.789   0.659   5.866  0.00  0.00    +0.237 C 
ATOM      7  O   UNL     1       1.969   0.387   5.908  0.00  0.00    -0.274 OA
ATOM      8  H   UNL     1      -0.888   0.180   2.413  0.00  0.00    +0.151 HD
ATOM      9  H   UNL     1      -0.838   0.746   4.678  0.00  0.00    +0.159 HD
BRANCH   2  16
ATOM     10  C   UNL     1      -0.019   1.526   0.010  0.00  0.00    +0.009 C 
ATOM     11  C   UNL     1       0.002  -0.004   0.002  0.00  0.00    +0.006 C 
ATOM     12  C   UNL     1       0.718  -0.497  -1.257  0.00  0.00    +0.005 C 
ATOM     13  C   UNL     1       0.739  -2.027  -1.265  0.00  0.00    +0.000 C 
ATOM     14  C   UNL     1       1.479  -2.534  -0.026  0.00  0.00    +0.002 C 
ATOM     15  C   UNL     1       0.763  -2.041   1.233  0.00  0.00    +0.022 C 
ATOM     16  C   UNL     1       0.742  -0.511   1.242  0.00  0.00    +0.077 C 
ENDBRANCH   2  16
ENDBRANCH   1   6
BRANCH   1  17
ATOM     17  N   UNL     1       1.035   1.202   8.219  0.00  0.00    -0.335 N 
ATOM     18  H   UNL     1       1.959   0.944   8.080  0.00  0.00    +0.147 HD
BRANCH  17  19
ATOM     19  C   UNL     1       0.610   1.626   9.480  0.00  0.00    +0.028 A 
ATOM     20  C   UNL     1      -0.717   1.989   9.681  0.00  0.00    +0.023 A 
ATOM     21  C   UNL     1      -1.142   2.409  10.927  0.00  0.00    +0.003 A 
ATOM     22  C   UNL     1      -0.253   2.470  11.981  0.00  0.00    +0.013 A 
ATOM     23  C   UNL     1       1.082   2.108  11.790  0.00  0.00    +0.038 A 
ATOM     24  C   UNL     1       1.510   1.679  10.533  0.00  0.00    +0.036 A 
BRANCH  23  25
ATOM     25  C   UNL     1       2.037   2.173  12.917  0.00  0.00    +0.245 C 
ATOM     26  O   UNL     1       3.198   1.857  12.748  0.00  0.00    -0.270 OA
ATOM     27  N   UNL     1       1.619   2.583  14.131  0.00  0.00    -0.307 N 
ATOM     28  H   UNL     1       0.693   2.836  14.265  0.00  0.00    +0.150 HD
BRANCH  27  29
ATOM     29  C   UNL     1       2.566   2.648  15.247  0.00  0.00    +0.026 C 
ATOM     30  C   UNL     1       3.699   3.615  14.900  0.00  0.00    +0.031 C 
ATOM     31  C   UNL     1       1.841   3.140  16.502  0.00  0.00    +0.031 C 
ATOM     32  C   UNL     1       3.145   1.256  15.506  0.00  0.00    +0.031 C 
ENDBRANCH  27  29
ENDBRANCH  23  25
ENDBRANCH  17  19
ENDBRANCH   1  17
TORSDOF 6
