REMARK  Name = ZINC11484663
REMARK  8 active torsions:
REMARK  status: ('A' for Active; 'I' for Inactive)
REMARK    1  A    between atoms: C_4  and  C_7
REMARK    2  A    between atoms: C_7  and  N_69
REMARK    3  A    between atoms: C_10  and  N_13
REMARK    4  A    between atoms: C_14  and  C_16
REMARK    5  A    between atoms: C_16  and  S_17
REMARK    6  A    between atoms: S_17  and  C_18
REMARK    7  A    between atoms: N_22  and  C_23
REMARK    8  A    between atoms: C_23  and  C_24
REMARK                            x       y       z     vdW  Elec       q    Type
REMARK                         _______ _______ _______ _____ _____    ______ ____
ROOT
ATOM      1  C   UNL     1       1.910   8.326   0.057  0.00  0.00    +0.173 C 
ENDROOT
BRANCH   1   3
ATOM      2  N   UNL     1       1.993  10.794   0.203  0.00  0.00    -0.312 N 
ATOM      3  C   UNL     1       2.656   9.621   0.247  0.00  0.00    +0.224 C 
ATOM      4  O   UNL     1       3.853   9.609   0.439  0.00  0.00    -0.275 OA
ATOM      5  H   UNL     1       1.035  10.804   0.049  0.00  0.00    +0.149 HD
BRANCH   2   8
ATOM      6  C   UNL     1       2.682  14.512  -0.045  0.00  0.00    -0.077 C 
ATOM      7  C   UNL     1       1.951  13.190  -0.293  0.00  0.00    +0.003 C 
ATOM      8  C   UNL     1       2.718  12.053   0.388  0.00  0.00    +0.069 C 
ATOM      9  C   UNL     1       2.844  12.357   1.883  0.00  0.00    +0.003 C 
ATOM     10  C   UNL     1       3.548  13.703   2.068  0.00  0.00    -0.077 C 
ATOM     11  N   UNL     1       2.748  14.758   1.411  0.00  0.00    +0.382 N 
ATOM     12  H   UNL     1       1.795  14.741   1.795  0.00  0.00    -0.081 HD
BRANCH  11  13
ATOM     13  C   UNL     1       3.347  16.083   1.672  0.00  0.00    -0.043 C 
BRANCH  13  17
ATOM     14  C   UNL     1       2.938  16.982   5.828  0.00  0.00    +0.000 A 
ATOM     15  C   UNL     1       4.069  16.333   5.370  0.00  0.00    +0.000 A 
ATOM     16  C   UNL     1       4.201  16.042   4.025  0.00  0.00    +0.002 A 
ATOM     17  C   UNL     1       3.203  16.400   3.139  0.00  0.00    -0.064 A 
ATOM     18  C   UNL     1       2.074  17.054   3.596  0.00  0.00    +0.002 A 
ATOM     19  C   UNL     1       1.939  17.340   4.942  0.00  0.00    +0.000 A 
ENDBRANCH  13  17
ENDBRANCH  11  13
ENDBRANCH   2   8
ENDBRANCH   1   3
BRANCH   1  20
ATOM     20  S   UNL     1       3.071   6.937   0.169  0.00  0.00    -0.077 S 
BRANCH  20  21
ATOM     21  C   UNL     1       2.059   5.515  -0.070  0.00  0.00    +0.194 A 
ATOM     22  N   UNL     1       0.765   5.516  -0.279  0.00  0.00    -0.121 NA
ATOM     23  N   UNL     1       0.348   4.186  -0.419  0.00  0.00    -0.112 NA
ATOM     24  C   UNL     1       1.400   3.416  -0.290  0.00  0.00    +0.221 A 
ATOM     25  N   UNL     1       2.485   4.216  -0.066  0.00  0.00    -0.283 N 
ATOM     26  N   UNL     1       1.411   2.029  -0.364  0.00  0.00    -0.300 N 
ATOM     27  C   UNL     1       0.439   1.547  -1.354  0.00  0.00    +0.108 C 
ATOM     28  C   UNL     1       0.580   0.031  -1.513  0.00  0.00    +0.019 C 
ATOM     29  C   UNL     1       0.335  -0.643  -0.161  0.00  0.00    +0.003 C 
ATOM     30  C   UNL     1       1.328  -0.089   0.865  0.00  0.00    +0.019 C 
ATOM     31  C   UNL     1       1.166   1.430   0.955  0.00  0.00    +0.108 C 
BRANCH  25  32
ATOM     32  C   UNL     1       3.862   3.762   0.140  0.00  0.00    +0.201 C 
BRANCH  32  33
ATOM     33  C   UNL     1       4.541   3.595  -1.195  0.00  0.00    +0.125 A 
ATOM     34  C   UNL     1       5.226   4.546  -1.854  0.00  0.00    +0.046 A 
ATOM     35  C   UNL     1       5.691   3.960  -3.054  0.00  0.00    +0.041 A 
ATOM     36  C   UNL     1       5.255   2.688  -3.060  0.00  0.00    +0.195 A 
ATOM     37  O   UNL     1       4.558   2.472  -1.932  0.00  0.00    -0.466 OA
ENDBRANCH  32  33
ENDBRANCH  25  32
ENDBRANCH  20  21
ENDBRANCH   1  20
TORSDOF 8
