REMARK  Name = ZINC13510027
REMARK  12 active torsions:
REMARK  status: ('A' for Active; 'I' for Inactive)
REMARK    1  A    between atoms: C_4  and  C_7
REMARK    2  A    between atoms: C_8  and  C_33
REMARK    3  A    between atoms: N_9  and  C_23
REMARK    4  A    between atoms: N_12  and  C_13
REMARK    5  A    between atoms: C_13  and  C_14
REMARK    6  A    between atoms: C_14  and  C_16
REMARK    7  A    between atoms: C_14  and  O_22
REMARK    8  A    between atoms: C_16  and  N_79
REMARK    9  A    between atoms: C_23  and  C_24
REMARK   10  A    between atoms: C_24  and  C_26
REMARK   11  A    between atoms: C_24  and  O_32
REMARK   12  A    between atoms: C_26  and  N_81
REMARK                            x       y       z     vdW  Elec       q    Type
REMARK                         _______ _______ _______ _____ _____    ______ ____
ROOT
ATOM      1  C   UNL     1       1.432   3.039  -3.071  0.00  0.00    +0.078 A 
ATOM      2  C   UNL     1       0.671   2.909  -4.189  0.00  0.00    +0.078 A 
ATOM      3  N   UNL     1       0.129   1.629  -4.176  0.00  0.00    -0.289 N 
ATOM      4  C   UNL     1       0.564   0.999  -3.068  0.00  0.00    +0.330 A 
ATOM      5  O   UNL     1       0.284  -0.141  -2.745  0.00  0.00    -0.246 OA
ATOM      6  N   UNL     1       1.354   1.839  -2.374  0.00  0.00    -0.289 N 
ENDROOT
BRANCH   1  10
ATOM      7  C   UNL     1       3.637   6.479  -1.917  0.00  0.00    +0.000 A 
ATOM      8  C   UNL     1       2.317   6.608  -2.310  0.00  0.00    +0.001 A 
ATOM      9  C   UNL     1       1.594   5.495  -2.686  0.00  0.00    +0.010 A 
ATOM     10  C   UNL     1       2.199   4.236  -2.670  0.00  0.00    +0.001 A 
ATOM     11  C   UNL     1       3.530   4.113  -2.266  0.00  0.00    +0.010 A 
ATOM     12  C   UNL     1       4.242   5.235  -1.899  0.00  0.00    +0.001 A 
ENDBRANCH   1  10
BRANCH   2  13
ATOM     13  C   UNL     1       0.460   3.937  -5.228  0.00  0.00    +0.001 A 
ATOM     14  C   UNL     1       1.549   4.628  -5.764  0.00  0.00    +0.010 A 
ATOM     15  C   UNL     1       1.345   5.583  -6.737  0.00  0.00    +0.001 A 
ATOM     16  C   UNL     1       0.063   5.866  -7.175  0.00  0.00    +0.000 A 
ATOM     17  C   UNL     1      -1.022   5.190  -6.644  0.00  0.00    +0.001 A 
ATOM     18  C   UNL     1      -0.831   4.228  -5.674  0.00  0.00    +0.010 A 
ENDBRANCH   2  13
BRANCH   6  19
ATOM     19  C   UNL     1       2.023   1.538  -1.106  0.00  0.00    +0.156 C 
BRANCH  19  20
ATOM     20  C   UNL     1       1.167   2.047   0.056  0.00  0.00    +0.118 C 
BRANCH  20  21
ATOM     21  O   UNL     1      -0.063   1.320   0.095  0.00  0.00    -0.392 OA
ATOM     22  H   UNL     1       0.047   0.367   0.218  0.00  0.00    +0.210 HD
ENDBRANCH  20  21
BRANCH  20  23
ATOM     23  C   UNL     1       1.921   1.845   1.372  0.00  0.00    -0.045 C 
BRANCH  23  29
ATOM     24  C   UNL     1       0.912   3.788   2.405  0.00  0.00    -0.079 C 
ATOM     25  C   UNL     1      -0.064   4.240   3.494  0.00  0.00    -0.019 C 
ATOM     26  C   UNL     1       0.496   3.855   4.866  0.00  0.00    -0.004 C 
ATOM     27  C   UNL     1       0.727   2.342   4.908  0.00  0.00    -0.019 C 
ATOM     28  C   UNL     1       1.680   1.945   3.779  0.00  0.00    -0.079 C 
ATOM     29  N   UNL     1       1.073   2.320   2.484  0.00  0.00    +0.381 N 
ATOM     30  H   UNL     1       0.148   1.880   2.410  0.00  0.00    -0.082 HD
ENDBRANCH  23  29
ENDBRANCH  20  23
ENDBRANCH  19  20
ENDBRANCH   6  19
BRANCH   3  31
ATOM     31  C   UNL     1      -0.757   1.061  -5.195  0.00  0.00    +0.156 C 
BRANCH  31  32
ATOM     32  C   UNL     1       0.083   0.486  -6.338  0.00  0.00    +0.118 C 
BRANCH  32  33
ATOM     33  O   UNL     1       0.857  -0.613  -5.855  0.00  0.00    -0.392 OA
ATOM     34  H   UNL     1       0.328  -1.339  -5.497  0.00  0.00    +0.210 HD
ENDBRANCH  32  33
BRANCH  32  35
ATOM     35  C   UNL     1      -0.842   0.006  -7.459  0.00  0.00    -0.045 C 
BRANCH  35  41
ATOM     36  C   UNL     1       0.776   0.501  -9.190  0.00  0.00    -0.079 C 
ATOM     37  C   UNL     1       1.707  -0.131 -10.227  0.00  0.00    -0.019 C 
ATOM     38  C   UNL     1       0.869  -0.862 -11.280  0.00  0.00    -0.004 C 
ATOM     39  C   UNL     1      -0.003  -1.913 -10.588  0.00  0.00    -0.019 C 
ATOM     40  C   UNL     1      -0.884  -1.229  -9.540  0.00  0.00    -0.079 C 
ATOM     41  N   UNL     1      -0.017  -0.566  -8.543  0.00  0.00    +0.381 N 
ATOM     42  H   UNL     1       0.624  -1.261  -8.144  0.00  0.00    -0.082 HD
ENDBRANCH  35  41
ENDBRANCH  32  35
ENDBRANCH  31  32
ENDBRANCH   3  31
TORSDOF 12
