REMARK  Name = ZINC39693561
REMARK  15 active torsions:
REMARK  status: ('A' for Active; 'I' for Inactive)
REMARK    1  A    between atoms: C_1  and  C_2
REMARK    2  A    between atoms: C_2  and  C_3
REMARK    3  A    between atoms: C_2  and  C_4
REMARK    4  A    between atoms: C_4  and  C_6
REMARK    5  A    between atoms: C_4  and  O_32
REMARK    6  A    between atoms: C_10  and  C_19
REMARK    7  A    between atoms: N_21  and  C_22
REMARK    8  A    between atoms: C_22  and  C_23
REMARK    9  A    between atoms: C_23  and  N_24
REMARK   10  A    between atoms: C_25  and  O_27
REMARK   11  A    between atoms: O_27  and  C_28
REMARK   12  A    between atoms: C_28  and  C_29
REMARK   13  A    between atoms: C_28  and  C_30
REMARK   14  A    between atoms: C_28  and  C_31
REMARK   15  A    between atoms: O_32  and  C_33
REMARK                            x       y       z     vdW  Elec       q    Type
REMARK                         _______ _______ _______ _____ _____    ______ ____
ROOT
ATOM      1  C   UNL     1      -2.012  -0.054  -1.132  0.00  0.00    +0.257 C 
ATOM      2  O   UNL     1      -2.987   0.655  -1.003  0.00  0.00    -0.272 OA
ATOM      3  N   UNL     1      -1.669  -0.512  -2.352  0.00  0.00    -0.297 N 
ATOM      4  C   UNL     1      -0.527  -1.387  -2.706  0.00  0.00    +0.121 C 
ATOM      5  C   UNL     1      -1.088  -2.348  -3.778  0.00  0.00    +0.100 C 
ATOM      6  C   UNL     1      -2.282  -1.597  -4.391  0.00  0.00    -0.004 C 
ATOM      7  C   UNL     1      -2.352  -0.258  -3.643  0.00  0.00    +0.115 C 
ATOM      8  C   UNL     1      -3.571  -2.385  -4.172  0.00  0.00    -0.010 C 
ATOM      9  C   UNL     1      -4.734  -1.646  -4.840  0.00  0.00    -0.082 C 
ATOM     10  N   UNL     1      -4.464  -1.501  -6.275  0.00  0.00    +0.379 N 
ATOM     11  C   UNL     1      -3.275  -0.664  -6.479  0.00  0.00    -0.082 C 
ATOM     12  C   UNL     1      -2.050  -1.361  -5.880  0.00  0.00    -0.010 C 
ATOM     13  H   UNL     1      -4.307  -2.411  -6.680  0.00  0.00    -0.086 HD
ATOM     14  H   UNL     1      -5.258  -1.069  -6.723  0.00  0.00    -0.086 HD
ENDROOT
BRANCH   5  15
ATOM     15  C   UNL     1      -0.046  -2.629  -4.829  0.00  0.00    +0.218 C 
ATOM     16  O   UNL     1       0.833  -1.821  -5.043  0.00  0.00    -0.275 OA
ATOM     17  N   UNL     1      -0.090  -3.777  -5.533  0.00  0.00    -0.314 N 
ATOM     18  H   UNL     1      -0.793  -4.424  -5.362  0.00  0.00    +0.149 HD
BRANCH  17  19
ATOM     19  C   UNL     1       0.923  -4.050  -6.555  0.00  0.00    +0.123 C 
BRANCH  19  20
ATOM     20  C   UNL     1       0.645  -5.410  -7.199  0.00  0.00    +0.126 C 
BRANCH  20  21
ATOM     21  N   UNL     1       1.658  -5.683  -8.221  0.00  0.00    -0.280 N 
ATOM     22  C   UNL     1       1.614  -6.831  -8.924  0.00  0.00    +0.401 C 
ATOM     23  O   UNL     1       0.733  -7.641  -8.711  0.00  0.00    -0.226 OA
ATOM     24  H   UNL     1       2.361  -5.036  -8.392  0.00  0.00    +0.152 HD
BRANCH  22  25
ATOM     25  O   UNL     1       2.545  -7.082  -9.864  0.00  0.00    -0.445 OA
BRANCH  25  26
ATOM     26  C   UNL     1       2.437  -8.319 -10.571  0.00  0.00    +0.107 C 
ATOM     27  C   UNL     1       1.093  -8.374 -11.300  0.00  0.00    +0.055 C 
ATOM     28  C   UNL     1       3.574  -8.426 -11.589  0.00  0.00    +0.055 C 
ATOM     29  C   UNL     1       2.528  -9.482  -9.581  0.00  0.00    +0.055 C 
ENDBRANCH  25  26
ENDBRANCH  22  25
ENDBRANCH  20  21
ENDBRANCH  19  20
ENDBRANCH  17  19
ENDBRANCH   5  15
BRANCH   1  30
ATOM     30  C   UNL     1      -1.185  -0.425   0.072  0.00  0.00    +0.261 C 
BRANCH  30  32
ATOM     31  C   UNL     1       0.112   1.708  -0.031  0.00  0.00    +0.011 C 
ATOM     32  C   UNL     1       0.213   0.182  -0.064  0.00  0.00    +0.033 C 
ATOM     33  C   UNL     1       1.091  -0.296   1.095  0.00  0.00    +0.011 C 
ENDBRANCH  30  32
BRANCH  30  34
ATOM     34  O   UNL     1      -1.811   0.079   1.253  0.00  0.00    -0.479 OA
BRANCH  34  35
ATOM     35  C   UNL     1      -1.779  -0.716   2.356  0.00  0.00    +0.122 A 
ATOM     36  C   UNL     1      -2.470  -0.345   3.500  0.00  0.00    +0.045 A 
ATOM     37  C   UNL     1      -2.437  -1.155   4.618  0.00  0.00    +0.004 A 
ATOM     38  C   UNL     1      -1.714  -2.333   4.599  0.00  0.00    +0.000 A 
ATOM     39  C   UNL     1      -1.024  -2.705   3.460  0.00  0.00    +0.004 A 
ATOM     40  C   UNL     1      -1.059  -1.902   2.336  0.00  0.00    +0.045 A 
ENDBRANCH  34  35
ENDBRANCH  30  34
ENDBRANCH   1  30
TORSDOF 10
