REMARK  Name = ZINC32109361
REMARK  12 active torsions:
REMARK  status: ('A' for Active; 'I' for Inactive)
REMARK    1  A    between atoms: C_1  and  C_2
REMARK    2  A    between atoms: C_2  and  O_3
REMARK    3  A    between atoms: O_3  and  C_4
REMARK    4  A    between atoms: C_6  and  C_23
REMARK    5  A    between atoms: C_9  and  O_10
REMARK    6  A    between atoms: O_10  and  C_11
REMARK    7  A    between atoms: C_11  and  C_12
REMARK    8  A    between atoms: C_12  and  O_13
REMARK    9  A    between atoms: O_13  and  C_14
REMARK   10  A    between atoms: C_17  and  O_20
REMARK   11  A    between atoms: O_20  and  C_21
REMARK   12  A    between atoms: C_33  and  C_35
REMARK                            x       y       z     vdW  Elec       q    Type
REMARK                         _______ _______ _______ _____ _____    ______ ____
ROOT
ATOM      1  C   UNL     1       0.169   1.593  -0.308  0.00  0.00    +0.164 A 
ATOM      2  C   UNL     1      -1.071   2.149  -0.062  0.00  0.00    +0.057 A 
ATOM      3  C   UNL     1      -1.244   3.537  -0.158  0.00  0.00    -0.019 A 
ATOM      4  C   UNL     1      -0.159   4.352  -0.513  0.00  0.00    +0.032 A 
ATOM      5  C   UNL     1       1.072   3.787  -0.762  0.00  0.00    +0.087 A 
ATOM      6  C   UNL     1       1.243   2.410  -0.661  0.00  0.00    +0.180 A 
ATOM      7 CL   UNL     1       2.415   4.795  -1.203  0.00  0.00    -0.080 Cl
ENDROOT
BRANCH   3   8
ATOM      8  C   UNL     1      -2.554   4.134   0.108  0.00  0.00    +0.024 C 
ATOM      9  C   UNL     1      -2.641   5.337   0.773  0.00  0.00    +0.081 C 
ATOM     10  C   UNL     1      -1.448   5.979   1.393  0.00  0.00    +0.152 C 
ATOM     11  N   UNL     1      -0.459   5.302   1.912  0.00  0.00    -0.283 NA
ATOM     12  N   UNL     1      -1.491   7.390   1.365  0.00  0.00    -0.152 N 
ATOM     13  C   UNL     1      -2.727   7.987   1.240  0.00  0.00    +0.181 C 
ATOM     14  N   UNL     1      -3.886   7.400   1.073  0.00  0.00    -0.152 NA
ATOM     15  C   UNL     1      -3.927   6.066   0.906  0.00  0.00    +0.273 C 
ATOM     16  O   UNL     1      -4.993   5.473   0.869  0.00  0.00    -0.268 OA
ATOM     17  S   UNL     1      -2.318   9.710   1.324  0.00  0.00    -0.038 S 
ATOM     18  C   UNL     1      -0.547   9.524   1.479  0.00  0.00    +0.097 C 
ATOM     19  N   UNL     1      -0.403   8.230   1.469  0.00  0.00    -0.170 NA
ATOM     20  C   UNL     1       0.511  10.592   1.592  0.00  0.00    +0.075 C 
ATOM     21  H   UNL     1       0.397   5.832   2.357  0.00  0.00    +0.188 HD
ENDBRANCH   3   8
BRANCH   1  22
ATOM     22  O   UNL     1       0.341   0.248  -0.211  0.00  0.00    -0.489 OA
BRANCH  22  24
ATOM     23  C   UNL     1      -0.416  -2.007   0.212  0.00  0.00    +0.048 C 
ATOM     24  C   UNL     1      -0.802  -0.528   0.155  0.00  0.00    +0.226 C 
ENDBRANCH  22  24
ENDBRANCH   1  22
BRANCH   6  25
ATOM     25  O   UNL     1       2.459   1.859  -0.908  0.00  0.00    -0.483 OA
BRANCH  25  26
ATOM     26  C   UNL     1       2.734   1.468  -2.254  0.00  0.00    +0.270 C 
BRANCH  26  27
ATOM     27  C   UNL     1       4.141   0.873  -2.336  0.00  0.00    +0.270 C 
BRANCH  27  28
ATOM     28  O   UNL     1       4.192  -0.335  -1.573  0.00  0.00    -0.489 OA
BRANCH  28  29
ATOM     29  C   UNL     1       5.381  -0.995  -1.541  0.00  0.00    +0.121 A 
ATOM     30  C   UNL     1       6.472  -0.492  -2.233  0.00  0.00    +0.049 A 
ATOM     31  C   UNL     1       7.681  -1.159  -2.197  0.00  0.00    +0.049 A 
ATOM     32  C   UNL     1       7.801  -2.338  -1.475  0.00  0.00    +0.120 A 
ATOM     33  C   UNL     1       6.708  -2.843  -0.786  0.00  0.00    +0.049 A 
ATOM     34  C   UNL     1       5.500  -2.173  -0.819  0.00  0.00    +0.049 A 
BRANCH  32  35
ATOM     35  O   UNL     1       8.989  -2.997  -1.443  0.00  0.00    -0.495 OA
ATOM     36  C   UNL     1      10.072  -2.420  -2.175  0.00  0.00    +0.277 C 
ENDBRANCH  32  35
ENDBRANCH  28  29
ENDBRANCH  27  28
ENDBRANCH  26  27
ENDBRANCH  25  26
ENDBRANCH   6  25
TORSDOF 9
