REMARK  Name = ZINC19941614
REMARK  8 active torsions:
REMARK  status: ('A' for Active; 'I' for Inactive)
REMARK    1  A    between atoms: C_1  and  C_2
REMARK    2  A    between atoms: C_4  and  C_41
REMARK    3  A    between atoms: C_9  and  C_14
REMARK    4  A    between atoms: C_14  and  C_16
REMARK    5  A    between atoms: C_14  and  N_29
REMARK    6  A    between atoms: N_20  and  C_21
REMARK    7  A    between atoms: C_21  and  C_22
REMARK    8  A    between atoms: N_32  and  C_35
REMARK                            x       y       z     vdW  Elec       q    Type
REMARK                         _______ _______ _______ _____ _____    ______ ____
ROOT
ATOM      1  C   UNL     1      -1.332   7.432   0.057  0.00  0.00    +0.162 C 
ENDROOT
BRANCH   1  10
ATOM      2  C   UNL     1       2.491   1.029  -0.016  0.00  0.00    +0.044 C 
ATOM      3  C   UNL     1       1.185   1.779   0.000  0.00  0.00    -0.050 A 
ATOM      4  C   UNL     1      -0.013   1.076   0.008  0.00  0.00    +0.008 A 
ATOM      5  C   UNL     1      -1.219   1.741   0.017  0.00  0.00    -0.026 A 
ATOM      6  C   UNL     1      -1.240   3.132   0.031  0.00  0.00    +0.052 A 
ATOM      7  C   UNL     1      -0.025   3.842   0.023  0.00  0.00    -0.001 A 
ATOM      8  C   UNL     1       1.188   3.145   0.008  0.00  0.00    +0.013 A 
ATOM      9  C   UNL     1      -0.057   5.306   0.033  0.00  0.00    +0.021 A 
ATOM     10  C   UNL     1      -1.263   5.926   0.048  0.00  0.00    +0.042 A 
ATOM     11  C   UNL     1      -2.453   5.168   0.055  0.00  0.00    +0.254 A 
ATOM     12  O   UNL     1      -3.526   5.746   0.068  0.00  0.00    -0.268 OA
ATOM     13  N   UNL     1      -2.433   3.824   0.047  0.00  0.00    -0.322 N 
ATOM     14  H   UNL     1      -3.386   3.275   0.053  0.00  0.00    +0.169 HD
ATOM     15  C   UNL     1      -2.511   0.965   0.019  0.00  0.00    +0.046 C 
ENDBRANCH   1  10
BRANCH   1  16
ATOM     16  N   UNL     1      -2.159   7.891  -1.067  0.00  0.00    -0.292 NA
ATOM     17  C   UNL     1      -1.643   7.378  -2.344  0.00  0.00    +0.067 C 
ATOM     18  C   UNL     1      -2.575   7.811  -3.478  0.00  0.00    -0.063 C 
ATOM     19  N   UNL     1      -2.665   9.278  -3.501  0.00  0.00    +0.383 N 
ATOM     20  C   UNL     1      -3.180   9.791  -2.224  0.00  0.00    -0.063 C 
ATOM     21  C   UNL     1      -2.249   9.358  -1.090  0.00  0.00    +0.067 C 
ATOM     22  H   UNL     1      -1.651   9.678  -3.644  0.00  0.00    -0.081 HD
BRANCH  19  23
ATOM     23  C   UNL     1      -3.492   9.737  -4.625  0.00  0.00    -0.068 C 
ATOM     24  C   UNL     1      -4.927   9.239  -4.439  0.00  0.00    -0.015 C 
ATOM     25  C   UNL     1      -5.788   9.718  -5.610  0.00  0.00    -0.002 C 
ATOM     26  C   UNL     1      -5.222   9.165  -6.919  0.00  0.00    -0.000 C 
ATOM     27  C   UNL     1      -3.787   9.662  -7.105  0.00  0.00    -0.002 C 
ATOM     28  C   UNL     1      -2.926   9.184  -5.934  0.00  0.00    -0.015 C 
ENDBRANCH  19  23
ENDBRANCH   1  16
BRANCH   1  29
ATOM     29  C   UNL     1      -1.942   7.899   1.353  0.00  0.00    +0.173 A 
ATOM     30  N   UNL     1      -3.209   7.848   1.685  0.00  0.00    -0.111 NA
ATOM     31  N   UNL     1      -3.330   8.339   2.870  0.00  0.00    -0.023 NA
ATOM     32  N   UNL     1      -2.175   8.709   3.300  0.00  0.00    -0.044 NA
ATOM     33  N   UNL     1      -1.292   8.454   2.393  0.00  0.00    -0.223 N 
BRANCH  33  34
ATOM     34  C   UNL     1       0.146   8.719   2.480  0.00  0.00    +0.182 C 
BRANCH  34  35
ATOM     35  C   UNL     1       0.435  10.100   1.948  0.00  0.00    -0.026 A 
ATOM     36  C   UNL     1       0.722  10.278   0.608  0.00  0.00    +0.008 A 
ATOM     37  C   UNL     1       0.983  11.544   0.119  0.00  0.00    +0.038 A 
ATOM     38  C   UNL     1       0.966  12.633   0.973  0.00  0.00    +0.123 A 
ATOM     39  C   UNL     1       0.683  12.453   2.317  0.00  0.00    +0.038 A 
ATOM     40  C   UNL     1       0.417  11.186   2.803  0.00  0.00    +0.008 A 
ATOM     41  F   UNL     1       1.225  13.870   0.497  0.00  0.00    -0.205 F 
ENDBRANCH  34  35
ENDBRANCH  33  34
ENDBRANCH   1  29
TORSDOF 6
