REMARK  Name = ZINC20239078
REMARK  9 active torsions:
REMARK  status: ('A' for Active; 'I' for Inactive)
REMARK    1  A    between atoms: C_1  and  C_2
REMARK    2  A    between atoms: C_2  and  O_3
REMARK    3  A    between atoms: O_3  and  C_4
REMARK    4  A    between atoms: C_7  and  C_13
REMARK    5  A    between atoms: C_8  and  N_10
REMARK    6  A    between atoms: C_16  and  C_18
REMARK    7  A    between atoms: C_28  and  S_30
REMARK    8  A    between atoms: S_30  and  C_33
REMARK    9  A    between atoms: C_33  and  C_34
REMARK                            x       y       z     vdW  Elec       q    Type
REMARK                         _______ _______ _______ _____ _____    ______ ____
ROOT
ATOM      1  C   UNL     1      -3.288  -9.059   2.187  0.00  0.00    +0.063 C 
ATOM      2  C   UNL     1      -2.683 -10.260   2.529  0.00  0.00    +0.084 C 
ATOM      3  C   UNL     1      -1.392 -10.686   1.926  0.00  0.00    +0.153 C 
ATOM      4  N   UNL     1      -0.450  -9.846   1.579  0.00  0.00    -0.283 NA
ATOM      5  N   UNL     1      -1.282 -12.083   1.766  0.00  0.00    -0.150 N 
ATOM      6  C   UNL     1      -2.062 -12.880   2.578  0.00  0.00    +0.182 C 
ATOM      7  N   UNL     1      -2.978 -12.494   3.429  0.00  0.00    -0.152 NA
ATOM      8  C   UNL     1      -3.286 -11.182   3.518  0.00  0.00    +0.273 C 
ATOM      9  O   UNL     1      -4.040 -10.768   4.384  0.00  0.00    -0.268 OA
ATOM     10  S   UNL     1      -1.512 -14.508   2.141  0.00  0.00    -0.015 S 
ATOM     11  C   UNL     1      -0.368 -14.030   0.852  0.00  0.00    +0.235 C 
ATOM     12  N   UNL     1      -0.452 -12.731   0.876  0.00  0.00    -0.145 NA
ATOM     13  H   UNL     1       0.374 -10.177   1.189  0.00  0.00    +0.188 HD
ENDROOT
BRANCH   1  17
ATOM     14  C   UNL     1      -2.312  -6.580  -0.169  0.00  0.00    +0.138 A 
ATOM     15  C   UNL     1      -1.755  -7.693  -0.767  0.00  0.00    +0.050 A 
ATOM     16  C   UNL     1      -2.051  -8.784   0.047  0.00  0.00    +0.050 A 
ATOM     17  C   UNL     1      -2.783  -8.297   1.121  0.00  0.00    +0.129 A 
ATOM     18  O   UNL     1      -2.920  -6.962   0.967  0.00  0.00    -0.455 OA
BRANCH  14  22
ATOM     19  C   UNL     1      -2.119  -2.611  -1.663  0.00  0.00    +0.123 A 
ATOM     20  C   UNL     1      -0.947  -3.313  -1.409  0.00  0.00    +0.046 A 
ATOM     21  C   UNL     1      -1.005  -4.601  -0.924  0.00  0.00    +0.017 A 
ATOM     22  C   UNL     1      -2.245  -5.202  -0.688  0.00  0.00    +0.048 A 
ATOM     23  C   UNL     1      -3.421  -4.491  -0.944  0.00  0.00    +0.140 A 
ATOM     24  C   UNL     1      -3.354  -3.201  -1.424  0.00  0.00    +0.079 A 
BRANCH  23  25
ATOM     25  N   UNL     1      -4.738  -5.122  -0.696  0.00  0.00    +0.057 N 
ATOM     26  O   UNL     1      -5.752  -4.478  -0.829  0.00  0.00    -0.126 OA
ATOM     27  O   UNL     1      -4.799  -6.282  -0.360  0.00  0.00    -0.126 OA
ENDBRANCH  23  25
BRANCH  19  28
ATOM     28  O   UNL     1      -2.058  -1.341  -2.141  0.00  0.00    -0.492 OA
BRANCH  28  30
ATOM     29  C   UNL     1      -0.888   0.633  -2.900  0.00  0.00    +0.048 C 
ATOM     30  C   UNL     1      -0.757  -0.794  -2.365  0.00  0.00    +0.225 C 
ENDBRANCH  28  30
ENDBRANCH  19  28
ENDBRANCH  14  22
ENDBRANCH   1  17
BRANCH  11  31
ATOM     31  S   UNL     1       0.621 -15.055  -0.184  0.00  0.00    +0.022 S 
ATOM     32  O   UNL     1      -0.135 -16.248  -0.342  0.00  0.00    -0.167 OA
ATOM     33  O   UNL     1       0.933 -14.242  -1.307  0.00  0.00    -0.167 OA
BRANCH  31  34
ATOM     34  C   UNL     1       2.120 -15.388   0.782  0.00  0.00    +0.171 C 
ATOM     35  C   UNL     1       3.062 -16.280  -0.028  0.00  0.00    +0.028 C 
ENDBRANCH  31  34
ENDBRANCH  11  31
TORSDOF 7
