REMARK  Name = ZINC11607439
REMARK  4 active torsions:
REMARK  status: ('A' for Active; 'I' for Inactive)
REMARK    1  A    between atoms: C_4  and  C_7
REMARK    2  A    between atoms: C_7  and  C_9
REMARK    3  A    between atoms: N_17  and  C_18
REMARK    4  A    between atoms: C_18  and  C_19
REMARK                            x       y       z     vdW  Elec       q    Type
REMARK                         _______ _______ _______ _____ _____    ______ ____
ROOT
ATOM      1  C   UNL     1       2.265   0.160   1.054  0.00  0.00    +0.063 C 
ATOM      2  C   UNL     1       0.882  -0.487   1.165  0.00  0.00    +0.030 C 
ATOM      3  C   UNL     1       0.002  -0.004   0.008  0.00  0.00    +0.110 C 
ATOM      4  N   UNL     1      -0.018   1.465   0.011  0.00  0.00    -0.286 N 
ATOM      5  C   UNL     1       1.261   2.189  -0.003  0.00  0.00    +0.110 C 
ATOM      6  C   UNL     1       2.127   1.681   1.154  0.00  0.00    +0.030 C 
ATOM      7  C   UNL     1      -1.187   2.136   0.019  0.00  0.00    +0.302 C 
ATOM      8  O   UNL     1      -1.191   3.348   0.117  0.00  0.00    -0.253 OA
ATOM      9  N   UNL     1      -2.350   1.463  -0.081  0.00  0.00    -0.295 N 
ATOM     10  H   UNL     1      -2.351   0.493  -0.086  0.00  0.00    +0.151 HD
ENDROOT
BRANCH   1  11
ATOM     11  C   UNL     1       3.144  -0.339   2.171  0.00  0.00    +0.166 C 
ATOM     12  O   UNL     1       2.646  -0.743   3.200  0.00  0.00    -0.292 OA
BRANCH  11  16
ATOM     13  C   UNL     1       7.361  -0.331   1.715  0.00  0.00    +0.000 A 
ATOM     14  C   UNL     1       6.797  -0.792   2.892  0.00  0.00    +0.001 A 
ATOM     15  C   UNL     1       5.427  -0.798   3.047  0.00  0.00    +0.011 A 
ATOM     16  C   UNL     1       4.607  -0.336   2.013  0.00  0.00    +0.018 A 
ATOM     17  C   UNL     1       5.185   0.124   0.825  0.00  0.00    +0.011 A 
ATOM     18  C   UNL     1       6.557   0.129   0.687  0.00  0.00    +0.001 A 
ENDBRANCH  11  16
ENDBRANCH   1  11
BRANCH   9  19
ATOM     19  C   UNL     1      -3.614   2.197  -0.181  0.00  0.00    +0.142 C 
BRANCH  19  20
ATOM     20  C   UNL     1      -4.757   1.220  -0.281  0.00  0.00    -0.012 A 
ATOM     21  C   UNL     1      -5.322   0.940  -1.511  0.00  0.00    +0.006 A 
ATOM     22  C   UNL     1      -6.367   0.040  -1.603  0.00  0.00    +0.000 A 
ATOM     23  C   UNL     1      -6.854  -0.574  -0.464  0.00  0.00    +0.001 A 
ATOM     24  C   UNL     1      -6.293  -0.292   0.767  0.00  0.00    +0.020 A 
ATOM     25  C   UNL     1      -5.244   0.606   0.859  0.00  0.00    +0.046 A 
ATOM     26 CL   UNL     1      -4.539   0.962   2.406  0.00  0.00    -0.083 Cl
ENDBRANCH  19  20
ENDBRANCH   9  19
TORSDOF 4
