REMARK  Name = ZINC09350480
REMARK  15 active torsions:
REMARK  status: ('A' for Active; 'I' for Inactive)
REMARK    1  A    between atoms: C_1  and  C_2
REMARK    2  A    between atoms: C_2  and  O_3
REMARK    3  A    between atoms: O_3  and  C_4
REMARK    4  A    between atoms: C_6  and  C_14
REMARK    5  A    between atoms: C_9  and  O_10
REMARK    6  A    between atoms: O_10  and  C_11
REMARK    7  A    between atoms: C_11  and  C_12
REMARK    8  A    between atoms: C_17  and  C_18
REMARK    9  A    between atoms: C_17  and  O_29
REMARK   10  A    between atoms: C_25  and  C_28
REMARK   11  A    between atoms: N_34  and  C_35
REMARK   12  A    between atoms: C_35  and  C_36
REMARK   13  A    between atoms: C_36  and  N_71
REMARK   14  A    between atoms: C_37  and  N_71
REMARK   15  A    between atoms: C_38  and  N_71
REMARK                            x       y       z     vdW  Elec       q    Type
REMARK                         _______ _______ _______ _____ _____    ______ ____
ROOT
ATOM      1  C   UNL     1      -2.733   4.162   0.093  0.00  0.00    +0.144 C 
ATOM      2  C   UNL     1      -3.308   4.163  -1.305  0.00  0.00    +0.071 C 
ATOM      3  C   UNL     1      -2.627   4.409  -2.482  0.00  0.00    +0.133 C 
ATOM      4  C   UNL     1      -4.672   3.865  -1.166  0.00  0.00    +0.249 C 
ATOM      5  O   UNL     1      -5.480   3.775  -2.073  0.00  0.00    -0.282 OA
ATOM      6  C   UNL     1      -4.962   3.679   0.282  0.00  0.00    +0.288 C 
ATOM      7  O   UNL     1      -6.052   3.411   0.744  0.00  0.00    -0.266 OA
ATOM      8  N   UNL     1      -3.841   3.852   1.002  0.00  0.00    -0.285 N 
ENDROOT
BRANCH   3   9
ATOM      9  C   UNL     1      -3.303   4.225  -3.775  0.00  0.00    +0.017 A 
ATOM     10  C   UNL     1      -3.973   3.029  -4.058  0.00  0.00    +0.015 A 
ATOM     11  C   UNL     1      -4.612   2.863  -5.263  0.00  0.00    +0.046 A 
ATOM     12  C   UNL     1      -4.590   3.879  -6.221  0.00  0.00    +0.124 A 
ATOM     13  C   UNL     1      -3.911   5.062  -5.940  0.00  0.00    -0.002 A 
ATOM     14  C   UNL     1      -3.277   5.244  -4.737  0.00  0.00    +0.019 A 
ATOM     15  C   UNL     1      -4.042   5.950  -7.163  0.00  0.00    +0.083 C 
ATOM     16  C   UNL     1      -4.516   4.944  -8.239  0.00  0.00    +0.175 C 
ATOM     17  O   UNL     1      -5.155   3.920  -7.458  0.00  0.00    -0.488 OA
ATOM     18  C   UNL     1      -3.324   4.373  -9.009  0.00  0.00    +0.052 C 
ENDBRANCH   3   9
BRANCH   1  21
ATOM     19  C   UNL     1       0.660   2.512   0.279  0.00  0.00    +0.162 A 
ATOM     20  C   UNL     1      -0.328   3.478   0.172  0.00  0.00    +0.055 A 
ATOM     21  C   UNL     1      -1.660   3.110   0.209  0.00  0.00    -0.019 A 
ATOM     22  C   UNL     1      -2.010   1.780   0.347  0.00  0.00    +0.009 A 
ATOM     23  C   UNL     1      -1.030   0.812   0.460  0.00  0.00    +0.050 A 
ATOM     24  C   UNL     1       0.308   1.173   0.424  0.00  0.00    +0.162 A 
BRANCH  19  25
ATOM     25  O   UNL     1       1.971   2.872   0.243  0.00  0.00    -0.489 OA
BRANCH  25  27
ATOM     26  C   UNL     1       3.774   4.472   0.074  0.00  0.00    +0.048 C 
ATOM     27  C   UNL     1       2.258   4.263   0.093  0.00  0.00    +0.226 C 
ENDBRANCH  25  27
ENDBRANCH  19  25
BRANCH  24  28
ATOM     28  O   UNL     1       1.274   0.222   0.529  0.00  0.00    -0.484 OA
BRANCH  28  29
ATOM     29  C   UNL     1       0.838  -1.131   0.674  0.00  0.00    +0.256 C 
BRANCH  29  30
ATOM     30  C   UNL     1       2.039  -2.037   0.775  0.00  0.00    +0.006 C 
ATOM     31  C   UNL     1       2.074  -2.979   1.684  0.00  0.00    +0.007 C 
ENDBRANCH  29  30
ENDBRANCH  28  29
ENDBRANCH  24  28
ENDBRANCH   1  21
BRANCH   3  32
ATOM     32  O   UNL     1      -1.340   4.818  -2.445  0.00  0.00    -0.506 OA
ATOM     33  H   UNL     1      -1.005   4.948  -3.377  0.00  0.00    +0.292 HD
ENDBRANCH   3  32
BRANCH   8  34
ATOM     34  C   UNL     1      -3.741   3.747   2.460  0.00  0.00    +0.090 C 
BRANCH  34  35
ATOM     35  C   UNL     1      -4.002   5.118   3.088  0.00  0.00    -0.060 C 
BRANCH  35  38
ATOM     36  C   UNL     1      -2.528   4.695   4.963  0.00  0.00    -0.097 C 
ATOM     37  C   UNL     1      -4.375   6.243   5.199  0.00  0.00    -0.097 C 
ATOM     38  N   UNL     1      -3.919   4.992   4.559  0.00  0.00    +0.377 N 
ATOM     39  H   UNL     1      -4.526   4.221   4.862  0.00  0.00    -0.083 HD
ENDBRANCH  35  38
ENDBRANCH  34  35
ENDBRANCH   8  34
TORSDOF 11
