REMARK  Name = ZINC36226199
REMARK  5 active torsions:
REMARK  status: ('A' for Active; 'I' for Inactive)
REMARK    1  A    between atoms: C_3  and  O_18
REMARK    2  A    between atoms: C_6  and  C_7
REMARK    3  A    between atoms: C_7  and  C_8
REMARK    4  A    between atoms: C_8  and  N_9
REMARK    5  A    between atoms: C_11  and  N_17
REMARK                            x       y       z     vdW  Elec       q    Type
REMARK                         _______ _______ _______ _____ _____    ______ ____
ROOT
ATOM      1  N   UNL     1      -3.005  -1.775  -1.420  0.00  0.00    -0.327 N 
ATOM      2  C   UNL     1      -3.616  -2.125  -2.623  0.00  0.00    +0.140 A 
ATOM      3  C   UNL     1      -4.820  -2.834  -2.608  0.00  0.00    +0.066 A 
ATOM      4  C   UNL     1      -5.415  -3.174  -3.816  0.00  0.00    +0.047 A 
ATOM      5  C   UNL     1      -4.786  -2.793  -4.994  0.00  0.00    +0.061 A 
ATOM      6  C   UNL     1      -3.597  -2.094  -4.931  0.00  0.00    +0.133 A 
ATOM      7  N   UNL     1      -3.055  -1.778  -3.769  0.00  0.00    -0.237 NA
ATOM      8 CL   UNL     1      -5.486  -3.193  -6.531  0.00  0.00    -0.082 Cl
ATOM      9  H   UNL     1      -3.414  -2.028  -0.578  0.00  0.00    +0.148 HD
ENDROOT
BRANCH   3  10
ATOM     10  N   UNL     1      -5.417  -3.196  -1.395  0.00  0.00    -0.355 N 
ATOM     11  H   UNL     1      -4.995  -2.955  -0.555  0.00  0.00    +0.142 HD
ATOM     12  H   UNL     1      -6.253  -3.688  -1.393  0.00  0.00    +0.142 HD
ENDBRANCH   3  10
BRANCH   1  13
ATOM     13  C   UNL     1      -1.746  -1.027  -1.429  0.00  0.00    +0.107 C 
BRANCH  13  14
ATOM     14  C   UNL     1      -1.293  -0.774   0.011  0.00  0.00    +0.054 C 
BRANCH  14  20
ATOM     15  C   UNL     1      -0.017   1.378   0.010  0.00  0.00    +0.007 A 
ATOM     16  C   UNL     1       1.169   2.087   0.002  0.00  0.00    +0.045 A 
ATOM     17  C   UNL     1       2.380   1.409  -0.013  0.00  0.00    +0.117 A 
ATOM     18  C   UNL     1       2.396   0.022  -0.021  0.00  0.00    +0.045 A 
ATOM     19  C   UNL     1       1.207  -0.681  -0.013  0.00  0.00    +0.007 A 
ATOM     20  C   UNL     1       0.002  -0.004   0.002  0.00  0.00    -0.046 A 
BRANCH  17  21
ATOM     21  O   UNL     1       3.548   2.104  -0.021  0.00  0.00    -0.507 OA
ATOM     22  H   UNL     1       3.895   2.300   0.860  0.00  0.00    +0.292 HD
ENDBRANCH  17  21
ENDBRANCH  14  20
ENDBRANCH  13  14
ENDBRANCH   1  13
TORSDOF 5
