REMARK  Name = ZINC67618801
REMARK  4 active torsions:
REMARK  status: ('A' for Active; 'I' for Inactive)
REMARK    1  A    between atoms: C_4  and  C_7
REMARK    2  A    between atoms: C_10  and  N_12
REMARK    3  A    between atoms: C_21  and  C_23
REMARK    4  A    between atoms: C_28  and  O_29
REMARK                            x       y       z     vdW  Elec       q    Type
REMARK                         _______ _______ _______ _____ _____    ______ ____
ROOT
ATOM      1  N   UNL     1       5.377  -1.688   1.613  0.00  0.00    -0.296 N 
ATOM      2  C   UNL     1       5.652  -2.061   2.879  0.00  0.00    +0.303 C 
ATOM      3  O   UNL     1       4.748  -2.210   3.679  0.00  0.00    -0.253 OA
ATOM      4  N   UNL     1       6.928  -2.269   3.258  0.00  0.00    -0.283 N 
ATOM      5  C   UNL     1       8.038  -1.974   2.341  0.00  0.00    +0.128 C 
ATOM      6  C   UNL     1       9.005  -1.008   3.035  0.00  0.00    +0.127 C 
ATOM      7  N   UNL     1       9.312  -1.532   4.374  0.00  0.00    -0.294 N 
ATOM      8  C   UNL     1       8.203  -1.827   5.291  0.00  0.00    +0.127 C 
ATOM      9  C   UNL     1       7.236  -2.788   4.598  0.00  0.00    +0.128 C 
ATOM     10  C   UNL     1      10.589  -1.740   4.753  0.00  0.00    +0.250 C 
ATOM     11  O   UNL     1      10.828  -2.270   5.820  0.00  0.00    -0.270 OA
ATOM     12  H   UNL     1       6.100  -1.499   0.995  0.00  0.00    +0.151 HD
ENDROOT
BRANCH  10  13
ATOM     13  C   UNL     1      11.697  -1.323   3.872  0.00  0.00    +0.078 A 
ATOM     14  C   UNL     1      11.771  -0.007   3.411  0.00  0.00    +0.017 A 
ATOM     15  C   UNL     1      12.809   0.376   2.589  0.00  0.00    +0.001 A 
ATOM     16  C   UNL     1      13.780  -0.539   2.217  0.00  0.00    +0.004 A 
ATOM     17  C   UNL     1      13.719  -1.843   2.666  0.00  0.00    +0.046 A 
ATOM     18  C   UNL     1      12.685  -2.245   3.498  0.00  0.00    +0.129 A 
BRANCH  18  19
ATOM     19  O   UNL     1      12.626  -3.524   3.944  0.00  0.00    -0.506 OA
ATOM     20  H   UNL     1      12.132  -4.120   3.365  0.00  0.00    +0.292 HD
ENDBRANCH  18  19
ENDBRANCH  10  13
BRANCH   1  23
ATOM     21  C   UNL     1       3.695  -0.626   0.001  0.00  0.00    +0.041 C 
ATOM     22  C   UNL     1       3.629  -2.141  -0.203  0.00  0.00    +0.033 C 
ATOM     23  C   UNL     1       3.985  -1.568   1.171  0.00  0.00    +0.082 C 
BRANCH  21  27
ATOM     24  C   UNL     1       0.000   1.517   0.065  0.00  0.00    +0.000 A 
ATOM     25  C   UNL     1       1.198   2.206   0.044  0.00  0.00    +0.000 A 
ATOM     26  C   UNL     1       2.394   1.512   0.024  0.00  0.00    +0.004 A 
ATOM     27  C   UNL     1       2.391   0.130   0.024  0.00  0.00    -0.042 A 
ATOM     28  C   UNL     1       1.193  -0.559   0.046  0.00  0.00    +0.004 A 
ATOM     29  C   UNL     1      -0.003   0.135   0.065  0.00  0.00    +0.000 A 
ENDBRANCH  21  27
ENDBRANCH   1  23
TORSDOF 4
