REMARK  Name = ZINC00660011
REMARK  6 active torsions:
REMARK  status: ('A' for Active; 'I' for Inactive)
REMARK    1  A    between atoms: C_1  and  C_2
REMARK    2  A    between atoms: C_5  and  N_8
REMARK    3  A    between atoms: C_11  and  C_13
REMARK    4  A    between atoms: C_14  and  C_22
REMARK    5  A    between atoms: C_16  and  C_20
REMARK    6  A    between atoms: C_17  and  N_19
REMARK                            x       y       z     vdW  Elec       q    Type
REMARK                         _______ _______ _______ _____ _____    ______ ____
ROOT
ATOM      1  N   UNL     1      -2.458   3.824   0.045  0.00  0.00    -0.200 N 
ATOM      2  C   UNL     1      -3.595   3.442  -0.577  0.00  0.00    +0.230 A 
ATOM      3  C   UNL     1      -4.548   4.384  -0.307  0.00  0.00    +0.050 A 
ATOM      4  C   UNL     1      -3.971   5.364   0.489  0.00  0.00    +0.068 A 
ATOM      5  N   UNL     1      -2.719   5.036   0.704  0.00  0.00    -0.168 NA
ATOM      6  C   UNL     1      -4.664   6.595   1.016  0.00  0.00    +0.068 C 
ATOM      7  C   UNL     1      -5.957   4.289  -0.834  0.00  0.00    +0.103 C 
ATOM      8  C   UNL     1      -5.996   3.203  -1.881  0.00  0.00    +0.098 C 
ATOM      9  C   UNL     1      -4.980   2.330  -2.058  0.00  0.00    +0.200 C 
ATOM     10  O   UNL     1      -3.843   2.343  -1.332  0.00  0.00    -0.423 OA
ENDROOT
BRANCH   7  11
ATOM     11  C   UNL     1      -6.898   3.945   0.291  0.00  0.00    -0.012 A 
ATOM     12  C   UNL     1      -6.729   2.768   0.997  0.00  0.00    +0.010 A 
ATOM     13  C   UNL     1      -7.590   2.448   2.030  0.00  0.00    +0.050 A 
ATOM     14  C   UNL     1      -8.626   3.306   2.361  0.00  0.00    +0.168 A 
ATOM     15  C   UNL     1      -8.798   4.491   1.650  0.00  0.00    +0.185 A 
ATOM     16  C   UNL     1      -7.927   4.809   0.619  0.00  0.00    +0.090 A 
ATOM     17 CL   UNL     1      -8.132   6.289  -0.265  0.00  0.00    -0.079 Cl
ATOM     18  O   UNL     1      -9.876   5.154   2.162  0.00  0.00    -0.451 OA
ATOM     19  C   UNL     1     -10.113   4.563   3.453  0.00  0.00    +0.466 C 
ATOM     20  O   UNL     1      -9.597   3.226   3.317  0.00  0.00    -0.453 OA
ENDBRANCH   7  11
BRANCH   1  25
ATOM     21  C   UNL     1       2.490   1.045  -0.016  0.00  0.00    +0.044 C 
ATOM     22  C   UNL     1       1.176   1.783   0.000  0.00  0.00    -0.050 A 
ATOM     23  C   UNL     1      -0.013   1.076   0.008  0.00  0.00    +0.005 A 
ATOM     24  C   UNL     1      -1.218   1.749   0.017  0.00  0.00    +0.028 A 
ATOM     25  C   UNL     1      -1.236   3.138   0.030  0.00  0.00    +0.069 A 
ATOM     26  C   UNL     1      -0.041   3.845   0.023  0.00  0.00    +0.028 A 
ATOM     27  C   UNL     1       1.161   3.165   0.008  0.00  0.00    +0.005 A 
ENDBRANCH   1  25
BRANCH   9  28
ATOM     28  N   UNL     1      -5.112   1.375  -3.035  0.00  0.00    -0.328 N 
ATOM     29  H   UNL     1      -5.918   1.340  -3.574  0.00  0.00    +0.145 HD
ATOM     30  H   UNL     1      -4.399   0.734  -3.186  0.00  0.00    +0.145 HD
ENDBRANCH   9  28
BRANCH   8  31
ATOM     31  C   UNL     1      -7.153   3.094  -2.717  0.00  0.00    +0.101 C 
ATOM     32  N   UNL     1      -8.071   3.007  -3.381  0.00  0.00    -0.191 NA
ENDBRANCH   8  31
TORSDOF 4
