REMARK  Name = ZINC14541986
REMARK  16 active torsions:
REMARK  status: ('A' for Active; 'I' for Inactive)
REMARK    1  A    between atoms: C_1  and  C_2
REMARK    2  A    between atoms: C_2  and  N_3
REMARK    3  A    between atoms: N_3  and  C_4
REMARK    4  A    between atoms: C_4  and  C_5
REMARK    5  A    between atoms: C_6  and  C_8
REMARK    6  A    between atoms: C_8  and  O_9
REMARK    7  A    between atoms: O_9  and  C_10
REMARK    8  A    between atoms: N_16  and  C_18
REMARK    9  A    between atoms: C_18  and  C_19
REMARK   10  A    between atoms: C_19  and  C_20
REMARK   11  A    between atoms: C_26  and  C_27
REMARK   12  A    between atoms: C_26  and  N_76
REMARK   13  A    between atoms: C_28  and  C_29
REMARK   14  A    between atoms: C_32  and  O_37
REMARK   15  A    between atoms: C_33  and  O_35
REMARK   16  A    between atoms: O_35  and  C_36
REMARK                            x       y       z     vdW  Elec       q    Type
REMARK                         _______ _______ _______ _____ _____    ______ ____
ROOT
ATOM      1  C   UNL     1       7.992  -1.186   6.121  0.00  0.00    +0.120 C 
ATOM      2  C   UNL     1       6.832  -1.992   5.569  0.00  0.00    -0.044 C 
ATOM      3  C   UNL     1       5.120  -1.250   7.130  0.00  0.00    +0.019 C 
ATOM      4  C   UNL     1       5.720   0.003   7.731  0.00  0.00    +0.199 C 
ATOM      5  O   UNL     1       5.007   0.948   7.993  0.00  0.00    -0.278 OA
ATOM      6  N   UNL     1       7.032   0.071   7.974  0.00  0.00    -0.300 N 
ATOM      7  C   UNL     1       7.899  -1.074   7.645  0.00  0.00    +0.137 C 
ATOM      8  N   UNL     1       5.530  -1.309   5.705  0.00  0.00    +0.389 N 
ATOM      9  H   UNL     1       5.620  -0.350   5.349  0.00  0.00    -0.081 HD
ENDROOT
BRANCH   1  10
ATOM     10  O   UNL     1       9.219  -1.831   5.771  0.00  0.00    -0.368 OA
BRANCH  10  11
ATOM     11  C   UNL     1      10.314  -0.932   5.580  0.00  0.00    +0.256 C 
BRANCH  11  13
ATOM     12  N   UNL     1      12.711  -1.072   4.989  0.00  0.00    -0.300 N 
ATOM     13  C   UNL     1      11.549  -1.715   5.218  0.00  0.00    +0.241 C 
ATOM     14  O   UNL     1      11.497  -2.924   5.131  0.00  0.00    -0.273 OA
BRANCH  12  16
ATOM     15  C   UNL     1      13.134   0.781   6.527  0.00  0.00    +0.024 C 
ATOM     16  C   UNL     1      12.774   0.388   5.093  0.00  0.00    +0.104 C 
ENDBRANCH  12  16
BRANCH  12  17
ATOM     17  C   UNL     1      13.912  -1.834   4.636  0.00  0.00    +0.104 C 
ATOM     18  C   UNL     1      13.992  -1.984   3.116  0.00  0.00    +0.024 C 
ENDBRANCH  12  17
ENDBRANCH  11  13
ENDBRANCH  10  11
ENDBRANCH   1  10
BRANCH   6  19
ATOM     19  C   UNL     1       7.607   1.281   8.567  0.00  0.00    +0.112 C 
BRANCH  19  20
ATOM     20  C   UNL     1       7.592   1.159  10.092  0.00  0.00    +0.054 C 
BRANCH  20  21
ATOM     21  C   UNL     1       8.184   2.403  10.701  0.00  0.00    -0.046 A 
ATOM     22  C   UNL     1       9.540   2.470  10.957  0.00  0.00    +0.004 A 
ATOM     23  C   UNL     1      10.084   3.613  11.513  0.00  0.00    +0.000 A 
ATOM     24  C   UNL     1       9.269   4.686  11.820  0.00  0.00    +0.000 A 
ATOM     25  C   UNL     1       7.912   4.618  11.569  0.00  0.00    +0.000 A 
ATOM     26  C   UNL     1       7.369   3.476  11.010  0.00  0.00    +0.004 A 
ENDBRANCH  20  21
ENDBRANCH  19  20
ENDBRANCH   6  19
BRANCH   8  27
ATOM     27  C   UNL     1       4.510  -2.016   4.916  0.00  0.00    -0.050 C 
BRANCH  27  28
ATOM     28  C   UNL     1       3.269  -1.163   4.867  0.00  0.00    -0.045 C 
ATOM     29  C   UNL     1       2.753  -0.810   3.698  0.00  0.00    +0.002 C 
BRANCH  29  30
ATOM     30  C   UNL     1       1.536   0.027   3.650  0.00  0.00    -0.022 A 
ATOM     31  C   UNL     1       0.928   0.445   4.834  0.00  0.00    +0.012 A 
ATOM     32  C   UNL     1      -0.209   1.226   4.788  0.00  0.00    +0.050 A 
ATOM     33  C   UNL     1      -0.747   1.601   3.566  0.00  0.00    +0.158 A 
ATOM     34  C   UNL     1      -0.148   1.182   2.381  0.00  0.00    +0.162 A 
ATOM     35  C   UNL     1       0.991   0.399   2.420  0.00  0.00    +0.057 A 
BRANCH  34  36
ATOM     36  O   UNL     1      -0.682   1.547   1.184  0.00  0.00    -0.491 OA
ATOM     37  C   UNL     1      -0.013   1.086   0.008  0.00  0.00    +0.277 C 
ENDBRANCH  34  36
BRANCH  33  38
ATOM     38  O   UNL     1      -1.864   2.375   3.526  0.00  0.00    -0.503 OA
ATOM     39  H   UNL     1      -2.690   1.873   3.517  0.00  0.00    +0.292 HD
ENDBRANCH  33  38
ENDBRANCH  29  30
ENDBRANCH  27  28
ENDBRANCH   8  27
TORSDOF 13
