REMARK  Name = ZINC17099489
REMARK  7 active torsions:
REMARK  status: ('A' for Active; 'I' for Inactive)
REMARK    1  A    between atoms: C_1  and  C_2
REMARK    2  A    between atoms: C_3  and  C_28
REMARK    3  A    between atoms: C_4  and  N_10
REMARK    4  A    between atoms: C_6  and  C_7
REMARK    5  A    between atoms: C_11  and  C_13
REMARK    6  A    between atoms: C_28  and  O_30
REMARK    7  A    between atoms: O_30  and  C_31
REMARK                            x       y       z     vdW  Elec       q    Type
REMARK                         _______ _______ _______ _____ _____    ______ ____
ROOT
ATOM      1  N   UNL     1       1.143   1.902   0.001  0.00  0.00    -0.275 N 
ATOM      2  C   UNL     1      -0.014   1.212   0.009  0.00  0.00    +0.254 C 
ATOM      3  O   UNL     1       0.002  -0.004   0.002  0.00  0.00    -0.270 OA
ATOM      4  H   UNL     1       1.129   3.002   0.008  0.00  0.00    +0.156 HD
ENDROOT
BRANCH   2   5
ATOM      5  C   UNL     1      -1.298   1.930   0.019  0.00  0.00    +0.097 A 
ATOM      6  C   UNL     1      -1.333   3.312   0.032  0.00  0.00    +0.030 A 
ATOM      7  C   UNL     1      -2.591   3.966   0.037  0.00  0.00    +0.019 A 
ATOM      8  C   UNL     1      -2.645   5.379   0.045  0.00  0.00    +0.012 A 
ATOM      9  C   UNL     1      -3.831   6.029   0.056  0.00  0.00    +0.009 A 
ATOM     10  C   UNL     1      -5.040   5.304   0.057  0.00  0.00    -0.014 A 
ATOM     11  C   UNL     1      -6.278   5.966   0.069  0.00  0.00    +0.008 A 
ATOM     12  C   UNL     1      -7.432   5.242   0.070  0.00  0.00    +0.001 A 
ATOM     13  C   UNL     1      -7.404   3.850   0.060  0.00  0.00    +0.001 A 
ATOM     14  C   UNL     1      -6.221   3.174   0.050  0.00  0.00    +0.012 A 
ATOM     15  C   UNL     1      -5.013   3.888   0.048  0.00  0.00    +0.025 A 
ATOM     16  C   UNL     1      -3.771   3.216   0.038  0.00  0.00    +0.145 A 
ATOM     17  O   UNL     1      -3.739   1.868   0.030  0.00  0.00    -0.438 OA
ATOM     18  C   UNL     1      -2.572   1.191   0.021  0.00  0.00    +0.205 A 
ATOM     19  N   UNL     1      -2.572  -0.115   0.014  0.00  0.00    -0.369 N 
ATOM     20  H   UNL     1      -3.525  -0.665   0.015  0.00  0.00    +0.159 HD
ATOM     21  H   UNL     1      -1.619  -0.665   0.006  0.00  0.00    +0.159 HD
ENDBRANCH   2   5
BRANCH   1  25
ATOM     22  C   UNL     1       6.131   1.351  -0.050  0.00  0.00    +0.046 C 
ATOM     23  C   UNL     1       4.704   0.865  -0.038  0.00  0.00    -0.015 A 
ATOM     24  C   UNL     1       3.643   1.758  -0.023  0.00  0.00    +0.091 A 
ATOM     25  C   UNL     1       2.348   1.228  -0.014  0.00  0.00    +0.087 A 
ATOM     26  S   UNL     1       2.628  -0.482  -0.018  0.00  0.00    -0.068 S 
ATOM     27  C   UNL     1       4.411  -0.471  -0.043  0.00  0.00    +0.079 A 
BRANCH  27  28
ATOM     28  C   UNL     1       5.332  -1.609  -0.058  0.00  0.00    +0.248 C 
ATOM     29  O   UNL     1       6.534  -1.419  -0.068  0.00  0.00    -0.270 OA
ATOM     30  N   UNL     1       4.849  -2.867  -0.060  0.00  0.00    -0.325 N 
ATOM     31  H   UNL     1       5.541  -3.722  -0.071  0.00  0.00    +0.145 HD
ATOM     32  H   UNL     1       3.762  -3.039  -0.050  0.00  0.00    +0.145 HD
ENDBRANCH  27  28
BRANCH  24  33
ATOM     33  C   UNL     1       3.870   3.207  -0.018  0.00  0.00    +0.342 C 
ATOM     34  O   UNL     1       3.975   3.802   1.037  0.00  0.00    -0.245 OA
BRANCH  33  35
ATOM     35  O   UNL     1       3.963   3.879  -1.183  0.00  0.00    -0.464 OA
ATOM     36  C   UNL     1       4.189   5.311  -1.102  0.00  0.00    +0.280 C 
ENDBRANCH  33  35
ENDBRANCH  24  33
ENDBRANCH   1  25
TORSDOF 5
