REMARK  Name = ZINC35189281
REMARK  8 active torsions:
REMARK  status: ('A' for Active; 'I' for Inactive)
REMARK    1  A    between atoms: C_1  and  C_2
REMARK    2  A    between atoms: C_2  and  O_3
REMARK    3  A    between atoms: O_3  and  C_4
REMARK    4  A    between atoms: C_6  and  C_11
REMARK    5  A    between atoms: C_9  and  O_10
REMARK    6  A    between atoms: N_12  and  N_13
REMARK    7  A    between atoms: C_14  and  C_16
REMARK    8  A    between atoms: N_23  and  C_25
REMARK                            x       y       z     vdW  Elec       q    Type
REMARK                         _______ _______ _______ _____ _____    ______ ____
ROOT
ATOM      1  N   UNL     1      -0.824  -6.788   0.079  0.00  0.00    -0.203 N 
ATOM      2  C   UNL     1      -0.989  -8.111   0.277  0.00  0.00    +0.263 C 
ATOM      3  O   UNL     1      -0.021  -8.825   0.451  0.00  0.00    -0.268 OA
ATOM      4  H   UNL     1      -1.596  -6.218  -0.060  0.00  0.00    +0.178 HD
ENDROOT
BRANCH   2   5
ATOM      5  C   UNL     1      -2.348  -8.693   0.281  0.00  0.00    +0.039 A 
ATOM      6  C   UNL     1      -3.462  -7.877   0.076  0.00  0.00    +0.013 A 
ATOM      7  C   UNL     1      -4.725  -8.428   0.082  0.00  0.00    +0.006 A 
ATOM      8  C   UNL     1      -4.894  -9.788   0.290  0.00  0.00    -0.025 A 
ATOM      9  C   UNL     1      -3.795 -10.601   0.494  0.00  0.00    -0.025 A 
ATOM     10  C   UNL     1      -2.523 -10.062   0.486  0.00  0.00    +0.018 A 
ATOM     11  C   UNL     1      -4.269 -12.019   0.692  0.00  0.00    +0.141 C 
ATOM     12  N   UNL     1      -5.732 -12.018   0.595  0.00  0.00    -0.321 N 
ATOM     13  C   UNL     1      -6.142 -10.633   0.344  0.00  0.00    +0.141 C 
BRANCH  12  14
ATOM     14  C   UNL     1      -6.574 -13.127   0.718  0.00  0.00    +0.030 A 
ATOM     15  C   UNL     1      -6.038 -14.384   0.962  0.00  0.00    +0.024 A 
ATOM     16  C   UNL     1      -6.874 -15.478   1.084  0.00  0.00    +0.022 A 
ATOM     17  C   UNL     1      -8.243 -15.321   0.962  0.00  0.00    +0.041 A 
ATOM     18  C   UNL     1      -8.780 -14.069   0.719  0.00  0.00    +0.022 A 
ATOM     19  C   UNL     1      -7.950 -12.971   0.602  0.00  0.00    +0.024 A 
ATOM     20 CL   UNL     1      -9.290 -16.697   1.114  0.00  0.00    -0.084 Cl
ENDBRANCH  12  14
ENDBRANCH   2   5
BRANCH   1  22
ATOM     21  C   UNL     1       0.618  -4.948   0.012  0.00  0.00    +0.138 C 
ATOM     22  N   UNL     1       0.464  -6.236   0.074  0.00  0.00    -0.187 NA
BRANCH  21  25
ATOM     23  C   UNL     1      -1.434  -1.864   0.625  0.00  0.00    +0.162 A 
ATOM     24  C   UNL     1      -0.434  -2.698   0.163  0.00  0.00    +0.059 A 
ATOM     25  C   UNL     1      -0.446  -4.054   0.502  0.00  0.00    -0.002 A 
ATOM     26  C   UNL     1      -1.470  -4.559   1.308  0.00  0.00    +0.013 A 
ATOM     27  C   UNL     1      -2.465  -3.721   1.765  0.00  0.00    +0.050 A 
ATOM     28  C   UNL     1      -2.449  -2.374   1.432  0.00  0.00    +0.158 A 
BRANCH  28  29
ATOM     29  O   UNL     1      -3.429  -1.551   1.891  0.00  0.00    -0.503 OA
ATOM     30  H   UNL     1      -4.195  -1.488   1.305  0.00  0.00    +0.292 HD
ENDBRANCH  28  29
BRANCH  23  31
ATOM     31  O   UNL     1      -1.425  -0.544   0.297  0.00  0.00    -0.489 OA
BRANCH  31  33
ATOM     32  C   UNL     1      -0.512   1.409  -0.793  0.00  0.00    +0.048 C 
ATOM     33  C   UNL     1      -0.354  -0.090  -0.534  0.00  0.00    +0.226 C 
ENDBRANCH  31  33
ENDBRANCH  23  31
ENDBRANCH  21  25
ENDBRANCH   1  22
TORSDOF 7
