REMARK  Name = ZINC39228268
REMARK  4 active torsions:
REMARK  status: ('A' for Active; 'I' for Inactive)
REMARK    1  A    between atoms: C_15  and  C_17
REMARK    2  A    between atoms: C_23  and  C_25
REMARK    3  A    between atoms: N_27  and  C_28
REMARK    4  A    between atoms: C_28  and  C_29
REMARK                            x       y       z     vdW  Elec       q    Type
REMARK                         _______ _______ _______ _____ _____    ______ ____
ROOT
ATOM      1  C   UNL     1      -8.267   2.349  -6.363  0.00  0.00    +0.001 A 
ATOM      2  C   UNL     1      -7.764   3.629  -6.549  0.00  0.00    +0.002 A 
ATOM      3  C   UNL     1      -7.177   4.311  -5.506  0.00  0.00    +0.026 A 
ATOM      4  C   UNL     1      -7.087   3.714  -4.253  0.00  0.00    +0.047 A 
ATOM      5  N   UNL     1      -6.572   4.126  -3.043  0.00  0.00    -0.356 N 
ATOM      6  C   UNL     1      -6.737   3.143  -2.110  0.00  0.00    +0.038 A 
ATOM      7  H   UNL     1      -6.154   4.986  -2.879  0.00  0.00    +0.166 HD
ATOM      8  C   UNL     1      -6.305   3.187  -0.660  0.00  0.00    +0.161 C 
ATOM      9  N   UNL     1      -6.923   2.035   0.019  0.00  0.00    -0.295 N 
ATOM     10  C   UNL     1      -6.889   0.727  -0.652  0.00  0.00    +0.113 C 
ATOM     11  C   UNL     1      -7.709   0.810  -1.946  0.00  0.00    +0.056 C 
ATOM     12  C   UNL     1      -7.354   2.084  -2.668  0.00  0.00    -0.016 A 
ATOM     13  C   UNL     1      -7.599   2.415  -4.069  0.00  0.00    +0.003 A 
ATOM     14  C   UNL     1      -8.194   1.745  -5.139  0.00  0.00    +0.010 A 
ATOM     15  C   UNL     1      -7.506   2.177   1.226  0.00  0.00    +0.220 C 
ATOM     16  O   UNL     1      -7.444   3.238   1.809  0.00  0.00    -0.275 OA
ENDROOT
BRANCH  15  17
ATOM     17  C   UNL     1      -8.236   1.016   1.851  0.00  0.00    +0.091 C 
ATOM     18  C   UNL     1      -7.275   0.219   2.735  0.00  0.00    +0.040 C 
ATOM     19  C   UNL     1      -8.037  -0.772   3.566  0.00  0.00    -0.030 C 
ATOM     20  C   UNL     1      -9.313  -0.715   3.773  0.00  0.00    -0.030 C 
ATOM     21  C   UNL     1     -10.211   0.344   3.203  0.00  0.00    +0.040 C 
ATOM     22  C   UNL     1      -9.385   1.538   2.723  0.00  0.00    +0.091 C 
BRANCH  22  23
ATOM     23  C   UNL     1     -10.253   2.467   1.914  0.00  0.00    +0.217 C 
ATOM     24  O   UNL     1      -9.983   2.692   0.753  0.00  0.00    -0.275 OA
ATOM     25  N   UNL     1     -11.330   3.048   2.480  0.00  0.00    -0.313 N 
ATOM     26  H   UNL     1     -11.546   2.868   3.409  0.00  0.00    +0.149 HD
BRANCH  25  27
ATOM     27  C   UNL     1     -12.174   3.951   1.694  0.00  0.00    +0.135 C 
BRANCH  27  28
ATOM     28  C   UNL     1     -13.318   4.469   2.567  0.00  0.00    +0.135 C 
ATOM     29  C   UNL     1     -14.280   5.325   1.716  0.00  0.00    +0.035 C 
ATOM     30  C   UNL     1     -14.644   6.479   2.689  0.00  0.00    +0.031 C 
ATOM     31  C   UNL     1     -13.313   6.640   3.465  0.00  0.00    +0.160 C 
ATOM     32  O   UNL     1     -12.796   5.306   3.606  0.00  0.00    -0.375 OA
ENDBRANCH  27  28
ENDBRANCH  25  27
ENDBRANCH  22  23
ENDBRANCH  15  17
TORSDOF 4
