REMARK  Name = ZINC40879778
REMARK  3 active torsions:
REMARK  status: ('A' for Active; 'I' for Inactive)
REMARK    1  A    between atoms: C_7  and  C_17
REMARK    2  A    between atoms: C_9  and  N_11
REMARK    3  A    between atoms: C_17  and  O_18
REMARK                            x       y       z     vdW  Elec       q    Type
REMARK                         _______ _______ _______ _____ _____    ______ ____
ROOT
ATOM      1  C   UNL     1      -0.016   1.358   0.009  0.00  0.00    +0.001 A 
ATOM      2  C   UNL     1       1.170   2.089   0.002  0.00  0.00    +0.002 A 
ATOM      3  C   UNL     1       2.379   1.464  -0.013  0.00  0.00    +0.028 A 
ATOM      4  C   UNL     1       2.439   0.060  -0.021  0.00  0.00    +0.074 A 
ATOM      5  C   UNL     1       1.232  -0.681  -0.013  0.00  0.00    +0.006 A 
ATOM      6  C   UNL     1       0.002  -0.004   0.002  0.00  0.00    +0.010 A 
ATOM      7  C   UNL     1       1.291  -2.089  -0.021  0.00  0.00    -0.010 A 
ATOM      8  C   UNL     1       2.519  -2.683  -0.037  0.00  0.00    +0.054 A 
ATOM      9  C   UNL     1       3.675  -1.894  -0.044  0.00  0.00    +0.155 A 
ATOM     10  N   UNL     1       3.613  -0.579  -0.036  0.00  0.00    -0.228 NA
ENDROOT
BRANCH   9  11
ATOM     11  N   UNL     1       4.925  -2.517  -0.060  0.00  0.00    -0.221 N 
ATOM     12  C   UNL     1       6.132  -1.891  -0.063  0.00  0.00    +0.131 A 
ATOM     13  C   UNL     1       7.089  -2.847  -0.080  0.00  0.00    +0.056 A 
ATOM     14  C   UNL     1       6.452  -4.095  -0.087  0.00  0.00    +0.150 A 
ATOM     15  N   UNL     1       5.159  -3.898  -0.069  0.00  0.00    -0.172 NA
ATOM     16 BR   UNL     1       8.957  -2.552  -0.092  0.00  0.00    -0.047 Br
ENDBRANCH   9  11
BRANCH   7  17
ATOM     17  C   UNL     1       0.032  -2.917  -0.013  0.00  0.00    +0.191 C 
BRANCH  17  18
ATOM     18  O   UNL     1       0.374  -4.304  -0.024  0.00  0.00    -0.390 OA
ATOM     19  H   UNL     1      -0.390  -4.897  -0.019  0.00  0.00    +0.210 HD
ENDBRANCH  17  18
ENDBRANCH   7  17
TORSDOF 3
