REMARK  Name = ZINC26978598
REMARK  6 active torsions:
REMARK  status: ('A' for Active; 'I' for Inactive)
REMARK    1  A    between atoms: N_16  and  C_19
REMARK    2  A    between atoms: C_19  and  C_20
REMARK    3  A    between atoms: C_20  and  C_22
REMARK    4  A    between atoms: C_20  and  O_35
REMARK    5  A    between atoms: C_22  and  O_23
REMARK    6  A    between atoms: O_23  and  C_24
REMARK                            x       y       z     vdW  Elec       q    Type
REMARK                         _______ _______ _______ _____ _____    ______ ____
ROOT
ATOM      1  C   UNL     1      -3.570   7.084   5.617  0.00  0.00    +0.001 A 
ATOM      2  C   UNL     1      -2.435   7.624   5.015  0.00  0.00    +0.001 A 
ATOM      3  C   UNL     1      -1.800   6.971   4.003  0.00  0.00    +0.009 A 
ATOM      4  C   UNL     1      -2.295   5.734   3.555  0.00  0.00    -0.012 A 
ATOM      5  C   UNL     1      -3.450   5.186   4.168  0.00  0.00    -0.018 A 
ATOM      6  C   UNL     1      -4.077   5.889   5.210  0.00  0.00    +0.008 A 
ATOM      7  C   UNL     1      -3.946   3.950   3.719  0.00  0.00    +0.009 A 
ATOM      8  C   UNL     1      -3.313   3.296   2.707  0.00  0.00    +0.007 A 
ATOM      9  C   UNL     1      -2.178   3.833   2.103  0.00  0.00    -0.010 A 
ATOM     10  C   UNL     1      -1.669   5.031   2.515  0.00  0.00    -0.008 A 
ATOM     11  C   UNL     1      -0.450   5.326   1.672  0.00  0.00    +0.197 C 
ATOM     12  O   UNL     1      -0.071   4.073   1.073  0.00  0.00    -0.364 OA
ATOM     13  C   UNL     1      -1.297   3.332   0.984  0.00  0.00    +0.092 C 
ATOM     14  C   UNL     1      -1.022   1.839   1.158  0.00  0.00    +0.021 C 
ATOM     15  C   UNL     1      -0.169   1.341  -0.011  0.00  0.00    -0.076 C 
ATOM     16  N   UNL     1      -0.872   1.595  -1.275  0.00  0.00    +0.382 N 
ATOM     17  C   UNL     1      -1.082   3.033  -1.485  0.00  0.00    -0.076 C 
ATOM     18  C   UNL     1      -1.967   3.588  -0.366  0.00  0.00    +0.021 C 
ATOM     19  H   UNL     1      -1.861   1.117  -1.210  0.00  0.00    -0.082 HD
ENDROOT
BRANCH  16  20
ATOM     20  C   UNL     1      -0.153   0.997  -2.407  0.00  0.00    -0.044 C 
BRANCH  20  21
ATOM     21  C   UNL     1      -0.380  -0.516  -2.414  0.00  0.00    +0.135 C 
BRANCH  21  22
ATOM     22  O   UNL     1      -1.770  -0.789  -2.602  0.00  0.00    -0.390 OA
ATOM     23  H   UNL     1      -2.127  -1.829  -2.635  0.00  0.00    +0.210 HD
ENDBRANCH  21  22
BRANCH  21  24
ATOM     24  C   UNL     1       0.423  -1.147  -3.553  0.00  0.00    +0.258 C 
BRANCH  24  25
ATOM     25  O   UNL     1       0.305  -2.570  -3.489  0.00  0.00    -0.486 OA
BRANCH  25  26
ATOM     26  C   UNL     1       0.963  -3.288  -4.437  0.00  0.00    +0.165 A 
ATOM     27  C   UNL     1       1.700  -2.635  -5.410  0.00  0.00    +0.087 A 
ATOM     28  C   UNL     1       2.374  -3.367  -6.372  0.00  0.00    +0.127 A 
ATOM     29  C   UNL     1       2.299  -4.748  -6.367  0.00  0.00    +0.045 A 
ATOM     30  C   UNL     1       1.557  -5.407  -5.400  0.00  0.00    +0.001 A 
ATOM     31  C   UNL     1       0.889  -4.681  -4.431  0.00  0.00    +0.165 A 
ATOM     32  O   UNL     1       0.159  -5.288  -3.457  0.00  0.00    -0.488 OA
ATOM     33  C   UNL     1      -0.218  -6.651  -3.656  0.00  0.00    +0.229 C 
ATOM     34  C   UNL     1       1.028  -7.441  -4.076  0.00  0.00    +0.046 C 
ATOM     35  C   UNL     1       1.497  -6.913  -5.433  0.00  0.00    +0.042 C 
ATOM     36  F   UNL     1       3.100  -2.733  -7.318  0.00  0.00    -0.205 F 
ENDBRANCH  25  26
ENDBRANCH  24  25
ENDBRANCH  21  24
ENDBRANCH  20  21
ENDBRANCH  16  20
TORSDOF 6
