REMARK  Name = ZINC39914425
REMARK  13 active torsions:
REMARK  status: ('A' for Active; 'I' for Inactive)
REMARK    1  A    between atoms: C_1  and  C_2
REMARK    2  A    between atoms: C_2  and  C_3
REMARK    3  A    between atoms: C_3  and  C_4
REMARK    4  A    between atoms: C_4  and  C_5
REMARK    5  A    between atoms: C_5  and  N_6
REMARK    6  A    between atoms: C_7  and  C_26
REMARK    7  A    between atoms: C_10  and  C_17
REMARK    8  A    between atoms: C_20  and  C_24
REMARK    9  A    between atoms: C_22  and  O_23
REMARK   10  A    between atoms: C_29  and  O_35
REMARK   11  A    between atoms: C_30  and  O_32
REMARK   12  A    between atoms: O_32  and  C_33
REMARK   13  A    between atoms: C_33  and  C_34
REMARK                            x       y       z     vdW  Elec       q    Type
REMARK                         _______ _______ _______ _____ _____    ______ ____
ROOT
ATOM      1  N   UNL     1      -1.785  -4.344  -0.021  0.00  0.00    -0.285 N 
ATOM      2  C   UNL     1      -2.169  -5.029  -1.262  0.00  0.00    +0.141 C 
ATOM      3  C   UNL     1      -2.549  -6.429  -0.866  0.00  0.00    +0.035 A 
ATOM      4  C   UNL     1      -2.997  -7.690  -1.274  0.00  0.00    +0.102 A 
ATOM      5  N   UNL     1      -3.084  -8.445  -0.196  0.00  0.00    -0.173 NA
ATOM      6  N   UNL     1      -2.735  -7.786   0.851  0.00  0.00    -0.272 N 
ATOM      7  H   UNL     1      -2.721  -8.142   1.753  0.00  0.00    +0.189 HD
ATOM      8  C   UNL     1      -2.387  -6.512   0.504  0.00  0.00    +0.126 A 
ATOM      9  C   UNL     1      -1.910  -5.215   0.997  0.00  0.00    +0.265 C 
ATOM     10  O   UNL     1      -1.665  -4.962   2.161  0.00  0.00    -0.268 OA
ENDROOT
BRANCH   4  11
ATOM     11  C   UNL     1      -3.317  -8.101  -2.663  0.00  0.00    +0.045 A 
ATOM     12  C   UNL     1      -3.294  -7.164  -3.693  0.00  0.00    +0.034 A 
ATOM     13  C   UNL     1      -3.592  -7.552  -4.985  0.00  0.00    +0.045 A 
ATOM     14  C   UNL     1      -3.913  -8.870  -5.259  0.00  0.00    -0.029 A 
ATOM     15  C   UNL     1      -3.938  -9.808  -4.244  0.00  0.00    +0.050 A 
ATOM     16  C   UNL     1      -3.636  -9.432  -2.945  0.00  0.00    +0.126 A 
ATOM     17  C   UNL     1      -4.238  -9.285  -6.671  0.00  0.00    +0.045 C 
ATOM     18 CL   UNL     1      -3.564  -6.383  -6.268  0.00  0.00    -0.083 Cl
BRANCH  16  19
ATOM     19  O   UNL     1      -3.655 -10.355  -1.947  0.00  0.00    -0.506 OA
ATOM     20  H   UNL     1      -4.514 -10.448  -1.514  0.00  0.00    +0.292 HD
ENDBRANCH  16  19
ENDBRANCH   4  11
BRANCH   2  21
ATOM     21  C   UNL     1      -1.005  -5.057  -2.220  0.00  0.00    -0.019 A 
ATOM     22  C   UNL     1      -1.191  -4.699  -3.542  0.00  0.00    +0.009 A 
ATOM     23  C   UNL     1      -0.127  -4.724  -4.424  0.00  0.00    +0.049 A 
ATOM     24  C   UNL     1       1.130  -5.108  -3.983  0.00  0.00    +0.158 A 
ATOM     25  C   UNL     1       1.317  -5.468  -2.652  0.00  0.00    +0.162 A 
ATOM     26  C   UNL     1       0.247  -5.436  -1.772  0.00  0.00    +0.055 A 
BRANCH  24  27
ATOM     27  O   UNL     1       2.178  -5.133  -4.850  0.00  0.00    -0.503 OA
ATOM     28  H   UNL     1       2.667  -4.301  -4.900  0.00  0.00    +0.292 HD
ENDBRANCH  24  27
BRANCH  25  29
ATOM     29  O   UNL     1       2.548  -5.845  -2.215  0.00  0.00    -0.489 OA
BRANCH  29  30
ATOM     30  C   UNL     1       2.642  -6.314  -0.868  0.00  0.00    +0.226 C 
ATOM     31  C   UNL     1       4.069  -6.793  -0.594  0.00  0.00    +0.048 C 
ENDBRANCH  29  30
ENDBRANCH  25  29
ENDBRANCH   2  21
BRANCH   1  32
ATOM     32  C   UNL     1      -1.338  -2.953   0.089  0.00  0.00    +0.109 C 
BRANCH  32  33
ATOM     33  C   UNL     1       0.183  -2.893  -0.067  0.00  0.00    +0.019 C 
BRANCH  33  34
ATOM     34  C   UNL     1       0.650  -1.440   0.048  0.00  0.00    +0.001 C 
BRANCH  34  36
ATOM     35  C   UNL     1       2.638   0.073   0.006  0.00  0.00    +0.004 C 
ATOM     36  C   UNL     1       2.171  -1.380  -0.109  0.00  0.00    -0.003 C 
ENDBRANCH  34  36
ENDBRANCH  33  34
ENDBRANCH  32  33
ENDBRANCH   1  32
TORSDOF 10
