REMARK  Name = ZINC41301354
REMARK  5 active torsions:
REMARK  status: ('A' for Active; 'I' for Inactive)
REMARK    1  A    between atoms: C_1  and  C_2
REMARK    2  A    between atoms: C_8  and  N_11
REMARK    3  A    between atoms: C_13  and  N_25
REMARK    4  A    between atoms: C_14  and  N_24
REMARK    5  A    between atoms: N_18  and  C_19
REMARK                            x       y       z     vdW  Elec       q    Type
REMARK                         _______ _______ _______ _____ _____    ______ ____
ROOT
ATOM      1  N   UNL     1       2.328  -2.613   2.892  0.00  0.00    -0.266 N 
ATOM      2  C   UNL     1       2.964  -3.637   3.581  0.00  0.00    +0.163 A 
ATOM      3  C   UNL     1       4.034  -3.359   4.426  0.00  0.00    +0.205 A 
ATOM      4  C   UNL     1       4.641  -4.417   5.096  0.00  0.00    +0.154 A 
ATOM      5  N   UNL     1       4.182  -5.652   4.908  0.00  0.00    -0.197 NA
ATOM      6  C   UNL     1       3.161  -5.879   4.095  0.00  0.00    +0.219 A 
ATOM      7  N   UNL     1       2.556  -4.896   3.445  0.00  0.00    -0.197 NA
ATOM      8  N   UNL     1       2.712  -7.177   3.924  0.00  0.00    -0.311 N 
ATOM      9  H   UNL     1       2.631  -1.697   2.995  0.00  0.00    +0.157 HD
ATOM     10  H   UNL     1       1.965  -7.357   3.332  0.00  0.00    +0.149 HD
ENDROOT
BRANCH   1  17
ATOM     11  C   UNL     1      -0.019   1.526   0.010  0.00  0.00    +0.008 C 
ATOM     12  C   UNL     1       0.002  -0.004   0.002  0.00  0.00    -0.009 C 
ATOM     13  C   UNL     1      -1.434  -0.533   0.010  0.00  0.00    +0.010 C 
ATOM     14  C   UNL     1      -1.435  -2.035  -0.296  0.00  0.00    +0.059 C 
ATOM     15  C   UNL     1      -0.442  -2.704   0.624  0.00  0.00    +0.089 A 
ATOM     16  C   UNL     1       0.554  -2.005   1.331  0.00  0.00    +0.037 A 
ATOM     17  C   UNL     1       1.261  -2.899   2.057  0.00  0.00    +0.226 A 
ATOM     18  O   UNL     1       0.740  -4.119   1.823  0.00  0.00    -0.339 OA
ATOM     19  N   UNL     1      -0.336  -3.965   0.912  0.00  0.00    -0.081 NA
ATOM     20  C   UNL     1       0.747  -0.511   1.244  0.00  0.00    +0.045 C 
ENDBRANCH   1  17
BRANCH   8  21
ATOM     21  C   UNL     1       3.364  -8.278   4.637  0.00  0.00    +0.073 C 
ATOM     22  C   UNL     1       4.553  -8.812   3.812  0.00  0.00    +0.022 C 
ATOM     23  C   UNL     1       4.526 -10.341   4.053  0.00  0.00    +0.002 C 
ATOM     24  C   UNL     1       3.010 -10.657   4.076  0.00  0.00    +0.002 C 
ATOM     25  C   UNL     1       2.383  -9.451   4.805  0.00  0.00    +0.022 C 
ENDBRANCH   8  21
BRANCH   4  26
ATOM     26  N   UNL     1       5.710  -4.188   5.948  0.00  0.00    -0.341 N 
ATOM     27  H   UNL     1       6.040  -3.285   6.081  0.00  0.00    +0.144 HD
ATOM     28  H   UNL     1       6.129  -4.930   6.412  0.00  0.00    +0.144 HD
ENDBRANCH   4  26
BRANCH   3  29
ATOM     29  N   UNL     1       4.515  -1.970   4.608  0.00  0.00    +0.063 N 
ATOM     30  O   UNL     1       4.047  -1.278   5.482  0.00  0.00    -0.126 OA
ATOM     31  O   UNL     1       5.376  -1.529   3.883  0.00  0.00    -0.126 OA
ENDBRANCH   3  29
TORSDOF 4
