REMARK  Name = ZINC63836185
REMARK  8 active torsions:
REMARK  status: ('A' for Active; 'I' for Inactive)
REMARK    1  A    between atoms: C_6  and  C_7
REMARK    2  A    between atoms: C_7  and  C_8
REMARK    3  A    between atoms: C_7  and  N_13
REMARK    4  A    between atoms: C_14  and  C_16
REMARK    5  A    between atoms: C_16  and  C_17
REMARK    6  A    between atoms: C_17  and  C_18
REMARK    7  A    between atoms: C_18  and  C_19
REMARK    8  A    between atoms: C_19  and  N_20
REMARK                            x       y       z     vdW  Elec       q    Type
REMARK                         _______ _______ _______ _____ _____    ______ ____
ROOT
ATOM      1  N   UNL     1      -1.262  -1.972  -0.828  0.00  0.00    -0.308 N 
ATOM      2  C   UNL     1      -1.413  -1.866  -2.163  0.00  0.00    +0.213 C 
ATOM      3  O   UNL     1      -1.483  -0.771  -2.680  0.00  0.00    -0.276 OA
ATOM      4  H   UNL     1      -1.135  -2.845  -0.423  0.00  0.00    +0.149 HD
ENDROOT
BRANCH   1   5
ATOM      5  C   UNL     1      -1.289  -0.772   0.011  0.00  0.00    +0.106 C 
BRANCH   5  11
ATOM      6  C   UNL     1       0.173   1.258  -0.058  0.00  0.00    +0.008 A 
ATOM      7  C   UNL     1       1.418   1.858  -0.070  0.00  0.00    +0.038 A 
ATOM      8  C   UNL     1       2.562   1.079  -0.026  0.00  0.00    +0.123 A 
ATOM      9  C   UNL     1       2.456  -0.301   0.030  0.00  0.00    +0.038 A 
ATOM     10  C   UNL     1       1.210  -0.898   0.042  0.00  0.00    +0.008 A 
ATOM     11  C   UNL     1       0.069  -0.119  -0.002  0.00  0.00    -0.027 A 
ATOM     12  F   UNL     1       3.779   1.664  -0.037  0.00  0.00    -0.205 F 
ENDBRANCH   5  11
BRANCH   5  13
ATOM     13  C   UNL     1      -1.655  -1.159   1.445  0.00  0.00    +0.014 C 
ATOM     14  C   UNL     1      -0.684  -2.239   1.964  0.00  0.00    +0.006 C 
ATOM     15  C   UNL     1      -1.575  -3.169   2.825  0.00  0.00    +0.000 C 
ATOM     16  C   UNL     1      -2.897  -3.216   2.020  0.00  0.00    +0.000 C 
ATOM     17  C   UNL     1      -3.063  -1.781   1.480  0.00  0.00    +0.006 C 
ENDBRANCH   5  13
ENDBRANCH   1   5
BRANCH   2  18
ATOM     18  C   UNL     1      -1.494  -3.107  -3.014  0.00  0.00    +0.096 C 
BRANCH  18  19
ATOM     19  C   UNL     1      -1.662  -2.709  -4.482  0.00  0.00    +0.011 C 
BRANCH  19  20
ATOM     20  C   UNL     1      -1.744  -3.969  -5.346  0.00  0.00    +0.019 C 
BRANCH  20  21
ATOM     21  C   UNL     1      -1.913  -3.571  -6.813  0.00  0.00    +0.106 C 
BRANCH  21  22
ATOM     22  N   UNL     1      -1.992  -4.777  -7.641  0.00  0.00    -0.300 N 
ATOM     23  C   UNL     1      -2.143  -4.670  -8.976  0.00  0.00    +0.297 C 
ATOM     24  O   UNL     1      -2.213  -3.573  -9.493  0.00  0.00    -0.253 OA
ATOM     25  N   UNL     1      -2.215  -5.780  -9.737  0.00  0.00    -0.313 N 
ATOM     26  H   UNL     1      -1.935  -5.653  -7.228  0.00  0.00    +0.150 HD
ATOM     27  H   UNL     1      -2.158  -6.656  -9.324  0.00  0.00    +0.146 HD
ATOM     28  H   UNL     1      -2.323  -5.704 -10.697  0.00  0.00    +0.146 HD
ENDBRANCH  21  22
ENDBRANCH  20  21
ENDBRANCH  19  20
ENDBRANCH  18  19
ENDBRANCH   2  18
TORSDOF 8
