REMARK  Name = ZINC36553562
REMARK  18 active torsions:
REMARK  status: ('A' for Active; 'I' for Inactive)
REMARK    1  A    between atoms: C_1  and  C_2
REMARK    2  A    between atoms: C_2  and  C_3
REMARK    3  A    between atoms: C_2  and  C_4
REMARK    4  A    between atoms: C_2  and  C_5
REMARK    5  A    between atoms: C_5  and  C_6
REMARK    6  A    between atoms: C_6  and  C_7
REMARK    7  A    between atoms: C_6  and  C_8
REMARK    8  A    between atoms: C_6  and  N_9
REMARK    9  A    between atoms: C_10  and  C_12
REMARK   10  A    between atoms: C_12  and  C_14
REMARK   11  A    between atoms: C_12  and  N_23
REMARK   12  A    between atoms: C_15  and  O_22
REMARK   13  A    between atoms: C_17  and  O_21
REMARK   14  A    between atoms: C_19  and  O_20
REMARK   15  A    between atoms: N_23  and  C_24
REMARK   16  A    between atoms: C_31  and  C_33
REMARK   17  A    between atoms: C_33  and  O_34
REMARK   18  A    between atoms: O_34  and  C_35
REMARK                            x       y       z     vdW  Elec       q    Type
REMARK                         _______ _______ _______ _____ _____    ______ ____
ROOT
ATOM      1  C   UNL     1       4.759   0.402  -3.976  0.00  0.00    +0.204 C 
ENDROOT
BRANCH   1   2
ATOM      2  C   UNL     1       4.860   1.883  -3.717  0.00  0.00    +0.065 A 
ATOM      3  C   UNL     1       6.053   2.430  -3.270  0.00  0.00    +0.129 A 
ATOM      4  C   UNL     1       6.146   3.793  -3.032  0.00  0.00    +0.091 A 
ATOM      5  C   UNL     1       5.045   4.609  -3.241  0.00  0.00    +0.124 A 
ATOM      6  C   UNL     1       3.851   4.063  -3.688  0.00  0.00    +0.091 A 
ATOM      7  C   UNL     1       3.760   2.701  -3.931  0.00  0.00    +0.129 A 
BRANCH   7   8
ATOM      8  O   UNL     1       2.592   2.166  -4.374  0.00  0.00    -0.506 OA
ATOM      9  H   UNL     1       1.996   1.883  -3.667  0.00  0.00    +0.292 HD
ENDBRANCH   7   8
BRANCH   5  10
ATOM     10  O   UNL     1       5.135   5.945  -3.006  0.00  0.00    -0.507 OA
ATOM     11  H   UNL     1       5.416   6.461  -3.774  0.00  0.00    +0.292 HD
ENDBRANCH   5  10
BRANCH   3  12
ATOM     12  O   UNL     1       7.132   1.629  -3.065  0.00  0.00    -0.506 OA
ATOM     13  H   UNL     1       7.743   1.593  -3.814  0.00  0.00    +0.292 HD
ENDBRANCH   3  12
ENDBRANCH   1   2
BRANCH   1  15
ATOM     14  N   UNL     1       4.374  -0.402  -1.669  0.00  0.00    -0.308 N 
ATOM     15  C   UNL     1       5.186  -0.353  -2.744  0.00  0.00    +0.239 C 
ATOM     16  O   UNL     1       6.259  -0.917  -2.719  0.00  0.00    -0.273 OA
ATOM     17  H   UNL     1       3.516   0.049  -1.688  0.00  0.00    +0.149 HD
BRANCH  14  18
ATOM     18  C   UNL     1       4.789  -1.137  -0.470  0.00  0.00    +0.030 C 
ATOM     19  C   UNL     1       6.286  -0.926  -0.236  0.00  0.00    +0.031 C 
ATOM     20  C   UNL     1       4.508  -2.628  -0.664  0.00  0.00    +0.031 C 
BRANCH  18  21
ATOM     21  C   UNL     1       4.006  -0.623   0.739  0.00  0.00    +0.031 C 
BRANCH  21  23
ATOM     22  C   UNL     1       2.900   1.156  -0.623  0.00  0.00    +0.010 C 
ATOM     23  C   UNL     1       3.780   0.884   0.598  0.00  0.00    -0.036 C 
ATOM     24  C   UNL     1       5.128   1.587   0.422  0.00  0.00    +0.010 C 
ATOM     25  C   UNL     1       3.088   1.416   1.854  0.00  0.00    +0.010 C 
ENDBRANCH  21  23
ENDBRANCH  18  21
ENDBRANCH  14  18
ENDBRANCH   1  15
BRANCH   1  26
ATOM     26  N   UNL     1       5.632   0.042  -5.096  0.00  0.00    -0.253 N 
ATOM     27  C   UNL     1       6.219   1.008  -5.830  0.00  0.00    +0.246 C 
ATOM     28  O   UNL     1       5.984   2.174  -5.597  0.00  0.00    -0.273 OA
BRANCH  26  29
ATOM     29  C   UNL     1       5.857  -1.305  -5.403  0.00  0.00    +0.039 A 
ATOM     30  C   UNL     1       4.946  -2.272  -4.997  0.00  0.00    +0.023 A 
ATOM     31  C   UNL     1       5.170  -3.600  -5.301  0.00  0.00    +0.003 A 
ATOM     32  C   UNL     1       6.299  -3.969  -6.009  0.00  0.00    +0.020 A 
ATOM     33  C   UNL     1       7.209  -3.008  -6.415  0.00  0.00    +0.043 A 
ATOM     34  C   UNL     1       6.987  -1.676  -6.119  0.00  0.00    +0.043 A 
ATOM     35 CL   UNL     1       8.626  -3.474  -7.303  0.00  0.00    -0.083 Cl
ENDBRANCH  26  29
BRANCH  27  36
ATOM     36  C   UNL     1       7.168   0.637  -6.941  0.00  0.00    +0.255 C 
BRANCH  36  37
ATOM     37  O   UNL     1       7.162   1.664  -7.935  0.00  0.00    -0.374 OA
ATOM     38  C   UNL     1       8.033   1.410  -9.039  0.00  0.00    +0.194 C 
ENDBRANCH  36  37
ENDBRANCH  27  36
ENDBRANCH   1  26
TORSDOF 12
