REMARK  Name = ZINC36728819
REMARK  11 active torsions:
REMARK  status: ('A' for Active; 'I' for Inactive)
REMARK    1  A    between atoms: C_1  and  C_2
REMARK    2  A    between atoms: C_4  and  C_33
REMARK    3  A    between atoms: C_5  and  N_9
REMARK    4  A    between atoms: C_6  and  C_8
REMARK    5  A    between atoms: C_10  and  C_12
REMARK    6  A    between atoms: C_12  and  N_13
REMARK    7  A    between atoms: C_14  and  C_16
REMARK    8  A    between atoms: C_16  and  N_17
REMARK    9  A    between atoms: C_22  and  C_29
REMARK   10  A    between atoms: C_25  and  C_27
REMARK   11  A    between atoms: C_25  and  C_28
REMARK                            x       y       z     vdW  Elec       q    Type
REMARK                         _______ _______ _______ _____ _____    ______ ____
ROOT
ATOM      1  N   UNL     1       0.858  -6.983   2.265  0.00  0.00    -0.305 N 
ATOM      2  C   UNL     1       0.984  -8.311   2.462  0.00  0.00    +0.231 C 
ATOM      3  O   UNL     1       0.718  -9.085   1.567  0.00  0.00    -0.274 OA
ATOM      4  H   UNL     1       1.071  -6.364   2.981  0.00  0.00    +0.149 HD
ENDROOT
BRANCH   1   5
ATOM      5  C   UNL     1       0.399  -6.476   0.969  0.00  0.00    +0.200 C 
BRANCH   5   7
ATOM      6  N   UNL     1      -0.052  -4.280  -0.077  0.00  0.00    -0.284 N 
ATOM      7  C   UNL     1       0.345  -4.970   1.011  0.00  0.00    +0.234 C 
ATOM      8  O   UNL     1       0.659  -4.380   2.022  0.00  0.00    -0.274 OA
ATOM      9  H   UNL     1      -0.370  -4.753  -0.862  0.00  0.00    +0.155 HD
BRANCH   6  14
ATOM     10  C   UNL     1       0.136   1.390  -0.065  0.00  0.00    +0.044 C 
ATOM     11  C   UNL     1       0.086  -0.116  -0.068  0.00  0.00    -0.050 A 
ATOM     12  C   UNL     1       0.759  -0.827  -1.045  0.00  0.00    +0.008 A 
ATOM     13  C   UNL     1       0.715  -2.207  -1.051  0.00  0.00    -0.029 A 
ATOM     14  C   UNL     1      -0.005  -2.882  -0.074  0.00  0.00    +0.039 A 
ATOM     15  C   UNL     1      -0.679  -2.165   0.906  0.00  0.00    -0.029 A 
ATOM     16  C   UNL     1      -0.628  -0.785   0.909  0.00  0.00    +0.008 A 
ATOM     17  C   UNL     1      -1.463  -2.893   1.968  0.00  0.00    +0.045 C 
ATOM     18  C   UNL     1       1.448  -2.981  -2.117  0.00  0.00    +0.045 C 
ENDBRANCH   6  14
ENDBRANCH   5   7
ENDBRANCH   1   5
BRANCH   2  19
ATOM     19  C   UNL     1       1.456  -8.833   3.794  0.00  0.00    +0.213 C 
BRANCH  19  20
ATOM     20  N   UNL     1       1.509 -10.295   3.754  0.00  0.00    -0.215 N 
ATOM     21  C   UNL     1       0.472 -11.104   4.064  0.00  0.00    +0.247 C 
ATOM     22  O   UNL     1      -0.676 -10.762   4.244  0.00  0.00    -0.273 OA
ATOM     23  C   UNL     1       1.053 -12.496   4.127  0.00  0.00    +0.113 C 
ATOM     24  C   UNL     1       0.231 -13.466   3.294  0.00  0.00    +0.038 C 
ATOM     25  C   UNL     1      -1.095 -13.765   3.995  0.00  0.00    -0.011 C 
ATOM     26  C   UNL     1      -0.797 -14.434   5.335  0.00  0.00    +0.009 C 
ATOM     27  C   UNL     1       0.011 -13.510   6.240  0.00  0.00    -0.032 C 
ATOM     28  C   UNL     1       1.252 -12.963   5.555  0.00  0.00    +0.041 C 
ATOM     29  C   UNL     1       0.464 -14.331   7.466  0.00  0.00    +0.011 C 
ATOM     30  C   UNL     1      -0.873 -12.370   6.752  0.00  0.00    +0.011 C 
ATOM     31  C   UNL     1      -1.923 -14.718   3.126  0.00  0.00    +0.007 C 
ATOM     32  N   UNL     1       2.381 -12.329   3.495  0.00  0.00    -0.285 N 
ATOM     33  C   UNL     1       2.581 -11.004   3.381  0.00  0.00    +0.310 C 
ATOM     34  O   UNL     1       3.617 -10.505   2.985  0.00  0.00    -0.252 OA
ATOM     35  H   UNL     1       2.976 -13.041   3.223  0.00  0.00    +0.151 HD
ENDBRANCH  19  20
ENDBRANCH   2  19
TORSDOF 5
