REMARK  Name = ZINC35815388
REMARK  11 active torsions:
REMARK  status: ('A' for Active; 'I' for Inactive)
REMARK    1  A    between atoms: C_1  and  C_2
REMARK    2  A    between atoms: C_7  and  C_9
REMARK    3  A    between atoms: C_7  and  C_10
REMARK    4  A    between atoms: C_13  and  C_15
REMARK    5  A    between atoms: C_15  and  C_16
REMARK    6  A    between atoms: C_22  and  C_24
REMARK    7  A    between atoms: C_24  and  N_25
REMARK    8  A    between atoms: N_25  and  C_26
REMARK    9  A    between atoms: C_29  and  C_31
REMARK   10  A    between atoms: C_34  and  O_37
REMARK   11  A    between atoms: O_37  and  C_38
REMARK                            x       y       z     vdW  Elec       q    Type
REMARK                         _______ _______ _______ _____ _____    ______ ____
ROOT
ATOM      1  C   UNL     1       3.861  -5.974  -1.996  0.00  0.00    +0.059 A 
ATOM      2  C   UNL     1       4.163  -5.246  -3.099  0.00  0.00    +0.072 A 
ATOM      3  S   UNL     1       3.728  -6.402  -4.389  0.00  0.00    -0.060 S 
ATOM      4  C   UNL     1       3.216  -7.668  -3.405  0.00  0.00    +0.165 A 
ATOM      5  N   UNL     1       3.391  -7.192  -2.191  0.00  0.00    -0.229 NA
ATOM      6  N   UNL     1       2.732  -8.914  -3.783  0.00  0.00    -0.263 N 
ATOM      7  C   UNL     1       2.627  -9.229  -5.090  0.00  0.00    +0.236 C 
ATOM      8  O   UNL     1       2.956  -8.424  -5.935  0.00  0.00    -0.274 OA
ATOM      9  H   UNL     1       2.469  -9.558  -3.107  0.00  0.00    +0.157 HD
ENDROOT
BRANCH   1  10
ATOM     10  C   UNL     1       4.059  -5.420  -0.608  0.00  0.00    +0.152 C 
BRANCH  10  22
ATOM     11  C   UNL     1       3.922  -2.943   4.241  0.00  0.00    +0.013 C 
ATOM     12  C   UNL     1       3.265  -4.178   3.605  0.00  0.00    -0.014 C 
ATOM     13  C   UNL     1       1.750  -3.968   3.336  0.00  0.00    +0.030 C 
ATOM     14  C   UNL     1       1.512  -5.098   2.303  0.00  0.00    +0.077 C 
ATOM     15  C   UNL     1       1.483  -6.416   3.074  0.00  0.00    +0.029 C 
ATOM     16  C   UNL     1       2.724  -6.666   3.911  0.00  0.00    -0.033 C 
ATOM     17  C   UNL     1       3.405  -5.430   4.469  0.00  0.00    +0.014 C 
ATOM     18  C   UNL     1       3.730  -7.508   3.112  0.00  0.00    +0.011 C 
ATOM     19  C   UNL     1       2.292  -7.534   5.119  0.00  0.00    +0.011 C 
ATOM     20  N   UNL     1       2.704  -5.072   1.432  0.00  0.00    -0.298 N 
ATOM     21  C   UNL     1       3.812  -4.471   2.190  0.00  0.00    +0.114 C 
ATOM     22  C   UNL     1       2.765  -5.512   0.159  0.00  0.00    +0.222 C 
ATOM     23  O   UNL     1       1.780  -5.982  -0.368  0.00  0.00    -0.275 OA
ENDBRANCH  10  22
ENDBRANCH   1  10
BRANCH   7  24
ATOM     24  C   UNL     1       2.102 -10.580  -5.500  0.00  0.00    +0.204 C 
BRANCH  24  25
ATOM     25  N   UNL     1       2.087 -10.675  -6.962  0.00  0.00    -0.286 N 
ATOM     26  C   UNL     1       0.913 -10.663  -7.625  0.00  0.00    +0.247 C 
ATOM     27  O   UNL     1       0.894 -10.833  -8.829  0.00  0.00    -0.270 OA
BRANCH  26  28
ATOM     28  C   UNL     1      -0.348 -10.443  -6.890  0.00  0.00    +0.037 A 
ATOM     29  C   UNL     1      -0.346  -9.711  -5.700  0.00  0.00    +0.016 A 
ATOM     30  C   UNL     1      -1.525  -9.508  -5.017  0.00  0.00    +0.046 A 
ATOM     31  C   UNL     1      -2.715 -10.029  -5.511  0.00  0.00    +0.120 A 
ATOM     32  C   UNL     1      -2.721 -10.758  -6.695  0.00  0.00    +0.046 A 
ATOM     33  C   UNL     1      -1.547 -10.961  -7.386  0.00  0.00    +0.016 A 
BRANCH  31  34
ATOM     34  O   UNL     1      -3.874  -9.827  -4.835  0.00  0.00    -0.495 OA
ATOM     35  C   UNL     1      -5.061 -10.391  -5.399  0.00  0.00    +0.277 C 
ENDBRANCH  31  34
ENDBRANCH  26  28
BRANCH  25  36
ATOM     36  C   UNL     1       3.346 -10.782  -7.702  0.00  0.00    +0.077 C 
ATOM     37  C   UNL     1       3.310 -10.489  -9.204  0.00  0.00    +0.024 C 
ATOM     38  C   UNL     1       3.478 -11.927  -8.709  0.00  0.00    +0.024 C 
ENDBRANCH  25  36
ENDBRANCH  24  25
ENDBRANCH   7  24
TORSDOF 7
