REMARK  Name = ZINC02469631
REMARK  5 active torsions:
REMARK  status: ('A' for Active; 'I' for Inactive)
REMARK    1  A    between atoms: C_1  and  C_2
REMARK    2  A    between atoms: C_2  and  C_3
REMARK    3  A    between atoms: C_2  and  C_4
REMARK    4  A    between atoms: C_2  and  N_5
REMARK    5  A    between atoms: N_5  and  C_6
REMARK                            x       y       z     vdW  Elec       q    Type
REMARK                         _______ _______ _______ _____ _____    ______ ____
ROOT
ATOM      1  C   UNL     1       1.989  -0.128  -1.430  0.00  0.00    +0.055 C 
ATOM      2  C   UNL     1       2.774   0.641  -0.642  0.00  0.00    +0.114 C 
ATOM      3  C   UNL     1       4.049   0.766  -1.224  0.00  0.00    +0.334 C 
ATOM      4  O   UNL     1       4.116   0.089  -2.387  0.00  0.00    -0.449 OA
ATOM      5  C   UNL     1       2.845  -0.527  -2.608  0.00  0.00    +0.151 C 
ATOM      6  C   UNL     1       2.990  -2.046  -2.659  0.00  0.00    +0.054 C 
ATOM      7  C   UNL     1       3.875  -2.436  -3.846  0.00  0.00    +0.004 C 
ATOM      8  C   UNL     1       3.240  -1.930  -5.143  0.00  0.00    +0.000 C 
ATOM      9  C   UNL     1       3.114  -0.406  -5.088  0.00  0.00    +0.004 C 
ATOM     10  C   UNL     1       2.227  -0.010  -3.905  0.00  0.00    +0.054 C 
ATOM     11  O   UNL     1       4.968   1.401  -0.742  0.00  0.00    -0.246 OA
ENDROOT
BRANCH   1  12
ATOM     12  N   UNL     1       0.688  -0.476  -1.203  0.00  0.00    -0.339 N 
ATOM     13  H   UNL     1       0.218  -1.037  -1.840  0.00  0.00    +0.146 HD
BRANCH  12  15
ATOM     14  C   UNL     1      -0.019   1.526   0.010  0.00  0.00    +0.031 C 
ATOM     15  C   UNL     1       0.002  -0.004   0.002  0.00  0.00    +0.024 C 
ATOM     16  C   UNL     1       0.742  -0.511   1.242  0.00  0.00    +0.031 C 
ATOM     17  C   UNL     1      -1.433  -0.534   0.013  0.00  0.00    +0.031 C 
ENDBRANCH  12  15
ENDBRANCH   1  12
TORSDOF 2
