REMARK  Name = ZINC34710571
REMARK  7 active torsions:
REMARK  status: ('A' for Active; 'I' for Inactive)
REMARK    1  A    between atoms: C_1  and  C_2
REMARK    2  A    between atoms: C_6  and  C_8
REMARK    3  A    between atoms: C_11  and  C_22
REMARK    4  A    between atoms: N_18  and  C_19
REMARK    5  A    between atoms: C_19  and  C_20
REMARK    6  A    between atoms: C_19  and  C_21
REMARK    7  A    between atoms: N_24  and  C_25
REMARK                            x       y       z     vdW  Elec       q    Type
REMARK                         _______ _______ _______ _____ _____    ______ ____
ROOT
ATOM      1  C   UNL     1       0.049  -2.843   2.494  0.00  0.00    +0.037 C 
ATOM      2  C   UNL     1      -1.185  -3.745   2.574  0.00  0.00    +0.024 C 
ATOM      3  C   UNL     1      -1.184  -4.497   3.907  0.00  0.00    +0.093 C 
ATOM      4  C   UNL     1       0.065  -5.380   3.989  0.00  0.00    +0.122 C 
ATOM      5  N   UNL     1       1.252  -4.542   3.768  0.00  0.00    -0.284 N 
ATOM      6  C   UNL     1       1.313  -3.707   2.561  0.00  0.00    +0.117 C 
ATOM      7  C   UNL     1       2.265  -4.538   4.657  0.00  0.00    +0.302 C 
ATOM      8  O   UNL     1       2.163  -5.159   5.698  0.00  0.00    -0.253 OA
ATOM      9  N   UNL     1       3.392  -3.848   4.392  0.00  0.00    -0.297 N 
ATOM     10  H   UNL     1       3.446  -3.295   3.597  0.00  0.00    +0.150 HD
ENDROOT
BRANCH   1  16
ATOM     11  C   UNL     1      -0.034   1.512   0.030  0.00  0.00    +0.044 C 
ATOM     12  C   UNL     1      -0.010   0.005   0.017  0.00  0.00    -0.050 A 
ATOM     13  C   UNL     1      -0.005  -0.676  -1.187  0.00  0.00    +0.003 A 
ATOM     14  C   UNL     1       0.017  -2.058  -1.199  0.00  0.00    +0.001 A 
ATOM     15  C   UNL     1       0.035  -2.760  -0.007  0.00  0.00    +0.004 A 
ATOM     16  C   UNL     1       0.031  -2.079   1.196  0.00  0.00    -0.043 A 
ATOM     17  C   UNL     1       0.013  -0.696   1.208  0.00  0.00    +0.007 A 
ENDBRANCH   1  16
BRANCH   3  18
ATOM     18  C   UNL     1      -1.178  -3.507   5.043  0.00  0.00    +0.218 C 
ATOM     19  O   UNL     1      -1.174  -2.317   4.810  0.00  0.00    -0.275 OA
ATOM     20  N   UNL     1      -1.176  -3.945   6.318  0.00  0.00    -0.312 N 
ATOM     21  H   UNL     1      -1.179  -4.897   6.504  0.00  0.00    +0.149 HD
BRANCH  20  22
ATOM     22  C   UNL     1      -1.169  -2.982   7.422  0.00  0.00    +0.073 C 
ATOM     23  C   UNL     1      -2.103  -3.256   8.603  0.00  0.00    +0.024 C 
ATOM     24  C   UNL     1      -0.594  -3.448   8.761  0.00  0.00    +0.024 C 
ENDBRANCH  20  22
ENDBRANCH   3  18
BRANCH   9  25
ATOM     25  C   UNL     1       4.534  -3.932   5.305  0.00  0.00    +0.068 C 
ATOM     26  C   UNL     1       5.378  -5.159   4.954  0.00  0.00    +0.027 C 
ATOM     27  C   UNL     1       5.388  -2.670   5.170  0.00  0.00    +0.027 C 
ENDBRANCH   9  25
TORSDOF 4
