REMARK  Name = ZINC39590161
REMARK  4 active torsions:
REMARK  status: ('A' for Active; 'I' for Inactive)
REMARK    1  A    between atoms: C_5  and  N_7
REMARK    2  A    between atoms: C_13  and  C_15
REMARK    3  A    between atoms: C_18  and  N_22
REMARK    4  A    between atoms: C_23  and  C_25
REMARK                            x       y       z     vdW  Elec       q    Type
REMARK                         _______ _______ _______ _____ _____    ______ ____
ROOT
ATOM      1  C   UNL     1       0.027  -6.629  -1.306  0.00  0.00    +0.086 C 
ATOM      2  C   UNL     1      -0.064  -7.974  -1.297  0.00  0.00    +0.021 C 
ATOM      3  N   UNL     1      -0.153  -8.668  -0.143  0.00  0.00    -0.320 N 
ATOM      4  C   UNL     1      -0.772 -10.010  -0.215  0.00  0.00    +0.219 C 
ATOM      5  S   UNL     1      -0.327 -10.489  -1.941  0.00  0.00    -0.114 S 
ATOM      6  C   UNL     1      -0.077  -8.780  -2.586  0.00  0.00    +0.123 C 
ATOM      7  H   UNL     1       0.173  -8.304   0.695  0.00  0.00    +0.148 HD
ENDROOT
BRANCH   1  14
ATOM      8  N   UNL     1      -1.125  -2.134  -0.081  0.00  0.00    -0.325 N 
ATOM      9  C   UNL     1      -1.122  -2.883  -1.346  0.00  0.00    +0.124 C 
ATOM     10  C   UNL     1       0.088  -3.824  -1.355  0.00  0.00    +0.127 C 
ATOM     11  N   UNL     1       0.112  -4.571  -0.089  0.00  0.00    -0.295 N 
ATOM     12  C   UNL     1       0.109  -3.822   1.175  0.00  0.00    +0.127 C 
ATOM     13  C   UNL     1      -1.096  -2.880   1.184  0.00  0.00    +0.124 C 
ATOM     14  C   UNL     1       0.136  -5.918  -0.088  0.00  0.00    +0.241 C 
ATOM     15  O   UNL     1       0.251  -6.524   0.962  0.00  0.00    -0.271 OA
BRANCH   8  20
ATOM     16  C   UNL     1       0.012   1.363  -0.099  0.00  0.00    +0.002 A 
ATOM     17  C   UNL     1      -1.198   2.032  -0.084  0.00  0.00    +0.003 A 
ATOM     18  C   UNL     1      -2.385   1.323  -0.068  0.00  0.00    +0.040 A 
ATOM     19  C   UNL     1      -2.365  -0.060  -0.067  0.00  0.00    +0.144 A 
ATOM     20  C   UNL     1      -1.150  -0.735  -0.082  0.00  0.00    +0.065 A 
ATOM     21  C   UNL     1       0.039  -0.019  -0.098  0.00  0.00    +0.026 A 
ATOM     22  F   UNL     1      -3.525  -0.753  -0.052  0.00  0.00    -0.204 F 
ENDBRANCH   8  20
ENDBRANCH   1  14
BRANCH   4  23
ATOM     23  N   UNL     1      -0.173 -10.924   0.761  0.00  0.00    -0.284 N 
ATOM     24  C   UNL     1      -0.788 -12.085   1.063  0.00  0.00    +0.251 C 
ATOM     25  O   UNL     1      -1.884 -12.331   0.597  0.00  0.00    -0.270 OA
ATOM     26  H   UNL     1       0.666 -10.694   1.190  0.00  0.00    +0.152 HD
BRANCH  24  27
ATOM     27  C   UNL     1      -0.133 -13.053   1.956  0.00  0.00    +0.101 A 
ATOM     28  C   UNL     1      -0.701 -14.305   2.182  0.00  0.00    +0.020 A 
ATOM     29  C   UNL     1      -0.051 -15.197   3.035  0.00  0.00    +0.018 A 
ATOM     30  C   UNL     1       1.115 -14.842   3.632  0.00  0.00    +0.086 A 
ATOM     31  N   UNL     1       1.672 -13.626   3.417  0.00  0.00    -0.328 N 
ATOM     32  C   UNL     1       1.090 -12.730   2.598  0.00  0.00    +0.261 A 
ATOM     33  O   UNL     1       1.609 -11.643   2.413  0.00  0.00    -0.267 OA
ATOM     34  H   UNL     1       2.506 -13.399   3.858  0.00  0.00    +0.168 HD
ENDBRANCH  24  27
ENDBRANCH   4  23
TORSDOF 4
