REMARK  Name = ZINC09713782
REMARK  12 active torsions:
REMARK  status: ('A' for Active; 'I' for Inactive)
REMARK    1  A    between atoms: C_1  and  C_2
REMARK    2  A    between atoms: C_2  and  C_4
REMARK    3  A    between atoms: C_2  and  N_33
REMARK    4  A    between atoms: C_7  and  S_16
REMARK    5  A    between atoms: N_8  and  C_9
REMARK    6  A    between atoms: S_16  and  C_17
REMARK    7  A    between atoms: C_17  and  C_18
REMARK    8  A    between atoms: C_18  and  C_20
REMARK    9  A    between atoms: C_21  and  N_32
REMARK   10  A    between atoms: N_22  and  C_29
REMARK   11  A    between atoms: N_33  and  C_34
REMARK   12  A    between atoms: N_33  and  C_35
REMARK                            x       y       z     vdW  Elec       q    Type
REMARK                         _______ _______ _______ _____ _____    ______ ____
ROOT
ATOM      1  S   UNL     1      -5.407  -0.787  -1.873  0.00  0.00    -0.078 S 
ENDROOT
BRANCH   1   5
ATOM      2  C   UNL     1      -2.918   1.996  -0.733  0.00  0.00    +0.125 A 
ATOM      3  N   UNL     1      -3.653   1.820   0.328  0.00  0.00    -0.135 NA
ATOM      4  N   UNL     1      -4.539   0.916   0.108  0.00  0.00    -0.122 NA
ATOM      5  C   UNL     1      -4.418   0.459  -1.117  0.00  0.00    +0.196 A 
ATOM      6  N   UNL     1      -3.382   1.139  -1.696  0.00  0.00    -0.275 N 
BRANCH   6   7
ATOM      7  C   UNL     1      -2.894   0.988  -3.003  0.00  0.00    +0.050 A 
ATOM      8  C   UNL     1      -2.990   2.037  -3.906  0.00  0.00    +0.029 A 
ATOM      9  C   UNL     1      -2.509   1.886  -5.192  0.00  0.00    +0.040 A 
ATOM     10  C   UNL     1      -1.932   0.689  -5.581  0.00  0.00    +0.124 A 
ATOM     11  C   UNL     1      -1.835  -0.359  -4.681  0.00  0.00    +0.040 A 
ATOM     12  C   UNL     1      -2.310  -0.210  -3.392  0.00  0.00    +0.029 A 
ATOM     13  F   UNL     1      -1.463   0.542  -6.839  0.00  0.00    -0.205 F 
ENDBRANCH   6   7
BRANCH   2  15
ATOM     14  C   UNL     1      -2.324   4.386  -1.018  0.00  0.00    -0.005 C 
ATOM     15  C   UNL     1      -1.774   2.966  -0.877  0.00  0.00    -0.003 C 
BRANCH  15  16
ATOM     16  N   UNL     1      -0.914   2.889   0.312  0.00  0.00    +0.382 N 
ATOM     17  C   UNL     1      -0.386   1.525   0.447  0.00  0.00    -0.096 C 
ATOM     18  C   UNL     1       0.201   3.835   0.172  0.00  0.00    -0.096 C 
ATOM     19  H   UNL     1      -1.453   3.124   1.132  0.00  0.00    -0.082 HD
ENDBRANCH  15  16
ENDBRANCH   2  15
ENDBRANCH   1   5
BRANCH   1  20
ATOM     20  C   UNL     1      -6.587  -1.257  -0.578  0.00  0.00    +0.157 C 
BRANCH  20  21
ATOM     21  C   UNL     1      -7.506  -2.331  -1.101  0.00  0.00    +0.182 C 
ATOM     22  O   UNL     1      -7.377  -2.740  -2.238  0.00  0.00    -0.291 OA
BRANCH  21  23
ATOM     23  C   UNL     1      -8.515  -2.862  -0.271  0.00  0.00    +0.120 A 
ATOM     24  C   UNL     1      -9.469  -3.765  -0.774  0.00  0.00    +0.116 A 
ATOM     25  N   UNL     1     -10.427  -4.252   0.069  0.00  0.00    -0.278 N 
ATOM     26  C   UNL     1     -10.472  -3.885   1.359  0.00  0.00    +0.331 A 
ATOM     27  O   UNL     1     -11.345  -4.347   2.068  0.00  0.00    -0.246 OA
ATOM     28  N   UNL     1      -9.589  -3.027   1.895  0.00  0.00    -0.274 N 
ATOM     29  H   UNL     1      -9.661  -2.791   2.833  0.00  0.00    +0.173 HD
ATOM     30  C   UNL     1      -8.601  -2.494   1.148  0.00  0.00    +0.266 A 
ATOM     31  O   UNL     1      -7.799  -1.721   1.639  0.00  0.00    -0.267 OA
BRANCH  25  32
ATOM     32  C   UNL     1     -11.424  -5.193  -0.446  0.00  0.00    +0.094 C 
ATOM     33  C   UNL     1     -11.693  -6.457   0.373  0.00  0.00    +0.027 C 
ATOM     34  C   UNL     1     -10.924  -6.550  -0.946  0.00  0.00    +0.027 C 
ENDBRANCH  25  32
BRANCH  24  35
ATOM     35  N   UNL     1      -9.438  -4.146  -2.080  0.00  0.00    -0.344 N 
ATOM     36  H   UNL     1      -8.598  -4.147  -2.565  0.00  0.00    +0.144 HD
ATOM     37  H   UNL     1     -10.255  -4.418  -2.525  0.00  0.00    +0.144 HD
ENDBRANCH  24  35
ENDBRANCH  21  23
ENDBRANCH  20  21
ENDBRANCH   1  20
TORSDOF 9
