REMARK  Name = ZINC14579125
REMARK  14 active torsions:
REMARK  status: ('A' for Active; 'I' for Inactive)
REMARK    1  A    between atoms: C_1  and  C_2
REMARK    2  A    between atoms: C_2  and  C_3
REMARK    3  A    between atoms: C_2  and  C_4
REMARK    4  A    between atoms: C_4  and  C_5
REMARK    5  A    between atoms: C_5  and  N_6
REMARK    6  A    between atoms: N_6  and  C_7
REMARK    7  A    between atoms: C_8  and  N_23
REMARK    8  A    between atoms: N_9  and  C_16
REMARK    9  A    between atoms: C_16  and  C_17
REMARK   10  A    between atoms: C_24  and  C_26
REMARK   11  A    between atoms: C_29  and  C_32
REMARK   12  A    between atoms: C_32  and  C_33
REMARK   13  A    between atoms: C_32  and  C_34
REMARK   14  A    between atoms: C_32  and  C_35
REMARK                            x       y       z     vdW  Elec       q    Type
REMARK                         _______ _______ _______ _____ _____    ______ ____
ROOT
ATOM      1  C   UNL     1      -2.745   4.271   0.011  0.00  0.00    +0.140 A 
ATOM      2  C   UNL     1      -3.186   5.171  -0.938  0.00  0.00    +0.128 A 
ATOM      3  N   UNL     1      -4.399   5.795  -0.760  0.00  0.00    -0.276 N 
ATOM      4  C   UNL     1      -5.143   5.537   0.331  0.00  0.00    +0.331 A 
ATOM      5  O   UNL     1      -6.210   6.102   0.473  0.00  0.00    -0.246 OA
ATOM      6  N   UNL     1      -4.727   4.667   1.269  0.00  0.00    -0.273 N 
ATOM      7  H   UNL     1      -5.299   4.494   2.070  0.00  0.00    +0.173 HD
ATOM      8  C   UNL     1      -3.549   4.026   1.140  0.00  0.00    +0.277 A 
ATOM      9  O   UNL     1      -3.182   3.239   1.996  0.00  0.00    -0.266 OA
ENDROOT
BRANCH   1  10
ATOM     10  N   UNL     1      -1.508   3.613  -0.145  0.00  0.00    -0.260 N 
ATOM     11  C   UNL     1      -1.456   2.266  -0.145  0.00  0.00    +0.251 C 
ATOM     12  O   UNL     1      -0.382   1.698  -0.184  0.00  0.00    -0.270 OA
BRANCH  11  13
ATOM     13  C   UNL     1      -2.707   1.479  -0.097  0.00  0.00    +0.037 A 
ATOM     14  C   UNL     1      -3.913   2.054  -0.499  0.00  0.00    +0.013 A 
ATOM     15  C   UNL     1      -5.077   1.316  -0.447  0.00  0.00    +0.005 A 
ATOM     16  C   UNL     1      -5.051   0.007   0.003  0.00  0.00    -0.042 A 
ATOM     17  C   UNL     1      -3.858  -0.569   0.402  0.00  0.00    +0.005 A 
ATOM     18  C   UNL     1      -2.687   0.158   0.355  0.00  0.00    +0.013 A 
BRANCH  16  19
ATOM     19  C   UNL     1      -6.326  -0.793   0.057  0.00  0.00    -0.013 C 
ATOM     20  C   UNL     1      -6.591  -1.234   1.498  0.00  0.00    +0.015 C 
ATOM     21  C   UNL     1      -7.491   0.069  -0.434  0.00  0.00    +0.015 C 
ATOM     22  C   UNL     1      -6.192  -2.027  -0.837  0.00  0.00    +0.015 C 
ENDBRANCH  16  19
ENDBRANCH  11  13
BRANCH  10  23
ATOM     23  C   UNL     1      -0.278   4.393  -0.307  0.00  0.00    +0.114 C 
BRANCH  23  24
ATOM     24  C   UNL     1       0.402   4.560   1.053  0.00  0.00    +0.022 C 
BRANCH  24  26
ATOM     25  C   UNL     1       1.179   6.875   0.521  0.00  0.00    +0.007 C 
ATOM     26  C   UNL     1       1.629   5.463   0.902  0.00  0.00    -0.016 C 
ATOM     27  C   UNL     1       2.393   5.511   2.226  0.00  0.00    +0.007 C 
ENDBRANCH  24  26
ENDBRANCH  23  24
ENDBRANCH  10  23
ENDBRANCH   1  10
BRANCH   2  28
ATOM     28  N   UNL     1      -2.424   5.438  -2.050  0.00  0.00    -0.343 N 
ATOM     29  H   UNL     1      -1.608   4.938  -2.211  0.00  0.00    +0.144 HD
ATOM     30  H   UNL     1      -2.701   6.126  -2.675  0.00  0.00    +0.144 HD
ENDBRANCH   2  28
BRANCH   3  31
ATOM     31  C   UNL     1      -4.881   6.749  -1.761  0.00  0.00    +0.163 C 
BRANCH  31  32
ATOM     32  C   UNL     1      -4.396   8.132  -1.412  0.00  0.00    -0.028 A 
ATOM     33  C   UNL     1      -5.165   8.951  -0.606  0.00  0.00    +0.005 A 
ATOM     34  C   UNL     1      -4.717  10.219  -0.282  0.00  0.00    +0.000 A 
ATOM     35  C   UNL     1      -3.506  10.670  -0.772  0.00  0.00    +0.000 A 
ATOM     36  C   UNL     1      -2.740   9.853  -1.582  0.00  0.00    +0.000 A 
ATOM     37  C   UNL     1      -3.185   8.584  -1.902  0.00  0.00    +0.005 A 
ENDBRANCH  31  32
ENDBRANCH   3  31
TORSDOF 9
