REMARK  Name = ZINC21233343
REMARK  11 active torsions:
REMARK  status: ('A' for Active; 'I' for Inactive)
REMARK    1  A    between atoms: C_1  and  O_2
REMARK    2  A    between atoms: O_2  and  C_3
REMARK    3  A    between atoms: C_6  and  C_10
REMARK    4  A    between atoms: C_8  and  O_9
REMARK    5  A    between atoms: C_15  and  C_20
REMARK    6  A    between atoms: C_22  and  O_30
REMARK    7  A    between atoms: C_23  and  O_28
REMARK    8  A    between atoms: C_24  and  O_26
REMARK    9  A    between atoms: O_26  and  C_27
REMARK   10  A    between atoms: O_28  and  C_29
REMARK   11  A    between atoms: O_30  and  C_31
REMARK                            x       y       z     vdW  Elec       q    Type
REMARK                         _______ _______ _______ _____ _____    ______ ____
ROOT
ATOM      1  C   UNL     1      -1.294  -0.774   0.010  0.00  0.00    +0.136 C 
ATOM      2  C   UNL     1      -1.503  -1.344   1.392  0.00  0.00    +0.036 C 
ATOM      3  C   UNL     1      -1.425  -2.643   1.729  0.00  0.00    +0.017 C 
ATOM      4  C   UNL     1      -1.666  -3.084   3.163  0.00  0.00    +0.059 C 
ATOM      5  C   UNL     1      -1.211  -1.992   4.129  0.00  0.00    +0.032 C 
ATOM      6  C   UNL     1      -2.016  -0.725   3.815  0.00  0.00    +0.088 C 
ATOM      7  C   UNL     1      -1.800  -0.370   2.374  0.00  0.00    +0.163 C 
ATOM      8  O   UNL     1      -1.883   0.795   2.039  0.00  0.00    -0.292 OA
ATOM      9  N   UNL     1      -1.151  -3.651   0.863  0.00  0.00    -0.316 N 
ATOM     10  C   UNL     1      -0.128  -3.635  -0.078  0.00  0.00    +0.052 A 
ATOM     11  C   UNL     1       0.945  -4.507  -0.020  0.00  0.00    +0.025 A 
ATOM     12  C   UNL     1       1.905  -4.468  -1.016  0.00  0.00    +0.002 A 
ATOM     13  C   UNL     1       1.791  -3.569  -2.061  0.00  0.00    +0.002 A 
ATOM     14  C   UNL     1       0.728  -2.684  -2.111  0.00  0.00    +0.025 A 
ATOM     15  C   UNL     1      -0.223  -2.706  -1.103  0.00  0.00    +0.049 A 
ATOM     16  N   UNL     1      -1.247  -1.760  -1.048  0.00  0.00    -0.331 N 
ATOM     17  H   UNL     1      -1.762  -4.566   0.873  0.00  0.00    +0.152 HD
ATOM     18  H   UNL     1      -2.026  -1.772  -1.824  0.00  0.00    +0.147 HD
ENDROOT
BRANCH   1  22
ATOM     19  C   UNL     1       2.380   1.415  -0.013  0.00  0.00    +0.161 A 
ATOM     20  C   UNL     1       1.180   2.069  -0.241  0.00  0.00    +0.050 A 
ATOM     21  C   UNL     1      -0.006   1.358  -0.233  0.00  0.00    +0.009 A 
ATOM     22  C   UNL     1       0.002  -0.004   0.002  0.00  0.00    -0.019 A 
ATOM     23  C   UNL     1       1.196  -0.662   0.231  0.00  0.00    +0.055 A 
ATOM     24  C   UNL     1       2.388   0.044   0.225  0.00  0.00    +0.159 A 
BRANCH  19  26
ATOM     25  C   UNL     1       3.463   3.517  -0.270  0.00  0.00    +0.277 C 
ATOM     26  O   UNL     1       3.548   2.113  -0.020  0.00  0.00    -0.491 OA
ENDBRANCH  19  26
BRANCH  24  27
ATOM     27  O   UNL     1       3.564  -0.601   0.449  0.00  0.00    -0.503 OA
ATOM     28  H   UNL     1       3.569  -1.685   0.636  0.00  0.00    +0.292 HD
ENDBRANCH  24  27
ENDBRANCH   1  22
BRANCH   5  29
ATOM     29  C   UNL     1      -1.473  -2.425   5.549  0.00  0.00    -0.036 A 
ATOM     30  C   UNL     1      -2.764  -2.703   5.957  0.00  0.00    +0.053 A 
ATOM     31  C   UNL     1      -3.009  -3.107   7.261  0.00  0.00    +0.165 A 
ATOM     32  C   UNL     1      -1.955  -3.221   8.161  0.00  0.00    +0.204 A 
ATOM     33  C   UNL     1      -0.659  -2.935   7.747  0.00  0.00    +0.165 A 
ATOM     34  C   UNL     1      -0.422  -2.536   6.441  0.00  0.00    +0.053 A 
BRANCH  33  35
ATOM     35  O   UNL     1       0.375  -3.045   8.624  0.00  0.00    -0.491 OA
ATOM     36  C   UNL     1       1.679  -2.736   8.130  0.00  0.00    +0.277 C 
ENDBRANCH  33  35
BRANCH  32  37
ATOM     37  O   UNL     1      -2.192  -3.612   9.443  0.00  0.00    -0.488 OA
ATOM     38  C   UNL     1      -2.464  -2.583  10.396  0.00  0.00    +0.277 C 
ENDBRANCH  32  37
BRANCH  31  39
ATOM     39  O   UNL     1      -4.278  -3.386   7.661  0.00  0.00    -0.491 OA
ATOM     40  C   UNL     1      -5.311  -3.247   6.683  0.00  0.00    +0.277 C 
ENDBRANCH  31  39
ENDBRANCH   5  29
TORSDOF 7
