REMARK  Name = ZINC17185165
REMARK  10 active torsions:
REMARK  status: ('A' for Active; 'I' for Inactive)
REMARK    1  A    between atoms: C_1  and  C_2
REMARK    2  A    between atoms: N_9  and  N_10
REMARK    3  A    between atoms: N_10  and  C_11
REMARK    4  A    between atoms: C_11  and  N_13
REMARK    5  A    between atoms: N_13  and  C_14
REMARK    6  A    between atoms: C_20  and  C_22
REMARK    7  A    between atoms: C_20  and  C_23
REMARK    8  A    between atoms: C_24  and  O_31
REMARK    9  A    between atoms: C_27  and  C_29
REMARK   10  A    between atoms: C_27  and  C_30
REMARK                            x       y       z     vdW  Elec       q    Type
REMARK                         _______ _______ _______ _____ _____    ______ ____
ROOT
ATOM      1  C   UNL     1      -1.149   1.819  -0.132  0.00  0.00    +0.011 C 
ATOM      2  C   UNL     1      -0.746   0.343   0.027  0.00  0.00    -0.025 C 
ATOM      3  C   UNL     1      -2.010  -0.475  -0.122  0.00  0.00    +0.038 C 
ATOM      4  C   UNL     1      -1.920  -1.845   0.518  0.00  0.00    -0.059 C 
ATOM      5  C   UNL     1      -0.887  -2.196   1.263  0.00  0.00    +0.032 C 
ATOM      6  C   UNL     1      -0.821  -3.558   1.854  0.00  0.00    +0.208 C 
ATOM      7  O   UNL     1       0.206  -4.029   2.293  0.00  0.00    -0.286 OA
ATOM      8  C   UNL     1      -2.090  -4.317   1.863  0.00  0.00    +0.112 C 
ATOM      9  N   UNL     1      -2.489  -5.016   2.888  0.00  0.00    -0.181 NA
ATOM     10  C   UNL     1      -2.886  -4.210   0.574  0.00  0.00    +0.016 C 
ATOM     11  C   UNL     1      -3.106  -2.742   0.255  0.00  0.00    +0.044 C 
ATOM     12  C   UNL     1      -2.125  -4.892  -0.566  0.00  0.00    +0.018 C 
ATOM     13  C   UNL     1      -4.243  -4.901   0.758  0.00  0.00    +0.018 C 
ATOM     14  C   UNL     1       0.258  -1.268   1.584  0.00  0.00    +0.095 C 
ATOM     15  C   UNL     1      -0.183   0.189   1.439  0.00  0.00    +0.046 C 
ATOM     16  C   UNL     1       1.423  -1.537   0.638  0.00  0.00    +0.046 C 
ATOM     17  C   UNL     1       1.120  -1.208  -0.813  0.00  0.00    -0.031 C 
ATOM     18  C   UNL     1       0.298   0.049  -1.025  0.00  0.00    +0.013 C 
ATOM     19  C   UNL     1       0.448  -2.399  -1.507  0.00  0.00    +0.011 C 
ATOM     20  C   UNL     1       2.479  -0.992  -1.527  0.00  0.00    +0.011 C 
ENDROOT
BRANCH   9  21
ATOM     21  N   UNL     1      -1.703  -5.071   4.047  0.00  0.00    -0.218 N 
ATOM     22  H   UNL     1      -0.863  -4.589   4.087  0.00  0.00    +0.176 HD
BRANCH  21  23
ATOM     23  C   UNL     1      -2.116  -5.794   5.107  0.00  0.00    +0.154 C 
ATOM     24  S   UNL     1      -1.156  -5.861   6.523  0.00  0.00    -0.017 S 
BRANCH  23  25
ATOM     25  N   UNL     1      -3.284  -6.464   5.052  0.00  0.00    -0.296 N 
ATOM     26  H   UNL     1      -3.857  -6.377   4.275  0.00  0.00    +0.154 HD
BRANCH  25  27
ATOM     27  C   UNL     1      -3.670  -7.285   6.117  0.00  0.00    +0.033 A 
ATOM     28  C   UNL     1      -3.553  -6.830   7.424  0.00  0.00    +0.023 A 
ATOM     29  C   UNL     1      -3.936  -7.644   8.473  0.00  0.00    +0.002 A 
ATOM     30  C   UNL     1      -4.434  -8.909   8.223  0.00  0.00    +0.000 A 
ATOM     31  C   UNL     1      -4.552  -9.364   6.922  0.00  0.00    +0.002 A 
ATOM     32  C   UNL     1      -4.176  -8.554   5.869  0.00  0.00    +0.023 A 
ENDBRANCH  25  27
ENDBRANCH  23  25
ENDBRANCH  21  23
ENDBRANCH   9  21
BRANCH  14  33
ATOM     33  O   UNL     1       0.677  -1.486   2.941  0.00  0.00    -0.384 OA
ATOM     34  H   UNL     1       0.978  -2.387   3.120  0.00  0.00    +0.211 HD
ENDBRANCH  14  33
TORSDOF 5
