REMARK  Name = ZINC38744209
REMARK  8 active torsions:
REMARK  status: ('A' for Active; 'I' for Inactive)
REMARK    1  A    between atoms: C_1  and  C_2
REMARK    2  A    between atoms: C_9  and  C_10
REMARK    3  A    between atoms: C_9  and  C_11
REMARK    4  A    between atoms: C_13  and  N_15
REMARK    5  A    between atoms: C_16  and  C_18
REMARK    6  A    between atoms: C_21  and  N_24
REMARK    7  A    between atoms: C_25  and  N_37
REMARK    8  A    between atoms: C_27  and  C_29
REMARK                            x       y       z     vdW  Elec       q    Type
REMARK                         _______ _______ _______ _____ _____    ______ ____
ROOT
ATOM      1  C   UNL     1       4.579  -0.655   1.147  0.00  0.00    +0.037 A 
ATOM      2  C   UNL     1       4.875  -0.830  -0.207  0.00  0.00    +0.015 A 
ATOM      3  C   UNL     1       6.185  -0.950  -0.613  0.00  0.00    +0.028 A 
ATOM      4  C   UNL     1       7.213  -0.897   0.322  0.00  0.00    +0.067 A 
ATOM      5  C   UNL     1       6.921  -0.722   1.671  0.00  0.00    +0.028 A 
ATOM      6  C   UNL     1       5.614  -0.596   2.084  0.00  0.00    +0.015 A 
ENDROOT
BRANCH   4   7
ATOM      7  N   UNL     1       8.541  -1.019  -0.094  0.00  0.00    -0.218 N 
ATOM      8  C   UNL     1       9.614  -0.381   0.453  0.00  0.00    +0.120 A 
ATOM      9  C   UNL     1      10.719  -0.769  -0.235  0.00  0.00    +0.073 A 
ATOM     10  C   UNL     1      10.309  -1.673  -1.234  0.00  0.00    +0.095 A 
ATOM     11  N   UNL     1       9.004  -1.824  -1.142  0.00  0.00    -0.165 NA
BRANCH  10  12
ATOM     12  C   UNL     1      11.195  -2.344  -2.217  0.00  0.00    +0.004 A 
ATOM     13  C   UNL     1      12.568  -2.105  -2.199  0.00  0.00    +0.011 A 
ATOM     14  C   UNL     1      13.388  -2.731  -3.115  0.00  0.00    +0.022 A 
ATOM     15  C   UNL     1      12.850  -3.596  -4.052  0.00  0.00    +0.059 A 
ATOM     16  C   UNL     1      11.486  -3.838  -4.075  0.00  0.00    +0.060 A 
ATOM     17  C   UNL     1      10.658  -3.221  -3.158  0.00  0.00    +0.031 A 
ATOM     18 CL   UNL     1      10.818  -4.923  -5.253  0.00  0.00    -0.082 Cl
ATOM     19 CL   UNL     1      13.887  -4.381  -5.202  0.00  0.00    -0.082 Cl
ENDBRANCH  10  12
BRANCH   8  20
ATOM     20  N   UNL     1       9.583   0.508   1.523  0.00  0.00    -0.343 N 
ATOM     21  H   UNL     1       8.739   0.723   1.950  0.00  0.00    +0.144 HD
ATOM     22  H   UNL     1      10.405   0.913   1.841  0.00  0.00    +0.144 HD
ENDBRANCH   8  20
ENDBRANCH   4   7
BRANCH   1  24
ATOM     23  N   UNL     1       2.178  -0.582   0.682  0.00  0.00    -0.308 N 
ATOM     24  C   UNL     1       3.175  -0.525   1.587  0.00  0.00    +0.244 C 
ATOM     25  O   UNL     1       2.919  -0.368   2.765  0.00  0.00    -0.270 OA
ATOM     26  H   UNL     1       2.382  -0.707  -0.258  0.00  0.00    +0.149 HD
BRANCH  23  36
ATOM     27  C   UNL     1      -0.124   1.596  -0.024  0.00  0.00    +0.009 C 
ATOM     28  C   UNL     1      -0.058   0.066  -0.044  0.00  0.00    +0.010 C 
ATOM     29  C   UNL     1      -1.462  -0.537  -0.067  0.00  0.00    -0.000 C 
ATOM     30  C   UNL     1      -1.358  -2.070  -0.269  0.00  0.00    +0.008 C 
ATOM     31  C   UNL     1      -1.155  -2.101   1.261  0.00  0.00    -0.003 C 
ATOM     32  C   UNL     1      -2.070  -0.869   1.297  0.00  0.00    -0.029 C 
ATOM     33  C   UNL     1      -1.803   0.112   2.435  0.00  0.00    +0.011 C 
ATOM     34  C   UNL     1      -3.567  -1.229   1.224  0.00  0.00    +0.011 C 
ATOM     35  C   UNL     1       0.296  -1.805   1.636  0.00  0.00    +0.026 C 
ATOM     36  C   UNL     1       0.774  -0.452   1.122  0.00  0.00    +0.077 C 
ENDBRANCH  23  36
ENDBRANCH   1  24
TORSDOF 5
