REMARK  Name = ZINC35746184
REMARK  13 active torsions:
REMARK  status: ('A' for Active; 'I' for Inactive)
REMARK    1  A    between atoms: C_1  and  C_2
REMARK    2  A    between atoms: C_2  and  C_3
REMARK    3  A    between atoms: C_2  and  C_4
REMARK    4  A    between atoms: C_4  and  C_6
REMARK    5  A    between atoms: C_4  and  O_35
REMARK    6  A    between atoms: C_6  and  N_7
REMARK    7  A    between atoms: N_7  and  C_8
REMARK    8  A    between atoms: N_7  and  C_15
REMARK    9  A    between atoms: C_8  and  C_9
REMARK   10  A    between atoms: C_15  and  C_16
REMARK   11  A    between atoms: C_22  and  C_27
REMARK   12  A    between atoms: C_31  and  O_33
REMARK   13  A    between atoms: O_33  and  C_34
REMARK                            x       y       z     vdW  Elec       q    Type
REMARK                         _______ _______ _______ _____ _____    ______ ____
ROOT
ATOM      1  C   UNL     1       4.856  -1.058  -1.284  0.00  0.00    +0.094 A 
ATOM      2  N   UNL     1       6.192  -1.015  -1.046  0.00  0.00    -0.312 N 
ATOM      3  H   UNL     1       6.758  -0.467  -1.611  0.00  0.00    +0.170 HD
ATOM      4  C   UNL     1       6.746  -1.718  -0.041  0.00  0.00    +0.260 A 
ATOM      5  O   UNL     1       7.947  -1.669   0.160  0.00  0.00    -0.267 OA
ATOM      6  C   UNL     1       5.902  -2.524   0.789  0.00  0.00    +0.080 A 
ATOM      7  C   UNL     1       6.258  -3.365   1.925  0.00  0.00    +0.004 A 
ATOM      8  C   UNL     1       5.276  -4.045   2.566  0.00  0.00    +0.056 A 
ATOM      9  S   UNL     1       3.805  -3.587   1.669  0.00  0.00    -0.076 S 
ATOM     10  C   UNL     1       4.535  -2.506   0.467  0.00  0.00    +0.116 A 
ATOM     11  N   UNL     1       4.060  -1.780  -0.542  0.00  0.00    -0.229 NA
ENDROOT
BRANCH   7  12
ATOM     12  C   UNL     1       7.668  -3.475   2.371  0.00  0.00    -0.013 A 
ATOM     13  C   UNL     1       8.674  -3.753   1.446  0.00  0.00    +0.009 A 
ATOM     14  C   UNL     1       9.985  -3.855   1.864  0.00  0.00    +0.004 A 
ATOM     15  C   UNL     1      10.306  -3.683   3.198  0.00  0.00    +0.045 A 
ATOM     16  C   UNL     1       9.310  -3.407   4.125  0.00  0.00    +0.121 A 
ATOM     17  C   UNL     1       7.992  -3.296   3.714  0.00  0.00    +0.054 A 
BRANCH  16  18
ATOM     18  O   UNL     1       9.629  -3.239   5.436  0.00  0.00    -0.495 OA
ATOM     19  C   UNL     1      11.009  -3.360   5.788  0.00  0.00    +0.277 C 
ENDBRANCH  16  18
ENDBRANCH   7  12
BRANCH   1  20
ATOM     20  C   UNL     1       4.280  -0.253  -2.421  0.00  0.00    -0.003 C 
BRANCH  20  21
ATOM     21  N   UNL     1       2.826  -0.454  -2.476  0.00  0.00    +0.389 N 
ATOM     22  H   UNL     1       2.625  -1.440  -2.539  0.00  0.00    -0.081 HD
BRANCH  21  23
ATOM     23  C   UNL     1       2.210   0.095  -1.261  0.00  0.00    -0.046 C 
BRANCH  23  24
ATOM     24  C   UNL     1       0.719  -0.248  -1.245  0.00  0.00    +0.101 C 
BRANCH  24  26
ATOM     25  C   UNL     1       0.252   1.838   0.048  0.00  0.00    +0.010 C 
ATOM     26  C   UNL     1       0.079   0.318   0.024  0.00  0.00    +0.010 C 
ATOM     27  C   UNL     1      -1.412  -0.025   0.039  0.00  0.00    +0.010 C 
ENDBRANCH  24  26
BRANCH  24  28
ATOM     28  O   UNL     1       0.557  -1.668  -1.268  0.00  0.00    -0.393 OA
ATOM     29  H   UNL     1       0.962  -2.122  -0.517  0.00  0.00    +0.210 HD
ENDBRANCH  24  28
ENDBRANCH  23  24
ENDBRANCH  21  23
BRANCH  21  30
ATOM     30  C   UNL     1       2.281   0.233  -3.655  0.00  0.00    -0.042 C 
BRANCH  30  31
ATOM     31  C   UNL     1       2.806  -0.422  -4.906  0.00  0.00    -0.064 A 
ATOM     32  C   UNL     1       3.919   0.095  -5.542  0.00  0.00    +0.002 A 
ATOM     33  C   UNL     1       4.401  -0.506  -6.690  0.00  0.00    +0.000 A 
ATOM     34  C   UNL     1       3.770  -1.625  -7.201  0.00  0.00    +0.000 A 
ATOM     35  C   UNL     1       2.657  -2.142  -6.565  0.00  0.00    +0.000 A 
ATOM     36  C   UNL     1       2.178  -1.544  -5.415  0.00  0.00    +0.002 A 
ENDBRANCH  30  31
ENDBRANCH  21  30
ENDBRANCH  20  21
ENDBRANCH   1  20
TORSDOF 10
