REMARK  Name = ZINC36500210
REMARK  9 active torsions:
REMARK  status: ('A' for Active; 'I' for Inactive)
REMARK    1  A    between atoms: C_3  and  C_6
REMARK    2  A    between atoms: C_6  and  N_7
REMARK    3  A    between atoms: N_7  and  C_8
REMARK    4  A    between atoms: C_8  and  C_10
REMARK    5  A    between atoms: C_8  and  C_17
REMARK    6  A    between atoms: C_13  and  O_16
REMARK    7  A    between atoms: N_19  and  C_20
REMARK    8  A    between atoms: C_26  and  C_28
REMARK    9  A    between atoms: C_31  and  O_34
REMARK                            x       y       z     vdW  Elec       q    Type
REMARK                         _______ _______ _______ _____ _____    ______ ____
ROOT
ATOM      1  C   UNL     1       3.322   0.096   3.071  0.00  0.00    +0.193 C 
ENDROOT
BRANCH   1   2
ATOM      2  C   UNL     1       3.914  -1.236   2.689  0.00  0.00    -0.018 A 
ATOM      3  C   UNL     1       4.080  -1.561   1.355  0.00  0.00    +0.009 A 
ATOM      4  C   UNL     1       4.622  -2.782   1.003  0.00  0.00    +0.046 A 
ATOM      5  C   UNL     1       5.000  -3.682   1.988  0.00  0.00    +0.117 A 
ATOM      6  C   UNL     1       4.832  -3.354   3.326  0.00  0.00    +0.046 A 
ATOM      7  C   UNL     1       4.295  -2.130   3.673  0.00  0.00    +0.009 A 
BRANCH   5   8
ATOM      8  O   UNL     1       5.532  -4.884   1.644  0.00  0.00    -0.507 OA
ATOM      9  H   UNL     1       6.495  -4.878   1.558  0.00  0.00    +0.292 HD
ENDBRANCH   5   8
ENDBRANCH   1   2
BRANCH   1  10
ATOM     10  C   UNL     1       2.243  -0.111   4.103  0.00  0.00    +0.238 C 
ATOM     11  O   UNL     1       1.082  -0.177   3.760  0.00  0.00    -0.273 OA
ATOM     12  N   UNL     1       2.569  -0.221   5.406  0.00  0.00    -0.311 N 
ATOM     13  H   UNL     1       3.498  -0.168   5.680  0.00  0.00    +0.149 HD
BRANCH  12  14
ATOM     14  C   UNL     1       1.520  -0.422   6.408  0.00  0.00    +0.073 C 
ATOM     15  C   UNL     1       0.941   0.933   6.819  0.00  0.00    +0.022 C 
ATOM     16  C   UNL     1      -0.154   0.723   7.867  0.00  0.00    +0.002 C 
ATOM     17  C   UNL     1       0.439   0.029   9.094  0.00  0.00    +0.000 C 
ATOM     18  C   UNL     1       1.018  -1.326   8.683  0.00  0.00    +0.002 C 
ATOM     19  C   UNL     1       2.114  -1.117   7.636  0.00  0.00    +0.022 C 
ENDBRANCH  12  14
ENDBRANCH   1  10
BRANCH   1  20
ATOM     20  N   UNL     1       2.748   0.733   1.884  0.00  0.00    -0.275 N 
ATOM     21  C   UNL     1       3.210   1.930   1.471  0.00  0.00    +0.248 C 
ATOM     22  O   UNL     1       2.801   2.415   0.434  0.00  0.00    -0.270 OA
BRANCH  21  23
ATOM     23  C   UNL     1       4.214   2.652   2.277  0.00  0.00    +0.037 A 
ATOM     24  C   UNL     1       5.389   2.008   2.673  0.00  0.00    +0.016 A 
ATOM     25  C   UNL     1       6.323   2.685   3.425  0.00  0.00    +0.046 A 
ATOM     26  C   UNL     1       6.098   4.007   3.791  0.00  0.00    +0.117 A 
ATOM     27  C   UNL     1       4.930   4.651   3.399  0.00  0.00    +0.046 A 
ATOM     28  C   UNL     1       3.994   3.983   2.642  0.00  0.00    +0.016 A 
BRANCH  26  29
ATOM     29  O   UNL     1       7.020   4.670   4.533  0.00  0.00    -0.507 OA
ATOM     30  H   UNL     1       7.687   5.135   4.008  0.00  0.00    +0.292 HD
ENDBRANCH  26  29
ENDBRANCH  21  23
BRANCH  20  31
ATOM     31  C   UNL     1       1.670   0.070   1.146  0.00  0.00    +0.183 C 
BRANCH  31  34
ATOM     32  C   UNL     1      -1.078   2.440   0.500  0.00  0.00    +0.041 A 
ATOM     33  C   UNL     1       0.124   1.802   0.115  0.00  0.00    +0.046 A 
ATOM     34  C   UNL     1       0.458   0.965   1.114  0.00  0.00    +0.122 A 
ATOM     35  O   UNL     1      -0.472   1.062   2.078  0.00  0.00    -0.466 OA
ATOM     36  C   UNL     1      -1.406   1.955   1.711  0.00  0.00    +0.195 A 
ENDBRANCH  31  34
ENDBRANCH  20  31
ENDBRANCH   1  20
TORSDOF 9
