REMARK  Name = ZINC20707187
REMARK  7 active torsions:
REMARK  status: ('A' for Active; 'I' for Inactive)
REMARK    1  A    between atoms: C_1  and  C_2
REMARK    2  A    between atoms: C_6  and  C_35
REMARK    3  A    between atoms: C_7  and  N_8
REMARK    4  A    between atoms: N_8  and  S_9
REMARK    5  A    between atoms: S_9  and  C_12
REMARK    6  A    between atoms: C_25  and  C_28
REMARK    7  A    between atoms: C_33  and  O_34
REMARK                            x       y       z     vdW  Elec       q    Type
REMARK                         _______ _______ _______ _____ _____    ______ ____
ROOT
ATOM      1  C   UNL     1       4.680  -2.622  -1.266  0.00  0.00    +0.109 A 
ATOM      2  C   UNL     1       3.583  -2.801  -0.443  0.00  0.00    +0.030 A 
ATOM      3  C   UNL     1       2.693  -1.768  -0.239  0.00  0.00    +0.025 A 
ATOM      4  C   UNL     1       2.889  -0.540  -0.859  0.00  0.00    +0.031 A 
ATOM      5  C   UNL     1       4.008  -0.361  -1.679  0.00  0.00    -0.018 A 
ATOM      6  C   UNL     1       4.889  -1.401  -1.881  0.00  0.00    +0.034 A 
ATOM      7  C   UNL     1       4.194   0.968  -2.301  0.00  0.00    +0.049 C 
ATOM      8  C   UNL     1       4.941   1.123  -3.577  0.00  0.00    -0.023 C 
ATOM      9  C   UNL     1       4.425   2.146  -4.248  0.00  0.00    -0.030 C 
ATOM     10  C   UNL     1       3.249   2.742  -3.471  0.00  0.00    +0.033 C 
ATOM     11  C   UNL     1       2.784   1.536  -2.643  0.00  0.00    +0.029 C 
ATOM     12  C   UNL     1       2.129   1.826  -1.304  0.00  0.00    +0.108 C 
ATOM     13  N   UNL     1       1.958   0.510  -0.650  0.00  0.00    -0.336 N 
ATOM     14  H   UNL     1       1.098   0.332   0.011  0.00  0.00    +0.147 HD
ENDROOT
BRANCH  12  15
ATOM     15  C   UNL     1       0.789   2.482  -1.511  0.00  0.00    +0.014 A 
ATOM     16  C   UNL     1      -0.369   1.733  -1.423  0.00  0.00    +0.009 A 
ATOM     17  C   UNL     1      -1.599   2.333  -1.618  0.00  0.00    +0.001 A 
ATOM     18  C   UNL     1      -1.675   3.687  -1.891  0.00  0.00    +0.004 A 
ATOM     19  C   UNL     1      -0.520   4.440  -1.980  0.00  0.00    +0.046 A 
ATOM     20  C   UNL     1       0.716   3.839  -1.790  0.00  0.00    +0.122 A 
BRANCH  20  21
ATOM     21  O   UNL     1       1.853   4.578  -1.877  0.00  0.00    -0.506 OA
ATOM     22  H   UNL     1       1.794   5.654  -2.098  0.00  0.00    +0.292 HD
ENDBRANCH  20  21
ENDBRANCH  12  15
BRANCH   1  23
ATOM     23  S   UNL     1       5.811  -3.947  -1.530  0.00  0.00    +0.072 S 
ATOM     24  O   UNL     1       7.011  -3.366  -2.019  0.00  0.00    -0.150 OA
ATOM     25  O   UNL     1       5.775  -4.751  -0.359  0.00  0.00    -0.150 OA
BRANCH  23  26
ATOM     26  N   UNL     1       5.199  -4.874  -2.759  0.00  0.00    -0.216 N 
ATOM     27  H   UNL     1       4.870  -5.905  -2.559  0.00  0.00    +0.174 HD
BRANCH  26  34
ATOM     28  C   UNL     1       2.631  -4.086  -3.696  0.00  0.00    +0.046 C 
ATOM     29  C   UNL     1       3.867  -3.950  -4.547  0.00  0.00    -0.028 A 
ATOM     30  C   UNL     1       3.775  -3.425  -5.821  0.00  0.00    +0.005 A 
ATOM     31  C   UNL     1       4.907  -3.304  -6.605  0.00  0.00    +0.001 A 
ATOM     32  C   UNL     1       6.137  -3.704  -6.114  0.00  0.00    +0.005 A 
ATOM     33  C   UNL     1       6.237  -4.225  -4.839  0.00  0.00    -0.028 A 
ATOM     34  C   UNL     1       5.101  -4.347  -4.049  0.00  0.00    +0.054 A 
ATOM     35  C   UNL     1       7.578  -4.661  -4.305  0.00  0.00    +0.046 C 
ENDBRANCH  26  34
ENDBRANCH  23  26
ENDBRANCH   1  23
TORSDOF 5
