REMARK  Name = ZINC21276379
REMARK  12 active torsions:
REMARK  status: ('A' for Active; 'I' for Inactive)
REMARK    1  A    between atoms: C_1  and  C_2
REMARK    2  A    between atoms: C_2  and  C_4
REMARK    3  A    between atoms: C_2  and  S_16
REMARK    4  A    between atoms: N_6  and  C_7
REMARK    5  A    between atoms: C_10  and  C_13
REMARK    6  A    between atoms: S_16  and  C_17
REMARK    7  A    between atoms: C_20  and  C_23
REMARK    8  A    between atoms: N_21  and  C_22
REMARK    9  A    between atoms: C_30  and  C_33
REMARK   10  A    between atoms: C_33  and  C_34
REMARK   11  A    between atoms: C_33  and  C_35
REMARK   12  A    between atoms: C_33  and  C_36
REMARK                            x       y       z     vdW  Elec       q    Type
REMARK                         _______ _______ _______ _____ _____    ______ ____
ROOT
ATOM      1  C   UNL     1      -7.438  -5.509   0.730  0.00  0.00    +0.192 A 
ATOM      2  N   UNL     1      -6.303  -5.840   0.158  0.00  0.00    -0.122 NA
ATOM      3  N   UNL     1      -5.494  -4.842   0.168  0.00  0.00    -0.128 NA
ATOM      4  C   UNL     1      -6.060  -3.811   0.756  0.00  0.00    +0.171 A 
ATOM      5  N   UNL     1      -7.325  -4.207   1.131  0.00  0.00    -0.305 N 
ATOM      6  C   UNL     1      -8.338  -3.400   1.817  0.00  0.00    +0.153 C 
ENDROOT
BRANCH   4   7
ATOM      7  C   UNL     1      -5.459  -2.485   0.968  0.00  0.00    +0.057 A 
ATOM      8  C   UNL     1      -4.146  -2.108   0.878  0.00  0.00    +0.023 A 
ATOM      9  C   UNL     1      -3.790  -0.787   1.120  0.00  0.00    -0.036 A 
ATOM     10  C   UNL     1      -4.800   0.071   1.441  0.00  0.00    -0.006 A 
ATOM     11  S   UNL     1      -6.252  -0.946   1.409  0.00  0.00    -0.090 S 
ATOM     12  C   UNL     1      -4.692   1.530   1.748  0.00  0.00    +0.043 C 
ATOM     13  C   UNL     1      -3.214   1.858   2.011  0.00  0.00    +0.009 C 
ATOM     14  C   UNL     1      -2.367   1.237   0.896  0.00  0.00    -0.001 C 
ATOM     15  C   UNL     1      -2.351  -0.285   1.040  0.00  0.00    +0.040 C 
BRANCH  14  16
ATOM     16  C   UNL     1      -0.936   1.772   0.989  0.00  0.00    -0.035 C 
ATOM     17  C   UNL     1      -0.090   1.157  -0.128  0.00  0.00    +0.011 C 
ATOM     18  C   UNL     1      -0.339   1.397   2.346  0.00  0.00    +0.011 C 
ATOM     19  C   UNL     1      -0.950   3.294   0.840  0.00  0.00    +0.011 C 
ENDBRANCH  14  16
ENDBRANCH   4   7
BRANCH   1  20
ATOM     20  S   UNL     1      -8.845  -6.549   0.941  0.00  0.00    -0.074 S 
BRANCH  20  22
ATOM     21  C   UNL     1      -7.061  -8.617   0.991  0.00  0.00    +0.029 C 
ATOM     22  C   UNL     1      -8.230  -8.068   0.172  0.00  0.00    +0.137 C 
BRANCH  22  23
ATOM     23  C   UNL     1      -9.336  -9.091   0.127  0.00  0.00    +0.230 C 
ATOM     24  O   UNL     1     -10.292  -8.984   0.865  0.00  0.00    -0.274 OA
ATOM     25  N   UNL     1      -9.263 -10.125  -0.734  0.00  0.00    -0.285 N 
ATOM     26  H   UNL     1      -8.441 -10.177  -1.464  0.00  0.00    +0.155 HD
BRANCH  25  27
ATOM     27  C   UNL     1     -10.229 -11.130  -0.701  0.00  0.00    +0.033 A 
ATOM     28  C   UNL     1     -10.804 -11.500   0.511  0.00  0.00    +0.024 A 
ATOM     29  C   UNL     1     -11.761 -12.489   0.547  0.00  0.00    +0.015 A 
ATOM     30  C   UNL     1     -12.147 -13.129  -0.633  0.00  0.00    +0.037 A 
ATOM     31  C   UNL     1     -11.564 -12.758  -1.848  0.00  0.00    +0.015 A 
ATOM     32  C   UNL     1     -10.611 -11.765  -1.878  0.00  0.00    +0.024 A 
BRANCH  30  33
ATOM     33  C   UNL     1     -13.170 -14.192  -0.598  0.00  0.00    +0.242 C 
ATOM     34  O   UNL     1     -13.505 -14.748  -1.626  0.00  0.00    -0.270 OA
ATOM     35  N   UNL     1     -13.732 -14.548   0.575  0.00  0.00    -0.325 N 
ATOM     36  H   UNL     1     -14.494 -15.341   0.601  0.00  0.00    +0.145 HD
ATOM     37  H   UNL     1     -13.428 -14.046   1.505  0.00  0.00    +0.145 HD
ENDBRANCH  30  33
ENDBRANCH  25  27
ENDBRANCH  22  23
ENDBRANCH  20  22
ENDBRANCH   1  20
TORSDOF 7
