REMARK  Name = ZINC38574044
REMARK  11 active torsions:
REMARK  status: ('A' for Active; 'I' for Inactive)
REMARK    1  A    between atoms: C_1  and  C_2
REMARK    2  A    between atoms: C_2  and  C_3
REMARK    3  A    between atoms: C_2  and  C_4
REMARK    4  A    between atoms: C_4  and  C_5
REMARK    5  A    between atoms: C_5  and  N_6
REMARK    6  A    between atoms: C_13  and  O_38
REMARK    7  A    between atoms: C_15  and  C_19
REMARK    8  A    between atoms: N_21  and  N_22
REMARK    9  A    between atoms: C_23  and  C_24
REMARK   10  A    between atoms: C_23  and  C_25
REMARK   11  A    between atoms: C_27  and  O_37
REMARK                            x       y       z     vdW  Elec       q    Type
REMARK                         _______ _______ _______ _____ _____    ______ ____
ROOT
ATOM      1  C   UNL     1       1.492  -0.002   6.768  0.00  0.00    +0.247 C 
ATOM      2  O   UNL     1       1.047  -0.914   7.432  0.00  0.00    -0.273 OA
ATOM      3  N   UNL     1       1.218   1.274   7.106  0.00  0.00    -0.206 N 
ATOM      4  H   UNL     1       1.512   2.001   6.535  0.00  0.00    +0.177 HD
ENDROOT
BRANCH   1  13
ATOM      5  N   UNL     1       0.740  -0.636   3.711  0.00  0.00    -0.270 N 
ATOM      6  C   UNL     1       0.467  -1.912   4.215  0.00  0.00    +0.042 A 
ATOM      7  C   UNL     1      -0.695  -2.575   3.845  0.00  0.00    +0.024 A 
ATOM      8  C   UNL     1      -0.958  -3.835   4.347  0.00  0.00    +0.002 A 
ATOM      9  C   UNL     1      -0.065  -4.435   5.216  0.00  0.00    +0.000 A 
ATOM     10  C   UNL     1       1.093  -3.777   5.586  0.00  0.00    +0.008 A 
ATOM     11  C   UNL     1       1.362  -2.518   5.087  0.00  0.00    +0.003 A 
ATOM     12  C   UNL     1       2.623  -1.797   5.488  0.00  0.00    +0.167 C 
ATOM     13  C   UNL     1       2.351  -0.294   5.564  0.00  0.00    +0.195 C 
ATOM     14  C   UNL     1       1.640   0.159   4.318  0.00  0.00    +0.235 C 
ATOM     15  O   UNL     1       1.879   1.255   3.857  0.00  0.00    -0.274 OA
BRANCH  12  16
ATOM     16  O   UNL     1       3.643  -2.047   4.519  0.00  0.00    -0.386 OA
ATOM     17  H   UNL     1       3.868  -2.982   4.418  0.00  0.00    +0.210 HD
ENDBRANCH  12  16
BRANCH   5  18
ATOM     18  C   UNL     1       0.044  -0.164   2.511  0.00  0.00    +0.114 C 
BRANCH  18  19
ATOM     19  C   UNL     1       0.847  -0.554   1.269  0.00  0.00    +0.022 C 
BRANCH  19  21
ATOM     20  C   UNL     1       0.089   1.468   0.014  0.00  0.00    +0.007 C 
ATOM     21  C   UNL     1       0.120  -0.061   0.016  0.00  0.00    -0.016 C 
ATOM     22  C   UNL     1       0.857  -0.559  -1.229  0.00  0.00    +0.007 C 
ENDBRANCH  19  21
ENDBRANCH  18  19
ENDBRANCH   5  18
ENDBRANCH   1  13
BRANCH   3  23
ATOM     23  N   UNL     1       0.509   1.550   8.283  0.00  0.00    -0.188 NA
ATOM     24  C   UNL     1       0.155   2.751   8.550  0.00  0.00    +0.053 C 
ATOM     25  C   UNL     1      -0.698   3.034   9.759  0.00  0.00    +0.063 C 
BRANCH  24  26
ATOM     26  C   UNL     1       0.591   3.882   7.654  0.00  0.00    +0.186 C 
ATOM     27  C   UNL     1       1.665   4.666   8.384  0.00  0.00    +0.120 C 
ATOM     28  C   UNL     1       1.423   6.024   8.599  0.00  0.00    +0.035 A 
ATOM     29  C   UNL     1       2.370   6.826   9.268  0.00  0.00    +0.013 A 
ATOM     30  C   UNL     1       2.110   8.148   9.465  0.00  0.00    +0.001 A 
ATOM     31  C   UNL     1       0.927   8.726   9.018  0.00  0.00    +0.002 A 
ATOM     32  C   UNL     1      -0.025   8.002   8.364  0.00  0.00    +0.024 A 
ATOM     33  C   UNL     1       0.177   6.632   8.127  0.00  0.00    +0.044 A 
ATOM     34  N   UNL     1      -0.760   5.922   7.484  0.00  0.00    -0.284 N 
ATOM     35  C   UNL     1      -0.646   4.636   7.224  0.00  0.00    +0.233 C 
ATOM     36  O   UNL     1      -1.539   4.055   6.635  0.00  0.00    -0.274 OA
ATOM     37  H   UNL     1      -1.565   6.380   7.195  0.00  0.00    +0.155 HD
BRANCH  27  38
ATOM     38  O   UNL     1       2.793   4.082   8.803  0.00  0.00    -0.509 OA
ATOM     39  H   UNL     1       3.366   4.661   9.323  0.00  0.00    +0.292 HD
ENDBRANCH  27  38
ENDBRANCH  24  26
ENDBRANCH   3  23
TORSDOF 8
