REMARK  Name = ZINC13064154
REMARK  12 active torsions:
REMARK  status: ('A' for Active; 'I' for Inactive)
REMARK    1  A    between atoms: C_1  and  C_2
REMARK    2  A    between atoms: C_2  and  C_3
REMARK    3  A    between atoms: C_3  and  C_5
REMARK    4  A    between atoms: C_3  and  N_66
REMARK    5  A    between atoms: N_9  and  C_10
REMARK    6  A    between atoms: C_10  and  C_11
REMARK    7  A    between atoms: C_18  and  C_19
REMARK    8  A    between atoms: C_18  and  N_66
REMARK    9  A    between atoms: C_25  and  C_26
REMARK   10  A    between atoms: C_25  and  N_66
REMARK   11  A    between atoms: C_30  and  O_38
REMARK   12  A    between atoms: O_38  and  C_39
REMARK                            x       y       z     vdW  Elec       q    Type
REMARK                         _______ _______ _______ _____ _____    ______ ____
ROOT
ATOM      1  N   UNL     1      -0.813   1.036  -1.174  0.00  0.00    +0.392 N 
ATOM      2  H   UNL     1      -1.820   0.837  -1.215  0.00  0.00    -0.080 HD
ENDROOT
BRANCH   1   3
ATOM      3  C   UNL     1      -0.186   0.605  -2.441  0.00  0.00    +0.003 C 
BRANCH   3   4
ATOM      4  C   UNL     1      -1.190   0.769  -3.553  0.00  0.00    +0.138 A 
ATOM      5  N   UNL     1      -2.118   1.692  -3.640  0.00  0.00    -0.115 NA
ATOM      6  N   UNL     1      -2.770   1.498  -4.734  0.00  0.00    -0.023 NA
ATOM      7  N   UNL     1      -2.288   0.471  -5.344  0.00  0.00    -0.044 NA
ATOM      8  N   UNL     1      -1.312  -0.006  -4.647  0.00  0.00    -0.226 N 
BRANCH   8   9
ATOM      9  C   UNL     1      -0.491  -1.172  -4.982  0.00  0.00    +0.182 C 
BRANCH   9  10
ATOM     10  C   UNL     1      -1.119  -2.412  -4.401  0.00  0.00    -0.026 A 
ATOM     11  C   UNL     1      -0.773  -2.830  -3.129  0.00  0.00    +0.008 A 
ATOM     12  C   UNL     1      -1.352  -3.965  -2.593  0.00  0.00    +0.038 A 
ATOM     13  C   UNL     1      -2.271  -4.689  -3.333  0.00  0.00    +0.123 A 
ATOM     14  C   UNL     1      -2.613  -4.272  -4.608  0.00  0.00    +0.038 A 
ATOM     15  C   UNL     1      -2.037  -3.134  -5.141  0.00  0.00    +0.008 A 
ATOM     16  F   UNL     1      -2.834  -5.801  -2.812  0.00  0.00    -0.205 F 
ENDBRANCH   9  10
ENDBRANCH   8   9
ENDBRANCH   3   4
BRANCH   3  18
ATOM     17  C   UNL     1       2.121   1.188  -1.681  0.00  0.00    +0.002 C 
ATOM     18  C   UNL     1       1.050   1.455  -2.740  0.00  0.00    -0.011 C 
ENDBRANCH   3  18
ENDBRANCH   1   3
BRANCH   1  19
ATOM     19  C   UNL     1      -0.618   2.488  -0.981  0.00  0.00    -0.040 C 
BRANCH  19  20
ATOM     20  C   UNL     1      -1.563   3.227  -1.893  0.00  0.00    -0.046 A 
ATOM     21  C   UNL     1      -1.120   3.724  -3.110  0.00  0.00    +0.005 A 
ATOM     22  C   UNL     1      -2.025   4.394  -3.918  0.00  0.00    +0.020 A 
ATOM     23  C   UNL     1      -3.328   4.552  -3.484  0.00  0.00    +0.111 A 
ATOM     24  N   UNL     1      -3.713   4.070  -2.318  0.00  0.00    -0.263 NA
ATOM     25  C   UNL     1      -2.880   3.424  -1.526  0.00  0.00    +0.112 A 
ENDBRANCH  19  20
ENDBRANCH   1  19
BRANCH   1  26
ATOM     26  C   UNL     1      -0.224   0.292  -0.041  0.00  0.00    -0.036 C 
BRANCH  26  27
ATOM     27  C   UNL     1      -1.115   0.458   1.163  0.00  0.00    +0.001 A 
ATOM     28  C   UNL     1      -2.063  -0.473   1.435  0.00  0.00    +0.017 A 
ATOM     29  C   UNL     1      -2.913  -0.284   2.612  0.00  0.00    +0.002 A 
ATOM     30  C   UNL     1      -3.907  -1.212   2.941  0.00  0.00    +0.055 A 
ATOM     31  C   UNL     1      -4.691  -1.002   4.058  0.00  0.00    +0.121 A 
ATOM     32  C   UNL     1      -4.495   0.125   4.853  0.00  0.00    +0.047 A 
ATOM     33  C   UNL     1      -3.520   1.045   4.539  0.00  0.00    +0.030 A 
ATOM     34  C   UNL     1      -2.720   0.854   3.418  0.00  0.00    +0.049 A 
ATOM     35  N   UNL     1      -1.737   1.764   3.086  0.00  0.00    -0.322 N 
ATOM     36  H   UNL     1      -1.604   2.547   3.642  0.00  0.00    +0.169 HD
ATOM     37  C   UNL     1      -0.957   1.578   2.006  0.00  0.00    +0.251 A 
ATOM     38  O   UNL     1      -0.096   2.400   1.747  0.00  0.00    -0.268 OA
BRANCH  31  39
ATOM     39  O   UNL     1      -5.658  -1.900   4.383  0.00  0.00    -0.495 OA
ATOM     40  C   UNL     1      -6.434  -1.624   5.551  0.00  0.00    +0.277 C 
ENDBRANCH  31  39
ENDBRANCH  26  27
ENDBRANCH   1  26
TORSDOF 10
