REMARK  Name = ZINC12323746
REMARK  7 active torsions:
REMARK  status: ('A' for Active; 'I' for Inactive)
REMARK    1  A    between atoms: C_1  and  O_2
REMARK    2  A    between atoms: O_2  and  C_3
REMARK    3  A    between atoms: C_6  and  C_9
REMARK    4  A    between atoms: N_17  and  C_26
REMARK    5  A    between atoms: C_18  and  C_20
REMARK    6  A    between atoms: C_26  and  C_27
REMARK    7  A    between atoms: C_27  and  C_28
REMARK                            x       y       z     vdW  Elec       q    Type
REMARK                         _______ _______ _______ _____ _____    ______ ____
ROOT
ATOM      1  C   UNL     1      -4.960  -2.618   0.037  0.00  0.00    +0.072 A 
ATOM      2  C   UNL     1      -5.315  -3.675   0.813  0.00  0.00    +0.036 A 
ATOM      3  C   UNL     1      -6.651  -3.980   0.468  0.00  0.00    +0.153 A 
ATOM      4  N   UNL     1      -7.013  -3.120  -0.463  0.00  0.00    -0.168 NA
ATOM      5  N   UNL     1      -6.049  -2.312  -0.728  0.00  0.00    -0.276 N 
ATOM      6  H   UNL     1      -6.089  -1.593  -1.378  0.00  0.00    +0.189 HD
ATOM      7  C   UNL     1      -7.080  -5.127   1.290  0.00  0.00    +0.268 C 
ATOM      8  O   UNL     1      -8.180  -5.642   1.241  0.00  0.00    -0.268 OA
ATOM      9  N   UNL     1      -6.083  -5.522   2.100  0.00  0.00    -0.283 N 
ATOM     10  C   UNL     1      -4.915  -4.663   1.874  0.00  0.00    +0.160 C 
ENDROOT
BRANCH   1  14
ATOM     11  C   UNL     1      -1.200  -0.637   0.010  0.00  0.00    +0.120 A 
ATOM     12  C   UNL     1      -2.374   0.105   0.020  0.00  0.00    +0.046 A 
ATOM     13  C   UNL     1      -3.595  -0.534   0.028  0.00  0.00    +0.013 A 
ATOM     14  C   UNL     1      -3.651  -1.929   0.027  0.00  0.00    +0.000 A 
ATOM     15  C   UNL     1      -2.470  -2.671   0.017  0.00  0.00    +0.013 A 
ATOM     16  C   UNL     1      -1.252  -2.025   0.003  0.00  0.00    +0.046 A 
BRANCH  11  18
ATOM     17  C   UNL     1      -0.017   1.425   0.010  0.00  0.00    +0.277 C 
ATOM     18  O   UNL     1       0.002  -0.004   0.002  0.00  0.00    -0.495 OA
ENDBRANCH  11  18
ENDBRANCH   1  14
BRANCH  10  19
ATOM     19  C   UNL     1      -4.552  -3.939   3.145  0.00  0.00    +0.066 A 
ATOM     20  C   UNL     1      -3.263  -3.472   3.321  0.00  0.00    +0.025 A 
ATOM     21  C   UNL     1      -2.940  -2.807   4.494  0.00  0.00    +0.003 A 
ATOM     22  C   UNL     1      -3.930  -2.637   5.450  0.00  0.00    +0.020 A 
ATOM     23  C   UNL     1      -5.196  -3.132   5.204  0.00  0.00    +0.111 A 
ATOM     24  N   UNL     1      -5.469  -3.755   4.074  0.00  0.00    -0.258 NA
ENDBRANCH  10  19
BRANCH   9  25
ATOM     25  C   UNL     1      -6.152  -6.631   3.055  0.00  0.00    +0.114 C 
BRANCH  25  26
ATOM     26  C   UNL     1      -5.706  -7.924   2.368  0.00  0.00    +0.056 C 
BRANCH  26  27
ATOM     27  C   UNL     1      -5.777  -9.065   3.350  0.00  0.00    -0.021 A 
ATOM     28  C   UNL     1      -4.771  -9.532   4.105  0.00  0.00    +0.087 A 
ATOM     29  N   UNL     1      -5.210 -10.574   4.875  0.00  0.00    -0.360 N 
ATOM     30  H   UNL     1      -4.663 -11.074   5.502  0.00  0.00    +0.165 HD
ATOM     31  C   UNL     1      -6.544 -10.809   4.628  0.00  0.00    +0.047 A 
ATOM     32  C   UNL     1      -6.960  -9.870   3.667  0.00  0.00    +0.003 A 
ATOM     33  C   UNL     1      -8.283  -9.866   3.223  0.00  0.00    +0.010 A 
ATOM     34  C   UNL     1      -9.170 -10.774   3.728  0.00  0.00    +0.001 A 
ATOM     35  C   UNL     1      -8.766 -11.700   4.680  0.00  0.00    +0.002 A 
ATOM     36  C   UNL     1      -7.463 -11.728   5.125  0.00  0.00    +0.026 A 
ENDBRANCH  26  27
ENDBRANCH  25  26
ENDBRANCH   9  25
TORSDOF 6
