REMARK  Name = ZINC13618013
REMARK  7 active torsions:
REMARK  status: ('A' for Active; 'I' for Inactive)
REMARK    1  A    between atoms: C_1  and  C_2
REMARK    2  A    between atoms: C_2  and  C_26
REMARK    3  A    between atoms: N_3  and  N_4
REMARK    4  A    between atoms: C_5  and  C_7
REMARK    5  A    between atoms: C_7  and  S_8
REMARK    6  A    between atoms: S_8  and  C_9
REMARK    7  A    between atoms: N_19  and  C_20
REMARK                            x       y       z     vdW  Elec       q    Type
REMARK                         _______ _______ _______ _____ _____    ______ ____
ROOT
ATOM      1  C   UNL     1      -5.330   0.858  -0.467  0.00  0.00    +0.177 A 
ATOM      2  N   UNL     1      -5.071  -0.426  -0.512  0.00  0.00    -0.223 NA
ATOM      3  C   UNL     1      -5.950  -1.341  -0.041  0.00  0.00    +0.079 A 
ATOM      4  C   UNL     1      -5.675  -2.711  -0.083  0.00  0.00    +0.028 A 
ATOM      5  C   UNL     1      -6.593  -3.600   0.399  0.00  0.00    +0.002 A 
ATOM      6  C   UNL     1      -7.800  -3.164   0.931  0.00  0.00    +0.001 A 
ATOM      7  C   UNL     1      -8.098  -1.831   0.986  0.00  0.00    +0.015 A 
ATOM      8  C   UNL     1      -7.179  -0.900   0.501  0.00  0.00    +0.065 A 
ATOM      9  C   UNL     1      -7.446   0.543   0.534  0.00  0.00    +0.267 A 
ATOM     10  O   UNL     1      -8.486   0.983   0.988  0.00  0.00    -0.267 OA
ATOM     11  N   UNL     1      -6.493   1.368   0.040  0.00  0.00    -0.255 N 
ENDROOT
BRANCH  11  12
ATOM     12  C   UNL     1      -6.699   2.753   0.049  0.00  0.00    +0.052 A 
ATOM     13  C   UNL     1      -6.300   3.509   1.143  0.00  0.00    +0.026 A 
ATOM     14  C   UNL     1      -6.500   4.876   1.147  0.00  0.00    +0.002 A 
ATOM     15  C   UNL     1      -7.107   5.490   0.067  0.00  0.00    +0.000 A 
ATOM     16  C   UNL     1      -7.511   4.739  -1.022  0.00  0.00    +0.002 A 
ATOM     17  C   UNL     1      -7.309   3.373  -1.033  0.00  0.00    +0.026 A 
ENDBRANCH  11  12
BRANCH   1  18
ATOM     18  S   UNL     1      -4.125   1.980  -1.096  0.00  0.00    -0.078 S 
BRANCH  18  19
ATOM     19  C   UNL     1      -2.846   0.809  -1.615  0.00  0.00    +0.174 C 
BRANCH  19  21
ATOM     20  N   UNL     1      -0.606   0.895  -2.660  0.00  0.00    -0.206 N 
ATOM     21  C   UNL     1      -1.682   1.565  -2.203  0.00  0.00    +0.242 C 
ATOM     22  O   UNL     1      -1.714   2.776  -2.264  0.00  0.00    -0.273 OA
ATOM     23  H   UNL     1      -0.580  -0.074  -2.611  0.00  0.00    +0.177 HD
BRANCH  20  26
ATOM     24  C   UNL     1       1.548  -0.553  -3.580  0.00  0.00    +0.068 C 
ATOM     25  C   UNL     1       1.508   0.951  -3.656  0.00  0.00    +0.063 C 
ATOM     26  N   UNL     1       0.474   1.597  -3.211  0.00  0.00    -0.185 NA
BRANCH  25  27
ATOM     27  C   UNL     1       2.645   1.690  -4.237  0.00  0.00    +0.000 A 
ATOM     28  C   UNL     1       3.774   1.014  -4.717  0.00  0.00    +0.029 A 
ATOM     29  C   UNL     1       4.812   1.745  -5.256  0.00  0.00    +0.111 A 
ATOM     30  N   UNL     1       4.755   3.062  -5.312  0.00  0.00    -0.263 NA
ATOM     31  C   UNL     1       3.714   3.739  -4.867  0.00  0.00    +0.111 A 
ATOM     32  C   UNL     1       2.629   3.089  -4.317  0.00  0.00    +0.029 A 
ENDBRANCH  25  27
ENDBRANCH  20  26
ENDBRANCH  19  21
ENDBRANCH  18  19
ENDBRANCH   1  18
TORSDOF 6
