REMARK  Name = ZINC02738030
REMARK  8 active torsions:
REMARK  status: ('A' for Active; 'I' for Inactive)
REMARK    1  A    between atoms: C_1  and  C_2
REMARK    2  A    between atoms: C_2  and  N_59
REMARK    3  A    between atoms: C_13  and  C_16
REMARK    4  A    between atoms: C_19  and  O_32
REMARK    5  A    between atoms: C_20  and  C_22
REMARK    6  A    between atoms: C_22  and  O_23
REMARK    7  A    between atoms: O_23  and  C_24
REMARK    8  A    between atoms: O_32  and  C_33
REMARK                            x       y       z     vdW  Elec       q    Type
REMARK                         _______ _______ _______ _____ _____    ______ ____
ROOT
ATOM      1  C   UNL     1       1.328  -4.559   1.025  0.00  0.00    -0.074 C 
ATOM      2  C   UNL     1       2.004  -3.197   0.839  0.00  0.00    +0.018 C 
ATOM      3  C   UNL     1       0.945  -2.198   0.388  0.00  0.00    -0.027 A 
ATOM      4  C   UNL     1      -0.230  -2.641  -0.117  0.00  0.00    -0.021 A 
ATOM      5  S   UNL     1      -1.146  -1.172  -0.497  0.00  0.00    -0.080 S 
ATOM      6  C   UNL     1       0.002  -0.004   0.002  0.00  0.00    +0.080 A 
ATOM      7  C   UNL     1       1.096  -0.756   0.458  0.00  0.00    +0.068 A 
ATOM      8  C   UNL     1       2.277  -0.013   0.956  0.00  0.00    +0.248 C 
ATOM      9  O   UNL     1       3.218  -0.589   1.470  0.00  0.00    -0.270 OA
ATOM     10  N   UNL     1       2.267   1.329   0.815  0.00  0.00    -0.289 N 
ATOM     11  C   UNL     1       1.292   2.047   0.001  0.00  0.00    +0.190 C 
ATOM     12  N   UNL     1      -0.017   1.367   0.010  0.00  0.00    -0.316 N 
ATOM     13  C   UNL     1      -0.638  -4.069  -0.301  0.00  0.00    -0.035 C 
ATOM     14  H   UNL     1       2.944   1.845   1.281  0.00  0.00    +0.151 HD
ATOM     15  H   UNL     1      -0.849   1.864   0.016  0.00  0.00    +0.149 HD
ATOM     16  N   UNL     1       0.581  -4.907  -0.201  0.00  0.00    +0.383 N 
ATOM     17  H   UNL     1       1.178  -4.728  -1.018  0.00  0.00    -0.081 HD
ENDROOT
BRANCH  11  18
ATOM     18  C   UNL     1       1.796   2.127  -1.417  0.00  0.00    -0.009 A 
ATOM     19  C   UNL     1       0.899   2.205  -2.466  0.00  0.00    +0.010 A 
ATOM     20  C   UNL     1       1.359   2.280  -3.766  0.00  0.00    +0.046 A 
ATOM     21  C   UNL     1       2.723   2.276  -4.019  0.00  0.00    +0.126 A 
ATOM     22  C   UNL     1       3.621   2.198  -2.965  0.00  0.00    +0.032 A 
ATOM     23  C   UNL     1       3.156   2.130  -1.666  0.00  0.00    +0.017 A 
BRANCH  21  24
ATOM     24  O   UNL     1       3.178   2.350  -5.298  0.00  0.00    -0.495 OA
ATOM     25  C   UNL     1       2.196   2.429  -6.333  0.00  0.00    +0.277 C 
ENDBRANCH  21  24
BRANCH  22  26
ATOM     26  C   UNL     1       5.104   2.193  -3.237  0.00  0.00    +0.268 C 
BRANCH  26  27
ATOM     27  O   UNL     1       5.814   2.106  -2.000  0.00  0.00    -0.487 OA
BRANCH  27  28
ATOM     28  C   UNL     1       7.172   2.091  -2.068  0.00  0.00    +0.123 A 
ATOM     29  C   UNL     1       7.806   2.152  -3.300  0.00  0.00    +0.048 A 
ATOM     30  C   UNL     1       9.186   2.143  -3.368  0.00  0.00    +0.043 A 
ATOM     31  C   UNL     1       9.936   2.059  -2.208  0.00  0.00    +0.142 A 
ATOM     32  C   UNL     1       9.305   1.992  -0.976  0.00  0.00    +0.080 A 
ATOM     33  C   UNL     1       7.924   2.008  -0.906  0.00  0.00    +0.068 A 
ATOM     34 CL   UNL     1      10.247   1.888   0.478  0.00  0.00    -0.080 Cl
ATOM     35  F   UNL     1      11.285   2.044  -2.276  0.00  0.00    -0.204 F 
ENDBRANCH  27  28
ENDBRANCH  26  27
ENDBRANCH  22  26
ENDBRANCH  11  18
BRANCH  16  37
ATOM     36  C   UNL     1      -0.356  -6.723  -1.547  0.00  0.00    -0.017 C 
ATOM     37  C   UNL     1       0.211  -6.338  -0.180  0.00  0.00    -0.082 C 
ENDBRANCH  16  37
TORSDOF 6
