REMARK  Name = ZINC04091108
REMARK  7 active torsions:
REMARK  status: ('A' for Active; 'I' for Inactive)
REMARK    1  A    between atoms: C_1  and  C_2
REMARK    2  A    between atoms: C_2  and  O_3
REMARK    3  A    between atoms: O_3  and  C_4
REMARK    4  A    between atoms: C_17  and  C_20
REMARK    5  A    between atoms: C_23  and  N_26
REMARK    6  A    between atoms: N_26  and  C_27
REMARK    7  A    between atoms: N_26  and  C_28
REMARK                            x       y       z     vdW  Elec       q    Type
REMARK                         _______ _______ _______ _____ _____    ______ ____
ROOT
ATOM      1  C   UNL     1       0.776  -1.798  -1.335  0.00  0.00    +0.403 C 
ATOM      2  O   UNL     1       0.312  -2.549  -0.500  0.00  0.00    -0.226 OA
ATOM      3  N   UNL     1       1.395  -2.298  -2.422  0.00  0.00    -0.262 N 
ATOM      4  C   UNL     1       1.520  -3.749  -2.628  0.00  0.00    +0.116 C 
ATOM      5  C   UNL     1       0.736  -4.159  -3.877  0.00  0.00    +0.056 C 
ATOM      6  C   UNL     1       1.081  -3.212  -5.017  0.00  0.00    -0.020 A 
ATOM      7  C   UNL     1       1.627  -1.998  -4.785  0.00  0.00    +0.013 A 
ATOM      8  S   UNL     1       1.840  -1.277  -6.389  0.00  0.00    -0.076 S 
ATOM      9  C   UNL     1       1.240  -2.509  -7.325  0.00  0.00    +0.080 A 
ATOM     10  C   UNL     1       0.863  -3.514  -6.423  0.00  0.00    +0.068 A 
ATOM     11  C   UNL     1       0.296  -4.762  -6.981  0.00  0.00    +0.248 C 
ATOM     12  O   UNL     1       0.113  -5.743  -6.284  0.00  0.00    -0.270 OA
ATOM     13  N   UNL     1      -0.009  -4.768  -8.296  0.00  0.00    -0.289 N 
ATOM     14  C   UNL     1       0.042  -3.579  -9.140  0.00  0.00    +0.190 C 
ATOM     15  N   UNL     1       1.084  -2.642  -8.683  0.00  0.00    -0.316 N 
ATOM     16  C   UNL     1       1.968  -1.411  -3.453  0.00  0.00    +0.153 C 
ATOM     17  H   UNL     1      -0.276  -5.608  -8.702  0.00  0.00    +0.151 HD
ATOM     18  H   UNL     1       1.632  -2.144  -9.310  0.00  0.00    +0.149 HD
ENDROOT
BRANCH  14  19
ATOM     19  C   UNL     1      -1.296  -2.886  -9.098  0.00  0.00    -0.009 A 
ATOM     20  C   UNL     1      -1.368  -1.515  -9.260  0.00  0.00    +0.009 A 
ATOM     21  C   UNL     1      -2.592  -0.877  -9.222  0.00  0.00    +0.023 A 
ATOM     22  C   UNL     1      -3.752  -1.615  -9.020  0.00  0.00    +0.029 A 
ATOM     23  C   UNL     1      -3.676  -2.993  -8.857  0.00  0.00    +0.023 A 
ATOM     24  C   UNL     1      -2.449  -3.625  -8.902  0.00  0.00    +0.009 A 
BRANCH  22  25
ATOM     25  N   UNL     1      -4.992  -0.973  -8.981  0.00  0.00    -0.336 N 
ATOM     26  C   UNL     1      -5.070   0.480  -9.152  0.00  0.00    +0.129 C 
ATOM     27  C   UNL     1      -6.214  -1.753  -8.768  0.00  0.00    +0.129 C 
ENDBRANCH  22  25
ENDBRANCH  14  19
BRANCH   1  28
ATOM     28  O   UNL     1       0.671  -0.465  -1.174  0.00  0.00    -0.451 OA
BRANCH  28  30
ATOM     29  C   UNL     1      -0.019   1.526   0.010  0.00  0.00    +0.048 C 
ATOM     30  C   UNL     1       0.002  -0.004   0.002  0.00  0.00    +0.230 C 
ENDBRANCH  28  30
ENDBRANCH   1  28
TORSDOF 4
