REMARK  Name = ZINC13571358
REMARK  6 active torsions:
REMARK  status: ('A' for Active; 'I' for Inactive)
REMARK    1  A    between atoms: C_1  and  C_2
REMARK    2  A    between atoms: C_10  and  C_12
REMARK    3  A    between atoms: C_15  and  N_18
REMARK    4  A    between atoms: C_19  and  C_21
REMARK    5  A    between atoms: C_25  and  C_28
REMARK    6  A    between atoms: C_31  and  O_34
REMARK                            x       y       z     vdW  Elec       q    Type
REMARK                         _______ _______ _______ _____ _____    ______ ____
ROOT
ATOM      1  C   UNL     1      -0.211   1.825  -0.253  0.00  0.00    +0.069 C 
ATOM      2  C   UNL     1      -0.137   0.332  -0.059  0.00  0.00    +0.087 A 
ATOM      3  C   UNL     1      -0.045  -0.621  -1.070  0.00  0.00    +0.049 A 
ATOM      4  C   UNL     1      -0.002  -1.856  -0.485  0.00  0.00    +0.226 A 
ATOM      5  O   UNL     1      -0.059  -1.688   0.835  0.00  0.00    -0.339 OA
ATOM      6  N   UNL     1      -0.143  -0.294   1.090  0.00  0.00    -0.081 NA
ATOM      7  N   UNL     1       0.084  -3.010  -1.242  0.00  0.00    -0.286 N 
ATOM      8  C   UNL     1      -0.174  -2.935  -2.590  0.00  0.00    +0.019 C 
ATOM      9  C   UNL     1      -0.230  -1.759  -3.249  0.00  0.00    +0.024 C 
ATOM     10  C   UNL     1       0.006  -0.432  -2.560  0.00  0.00    +0.091 C 
ATOM     11  C   UNL     1      -0.517  -1.716  -4.626  0.00  0.00    +0.162 C 
ATOM     12  O   UNL     1      -0.546  -0.641  -5.193  0.00  0.00    -0.292 OA
ATOM     13  C   UNL     1      -0.788  -2.968  -5.413  0.00  0.00    +0.088 C 
ATOM     14  C   UNL     1      -1.372  -4.029  -4.473  0.00  0.00    +0.032 C 
ATOM     15  C   UNL     1      -0.391  -4.241  -3.319  0.00  0.00    +0.059 C 
ATOM     16  H   UNL     1       0.321  -3.856  -0.830  0.00  0.00    +0.155 HD
ENDROOT
BRANCH  10  17
ATOM     17  C   UNL     1       1.359   0.103  -2.952  0.00  0.00    -0.035 A 
ATOM     18  C   UNL     1       2.498  -0.629  -2.672  0.00  0.00    +0.006 A 
ATOM     19  C   UNL     1       3.740  -0.141  -3.030  0.00  0.00    +0.023 A 
ATOM     20  C   UNL     1       3.843   1.087  -3.671  0.00  0.00    +0.033 A 
ATOM     21  C   UNL     1       2.697   1.819  -3.951  0.00  0.00    +0.023 A 
ATOM     22  C   UNL     1       1.458   1.323  -3.595  0.00  0.00    +0.006 A 
BRANCH  20  23
ATOM     23  N   UNL     1       5.099   1.584  -4.035  0.00  0.00    -0.286 N 
ATOM     24  C   UNL     1       6.079   0.735  -4.403  0.00  0.00    +0.214 C 
ATOM     25  O   UNL     1       5.846  -0.450  -4.513  0.00  0.00    -0.276 OA
ATOM     26  C   UNL     1       7.465   1.259  -4.680  0.00  0.00    +0.109 C 
ATOM     27  H   UNL     1       5.265   2.540  -4.021  0.00  0.00    +0.155 HD
ENDBRANCH  20  23
ENDBRANCH  10  17
BRANCH  14  28
ATOM     28  C   UNL     1      -1.563  -5.322  -5.223  0.00  0.00    -0.043 A 
ATOM     29  C   UNL     1      -0.474  -5.955  -5.795  0.00  0.00    +0.007 A 
ATOM     30  C   UNL     1      -0.647  -7.140  -6.484  0.00  0.00    +0.045 A 
ATOM     31  C   UNL     1      -1.913  -7.695  -6.601  0.00  0.00    +0.117 A 
ATOM     32  C   UNL     1      -3.003  -7.058  -6.026  0.00  0.00    +0.045 A 
ATOM     33  C   UNL     1      -2.825  -5.876  -5.334  0.00  0.00    +0.007 A 
BRANCH  31  34
ATOM     34  O   UNL     1      -2.085  -8.861  -7.278  0.00  0.00    -0.507 OA
ATOM     35  H   UNL     1      -2.005  -9.651  -6.727  0.00  0.00    +0.292 HD
ENDBRANCH  31  34
ENDBRANCH  14  28
TORSDOF 4
