REMARK  Name = ZINC36155088
REMARK  12 active torsions:
REMARK  status: ('A' for Active; 'I' for Inactive)
REMARK    1  A    between atoms: C_4  and  C_7
REMARK    2  A    between atoms: C_7  and  C_8
REMARK    3  A    between atoms: C_8  and  C_10
REMARK    4  A    between atoms: C_8  and  N_24
REMARK    5  A    between atoms: C_12  and  C_15
REMARK    6  A    between atoms: C_18  and  N_21
REMARK    7  A    between atoms: N_24  and  C_25
REMARK    8  A    between atoms: C_25  and  C_26
REMARK    9  A    between atoms: C_26  and  C_28
REMARK   10  A    between atoms: C_26  and  O_36
REMARK   11  A    between atoms: C_28  and  O_29
REMARK   12  A    between atoms: O_29  and  C_30
REMARK                            x       y       z     vdW  Elec       q    Type
REMARK                         _______ _______ _______ _____ _____    ______ ____
ROOT
ATOM      1  C   UNL     1       4.051  -0.947   1.442  0.00  0.00    +0.023 C 
ENDROOT
BRANCH   1   2
ATOM      2  C   UNL     1       5.364  -1.688   1.454  0.00  0.00    +0.214 A 
ATOM      3  N   UNL     1       5.524  -2.948   1.742  0.00  0.00    -0.193 NA
ATOM      4  C   UNL     1       6.825  -3.278   1.655  0.00  0.00    +0.202 A 
ATOM      5  N   UNL     1       7.505  -2.213   1.307  0.00  0.00    -0.056 NA
ATOM      6  O   UNL     1       6.561  -1.162   1.165  0.00  0.00    -0.339 OA
BRANCH   4   7
ATOM      7  C   UNL     1       7.396  -4.624   1.912  0.00  0.00    +0.023 A 
ATOM      8  C   UNL     1       6.561  -5.680   2.272  0.00  0.00    +0.014 A 
ATOM      9  C   UNL     1       7.097  -6.929   2.509  0.00  0.00    +0.033 A 
ATOM     10  C   UNL     1       8.460  -7.135   2.389  0.00  0.00    +0.126 A 
ATOM     11  C   UNL     1       9.293  -6.090   2.032  0.00  0.00    +0.033 A 
ATOM     12  C   UNL     1       8.767  -4.837   1.787  0.00  0.00    +0.014 A 
BRANCH  10  13
ATOM     13  N   UNL     1       9.029  -8.477   2.645  0.00  0.00    +0.056 N 
ATOM     14  O   UNL     1       8.303  -9.392   2.958  0.00  0.00    -0.126 OA
ATOM     15  O   UNL     1      10.220  -8.659   2.540  0.00  0.00    -0.126 OA
ENDBRANCH  10  13
ENDBRANCH   4   7
ENDBRANCH   1   2
BRANCH   1  16
ATOM     16  N   UNL     1       4.213   0.348   2.114  0.00  0.00    +0.389 N 
ATOM     17  H   UNL     1       4.599   0.203   3.035  0.00  0.00    -0.085 HD
ATOM     18  H   UNL     1       4.838   0.931   1.577  0.00  0.00    -0.085 HD
BRANCH  16  19
ATOM     19  C   UNL     1       2.906   1.008   2.229  0.00  0.00    -0.046 C 
BRANCH  19  20
ATOM     20  C   UNL     1       3.053   2.294   3.045  0.00  0.00    +0.135 C 
BRANCH  20  21
ATOM     21  O   UNL     1       3.542   1.977   4.349  0.00  0.00    -0.390 OA
ATOM     22  H   UNL     1       2.967   1.384   4.852  0.00  0.00    +0.210 HD
ENDBRANCH  20  21
BRANCH  20  23
ATOM     23  C   UNL     1       1.690   2.980   3.164  0.00  0.00    +0.258 C 
BRANCH  23  24
ATOM     24  O   UNL     1       1.847   4.238   3.825  0.00  0.00    -0.489 OA
BRANCH  24  25
ATOM     25  C   UNL     1       0.725   4.980   4.013  0.00  0.00    +0.121 A 
ATOM     26  C   UNL     1      -0.503   4.506   3.575  0.00  0.00    +0.045 A 
ATOM     27  C   UNL     1      -1.643   5.262   3.767  0.00  0.00    +0.004 A 
ATOM     28  C   UNL     1      -1.561   6.492   4.395  0.00  0.00    +0.000 A 
ATOM     29  C   UNL     1      -0.338   6.967   4.832  0.00  0.00    +0.004 A 
ATOM     30  C   UNL     1       0.804   6.211   4.647  0.00  0.00    +0.045 A 
ENDBRANCH  24  25
ENDBRANCH  23  24
ENDBRANCH  20  23
ENDBRANCH  19  20
ENDBRANCH  16  19
ENDBRANCH   1  16
BRANCH   1  31
ATOM     31  C   UNL     1       3.608  -0.719  -0.005  0.00  0.00    +0.029 C 
BRANCH  31  35
ATOM     32  C   UNL     1       2.773  -4.479  -1.851  0.00  0.00    +0.000 A 
ATOM     33  C   UNL     1       1.801  -3.848  -1.098  0.00  0.00    +0.000 A 
ATOM     34  C   UNL     1       2.071  -2.631  -0.501  0.00  0.00    +0.003 A 
ATOM     35  C   UNL     1       3.314  -2.046  -0.656  0.00  0.00    -0.048 A 
ATOM     36  C   UNL     1       4.287  -2.678  -1.408  0.00  0.00    +0.003 A 
ATOM     37  C   UNL     1       4.016  -3.894  -2.007  0.00  0.00    +0.000 A 
ENDBRANCH  31  35
ENDBRANCH   1  31
TORSDOF 12
