REMARK  Name = ZINC39636933
REMARK  14 active torsions:
REMARK  status: ('A' for Active; 'I' for Inactive)
REMARK    1  A    between atoms: C_1  and  O_2
REMARK    2  A    between atoms: O_2  and  C_3
REMARK    3  A    between atoms: C_5  and  C_11
REMARK    4  A    between atoms: C_7  and  O_9
REMARK    5  A    between atoms: O_9  and  C_10
REMARK    6  A    between atoms: C_15  and  C_24
REMARK    7  A    between atoms: N_26  and  C_27
REMARK    8  A    between atoms: C_27  and  C_28
REMARK    9  A    between atoms: C_30  and  O_38
REMARK   10  A    between atoms: C_31  and  O_36
REMARK   11  A    between atoms: C_32  and  O_34
REMARK   12  A    between atoms: O_34  and  C_35
REMARK   13  A    between atoms: O_36  and  C_37
REMARK   14  A    between atoms: O_38  and  C_39
REMARK                            x       y       z     vdW  Elec       q    Type
REMARK                         _______ _______ _______ _____ _____    ______ ____
ROOT
ATOM      1  C   UNL     1      -2.549  -4.146   0.015  0.00  0.00    +0.247 C 
ATOM      2  O   UNL     1      -1.528  -4.796  -0.102  0.00  0.00    -0.270 OA
ATOM      3  N   UNL     1      -3.738  -4.772   0.125  0.00  0.00    -0.296 N 
ATOM      4  C   UNL     1      -5.088  -4.161   0.146  0.00  0.00    +0.121 C 
ATOM      5  C   UNL     1      -5.965  -5.124  -0.684  0.00  0.00    +0.100 C 
ATOM      6  C   UNL     1      -5.241  -6.478  -0.609  0.00  0.00    -0.004 C 
ATOM      7  C   UNL     1      -3.990  -6.228   0.246  0.00  0.00    +0.115 C 
ATOM      8  C   UNL     1      -4.834  -6.938  -2.006  0.00  0.00    -0.010 C 
ATOM      9  C   UNL     1      -4.166  -8.313  -1.912  0.00  0.00    -0.082 C 
ATOM     10  N   UNL     1      -5.101  -9.272  -1.312  0.00  0.00    +0.379 N 
ATOM     11  C   UNL     1      -5.415  -8.872   0.065  0.00  0.00    -0.082 C 
ATOM     12  C   UNL     1      -6.135  -7.521   0.054  0.00  0.00    -0.010 C 
ATOM     13  H   UNL     1      -5.951  -9.297  -1.856  0.00  0.00    -0.086 HD
ATOM     14  H   UNL     1      -4.682 -10.190  -1.307  0.00  0.00    -0.086 HD
ENDROOT
BRANCH   1  17
ATOM     15  C   UNL     1      -3.435  -0.551   0.676  0.00  0.00    +0.124 A 
ATOM     16  C   UNL     1      -3.497  -1.935   0.658  0.00  0.00    +0.059 A 
ATOM     17  C   UNL     1      -2.487  -2.669   0.036  0.00  0.00    +0.044 A 
ATOM     18  C   UNL     1      -1.417  -2.005  -0.566  0.00  0.00    +0.059 A 
ATOM     19  C   UNL     1      -1.363  -0.621  -0.543  0.00  0.00    +0.124 A 
ATOM     20  C   UNL     1      -2.372   0.105   0.071  0.00  0.00    +0.091 A 
BRANCH  15  22
ATOM     21  C   UNL     1      -4.294   1.588   1.258  0.00  0.00    +0.277 C 
ATOM     22  O   UNL     1      -4.418   0.165   1.282  0.00  0.00    -0.495 OA
ENDBRANCH  15  22
BRANCH  19  23
ATOM     23  O   UNL     1      -0.321   0.026  -1.129  0.00  0.00    -0.495 OA
ATOM     24  C   UNL     1      -0.328   1.454  -1.069  0.00  0.00    +0.277 C 
ENDBRANCH  19  23
ENDBRANCH   1  17
BRANCH   5  25
ATOM     25  C   UNL     1      -7.343  -5.229  -0.082  0.00  0.00    +0.218 C 
ATOM     26  O   UNL     1      -7.508  -5.005   1.098  0.00  0.00    -0.275 OA
ATOM     27  N   UNL     1      -8.392  -5.573  -0.856  0.00  0.00    -0.311 N 
ATOM     28  H   UNL     1      -8.260  -5.753  -1.800  0.00  0.00    +0.149 HD
BRANCH  27  29
ATOM     29  C   UNL     1      -9.731  -5.676  -0.271  0.00  0.00    +0.139 C 
BRANCH  29  30
ATOM     30  C   UNL     1     -10.717  -6.072  -1.339  0.00  0.00    -0.023 A 
ATOM     31  C   UNL     1     -11.360  -5.097  -2.079  0.00  0.00    +0.054 A 
ATOM     32  C   UNL     1     -12.268  -5.458  -3.063  0.00  0.00    +0.165 A 
ATOM     33  C   UNL     1     -12.531  -6.801  -3.305  0.00  0.00    +0.204 A 
ATOM     34  C   UNL     1     -11.882  -7.777  -2.559  0.00  0.00    +0.165 A 
ATOM     35  C   UNL     1     -10.971  -7.409  -1.581  0.00  0.00    +0.054 A 
BRANCH  34  36
ATOM     36  O   UNL     1     -12.136  -9.093  -2.792  0.00  0.00    -0.491 OA
ATOM     37  C   UNL     1     -11.433 -10.042  -1.988  0.00  0.00    +0.277 C 
ENDBRANCH  34  36
BRANCH  33  38
ATOM     38  O   UNL     1     -13.422  -7.159  -4.269  0.00  0.00    -0.488 OA
ATOM     39  C   UNL     1     -12.907  -7.359  -5.587  0.00  0.00    +0.277 C 
ENDBRANCH  33  38
BRANCH  32  40
ATOM     40  O   UNL     1     -12.901  -4.498  -3.790  0.00  0.00    -0.491 OA
ATOM     41  C   UNL     1     -12.583  -3.139  -3.486  0.00  0.00    +0.277 C 
ENDBRANCH  32  40
ENDBRANCH  29  30
ENDBRANCH  27  29
ENDBRANCH   5  25
TORSDOF 9
