REMARK  Name = ZINC53113871
REMARK  5 active torsions:
REMARK  status: ('A' for Active; 'I' for Inactive)
REMARK    1  A    between atoms: C_4  and  N_20
REMARK    2  A    between atoms: C_7  and  N_11
REMARK    3  A    between atoms: N_11  and  C_12
REMARK    4  A    between atoms: C_12  and  C_18
REMARK    5  A    between atoms: C_18  and  O_19
REMARK                            x       y       z     vdW  Elec       q    Type
REMARK                         _______ _______ _______ _____ _____    ______ ____
ROOT
ATOM      1  C   UNL     1      -1.075  -0.586   1.341  0.00  0.00    +0.020 A 
ATOM      2  C   UNL     1      -0.758  -1.477   2.328  0.00  0.00    +0.013 A 
ATOM      3  C   UNL     1       0.477  -2.143   2.249  0.00  0.00    +0.023 A 
ATOM      4  C   UNL     1       0.870  -3.076   3.231  0.00  0.00    +0.034 A 
ATOM      5  C   UNL     1       2.088  -3.711   3.119  0.00  0.00    +0.025 A 
ATOM      6  C   UNL     1       2.935  -3.441   2.048  0.00  0.00    +0.027 A 
ATOM      7  C   UNL     1       2.578  -2.535   1.075  0.00  0.00    +0.054 A 
ATOM      8  C   UNL     1       1.337  -1.868   1.158  0.00  0.00    +0.093 A 
ATOM      9  N   UNL     1       0.967  -0.986   0.225  0.00  0.00    -0.253 NA
ATOM     10  C   UNL     1      -0.184  -0.361   0.296  0.00  0.00    +0.111 A 
ENDROOT
BRANCH   4  11
ATOM     11  N   UNL     1       0.029  -3.355   4.311  0.00  0.00    -0.357 N 
ATOM     12  H   UNL     1      -0.828  -2.906   4.387  0.00  0.00    +0.142 HD
ATOM     13  H   UNL     1       0.302  -3.997   4.985  0.00  0.00    +0.142 HD
ENDBRANCH   4  11
BRANCH   7  14
ATOM     14  N   UNL     1       3.443  -2.277   0.006  0.00  0.00    -0.334 N 
ATOM     15  H   UNL     1       3.153  -1.711  -0.727  0.00  0.00    +0.147 HD
BRANCH  14  16
ATOM     16  C   UNL     1       4.786  -2.862  -0.008  0.00  0.00    +0.055 C 
ATOM     17  C   UNL     1       5.566  -2.322  -1.208  0.00  0.00    +0.028 C 
ATOM     18  C   UNL     1       4.835  -2.694  -2.500  0.00  0.00    +0.002 C 
ATOM     19  C   UNL     1       4.727  -4.216  -2.605  0.00  0.00    +0.000 C 
ATOM     20  C   UNL     1       3.947  -4.756  -1.404  0.00  0.00    +0.002 C 
ATOM     21  C   UNL     1       4.678  -4.385  -0.113  0.00  0.00    +0.028 C 
BRANCH  16  22
ATOM     22  C   UNL     1       5.517  -2.490   1.284  0.00  0.00    +0.181 C 
BRANCH  22  23
ATOM     23  O   UNL     1       5.507  -1.071   1.445  0.00  0.00    -0.393 OA
ATOM     24  H   UNL     1       5.954  -0.763   2.246  0.00  0.00    +0.209 HD
ENDBRANCH  22  23
ENDBRANCH  16  22
ENDBRANCH  14  16
ENDBRANCH   7  14
TORSDOF 5
