REMARK  Name = ZINC64044036
REMARK  9 active torsions:
REMARK  status: ('A' for Active; 'I' for Inactive)
REMARK    1  A    between atoms: C_1  and  C_2
REMARK    2  A    between atoms: C_4  and  C_24
REMARK    3  A    between atoms: C_6  and  C_9
REMARK    4  A    between atoms: C_14  and  N_15
REMARK    5  A    between atoms: C_16  and  C_18
REMARK    6  A    between atoms: C_24  and  N_25
REMARK    7  A    between atoms: C_26  and  C_28
REMARK    8  A    between atoms: C_28  and  C_29
REMARK    9  A    between atoms: C_29  and  C_30
REMARK                            x       y       z     vdW  Elec       q    Type
REMARK                         _______ _______ _______ _____ _____    ______ ____
ROOT
ATOM      1  C   UNL     1      -0.014   1.526   0.008  0.00  0.00    +0.044 C 
ATOM      2  C   UNL     1      -0.001  -0.004   0.005  0.00  0.00    +0.164 C 
ATOM      3  C   UNL     1      -1.413  -0.542   0.063  0.00  0.00    +0.062 C 
ATOM      4  N   UNL     1      -1.449  -1.500   0.912  0.00  0.00    -0.253 NA
ATOM      5  C   UNL     1      -0.115  -1.700   1.489  0.00  0.00    +0.268 C 
ATOM      6  O   UNL     1       0.636  -0.503   1.198  0.00  0.00    -0.342 OA
ENDROOT
BRANCH   5   7
ATOM      7  C   UNL     1      -0.220  -1.898   2.979  0.00  0.00    +0.024 A 
ATOM      8  C   UNL     1      -1.400  -1.606   3.635  0.00  0.00    +0.010 A 
ATOM      9  C   UNL     1      -1.497  -1.788   5.002  0.00  0.00    +0.001 A 
ATOM     10  C   UNL     1      -0.414  -2.263   5.718  0.00  0.00    +0.002 A 
ATOM     11  C   UNL     1       0.769  -2.558   5.069  0.00  0.00    +0.024 A 
ATOM     12  C   UNL     1       0.868  -2.381   3.695  0.00  0.00    +0.041 A 
BRANCH  12  13
ATOM     13  N   UNL     1       2.064  -2.683   3.034  0.00  0.00    -0.283 N 
ATOM     14  C   UNL     1       2.920  -3.578   3.566  0.00  0.00    +0.246 C 
ATOM     15  O   UNL     1       2.612  -4.193   4.564  0.00  0.00    -0.273 OA
ATOM     16  H   UNL     1       2.276  -2.250   2.192  0.00  0.00    +0.155 HD
BRANCH  14  17
ATOM     17  C   UNL     1       4.262  -3.812   2.920  0.00  0.00    +0.204 C 
ATOM     18  C   UNL     1       4.068  -4.430   1.519  0.00  0.00    +0.043 C 
ATOM     19  C   UNL     1       5.225  -5.464   1.452  0.00  0.00    +0.031 C 
ATOM     20  C   UNL     1       5.297  -5.921   2.931  0.00  0.00    +0.161 C 
ATOM     21  O   UNL     1       5.023  -4.739   3.704  0.00  0.00    -0.367 OA
ENDBRANCH  14  17
ENDBRANCH  12  13
ENDBRANCH   5   7
BRANCH   3  22
ATOM     22  C   UNL     1      -2.582  -0.036  -0.742  0.00  0.00    +0.157 C 
BRANCH  22  23
ATOM     23  N   UNL     1      -3.779  -0.812  -0.407  0.00  0.00    -0.310 N 
ATOM     24  C   UNL     1      -4.952  -0.535  -1.008  0.00  0.00    +0.214 C 
ATOM     25  O   UNL     1      -5.018   0.357  -1.828  0.00  0.00    -0.276 OA
ATOM     26  H   UNL     1      -3.726  -1.525   0.249  0.00  0.00    +0.149 HD
BRANCH  24  27
ATOM     27  C   UNL     1      -6.183  -1.333  -0.663  0.00  0.00    +0.100 C 
BRANCH  27  28
ATOM     28  C   UNL     1      -7.370  -0.819  -1.481  0.00  0.00    +0.042 C 
BRANCH  28  29
ATOM     29  C   UNL     1      -8.601  -1.617  -1.135  0.00  0.00    -0.041 C 
ATOM     30  C   UNL     1      -9.553  -1.292  -0.232  0.00  0.00    -0.001 A 
ATOM     31  C   UNL     1      -9.722  -0.143   0.666  0.00  0.00    +0.010 A 
ATOM     32  C   UNL     1     -10.804  -0.096   1.476  0.00  0.00    +0.001 A 
ATOM     33  C   UNL     1     -11.767  -1.115   1.479  0.00  0.00    +0.002 A 
ATOM     34  C   UNL     1     -11.681  -2.202   0.683  0.00  0.00    +0.026 A 
ATOM     35  C   UNL     1     -10.584  -2.354  -0.210  0.00  0.00    +0.043 A 
ATOM     36  N   UNL     1     -10.280  -3.299  -1.066  0.00  0.00    -0.380 N 
ATOM     37  C   UNL     1      -9.024  -2.940  -1.734  0.00  0.00    +0.144 C 
ATOM     38  H   UNL     1     -10.801  -4.100  -1.233  0.00  0.00    +0.160 HD
ENDBRANCH  28  29
ENDBRANCH  27  28
ENDBRANCH  24  27
ENDBRANCH  22  23
ENDBRANCH   3  22
TORSDOF 8
