REMARK  Name = ZINC09111798
REMARK  10 active torsions:
REMARK  status: ('A' for Active; 'I' for Inactive)
REMARK    1  A    between atoms: C_1  and  C_2
REMARK    2  A    between atoms: C_2  and  C_3
REMARK    3  A    between atoms: C_2  and  C_4
REMARK    4  A    between atoms: C_9  and  N_10
REMARK    5  A    between atoms: C_11  and  C_25
REMARK    6  A    between atoms: C_14  and  S_15
REMARK    7  A    between atoms: S_15  and  C_16
REMARK    8  A    between atoms: C_16  and  C_17
REMARK    9  A    between atoms: C_28  and  O_31
REMARK   10  A    between atoms: O_31  and  C_32
REMARK                            x       y       z     vdW  Elec       q    Type
REMARK                         _______ _______ _______ _____ _____    ______ ____
ROOT
ATOM      1  N   UNL     1      -1.239   2.070   0.019  0.00  0.00    -0.270 N 
ATOM      2  C   UNL     1      -1.968   2.488  -1.072  0.00  0.00    +0.169 A 
ATOM      3  N   UNL     1      -3.044   3.084  -0.611  0.00  0.00    -0.128 NA
ATOM      4  N   UNL     1      -3.035   3.076   0.674  0.00  0.00    -0.122 NA
ATOM      5  C   UNL     1      -1.956   2.469   1.115  0.00  0.00    +0.197 A 
ENDROOT
BRANCH   1  11
ATOM      6  C   UNL     1       1.177   2.092   0.002  0.00  0.00    -0.021 A 
ATOM      7  C   UNL     1       2.381   1.413  -0.014  0.00  0.00    +0.006 A 
ATOM      8  C   UNL     1       2.396   0.031  -0.021  0.00  0.00    +0.000 A 
ATOM      9  C   UNL     1       1.208  -0.677  -0.013  0.00  0.00    +0.002 A 
ATOM     10  C   UNL     1       0.002  -0.004   0.002  0.00  0.00    +0.026 A 
ATOM     11  C   UNL     1      -0.017   1.384   0.010  0.00  0.00    +0.054 A 
BRANCH   6  13
ATOM     12  C   UNL     1       1.889   4.110   1.255  0.00  0.00    +0.012 C 
ATOM     13  C   UNL     1       1.161   3.599   0.010  0.00  0.00    +0.015 C 
ATOM     14  C   UNL     1       1.865   4.123  -1.244  0.00  0.00    +0.012 C 
ENDBRANCH   6  13
ENDBRANCH   1  11
BRANCH   2  15
ATOM     15  C   UNL     1      -1.610   2.300  -2.494  0.00  0.00    +0.020 A 
ATOM     16  C   UNL     1      -0.308   1.937  -2.845  0.00  0.00    +0.015 A 
ATOM     17  C   UNL     1       0.021   1.757  -4.171  0.00  0.00    +0.046 A 
ATOM     18  C   UNL     1      -0.937   1.945  -5.158  0.00  0.00    +0.120 A 
ATOM     19  C   UNL     1      -2.232   2.311  -4.814  0.00  0.00    +0.046 A 
ATOM     20  C   UNL     1      -2.570   2.488  -3.489  0.00  0.00    +0.015 A 
BRANCH  18  21
ATOM     21  O   UNL     1      -0.607   1.771  -6.465  0.00  0.00    -0.495 OA
ATOM     22  C   UNL     1       0.742   1.395  -6.749  0.00  0.00    +0.277 C 
ENDBRANCH  18  21
ENDBRANCH   2  15
BRANCH   5  23
ATOM     23  S   UNL     1      -1.514   2.217   2.802  0.00  0.00    -0.078 S 
BRANCH  23  24
ATOM     24  C   UNL     1      -2.924   3.006   3.617  0.00  0.00    +0.153 C 
BRANCH  24  25
ATOM     25  C   UNL     1      -2.759   2.910   5.112  0.00  0.00    +0.146 A 
ATOM     26  N   UNL     1      -3.252   1.871   5.764  0.00  0.00    -0.199 NA
ATOM     27  C   UNL     1      -3.103   1.780   7.083  0.00  0.00    +0.217 A 
ATOM     28  N   UNL     1      -2.467   2.740   7.747  0.00  0.00    -0.181 NA
ATOM     29  C   UNL     1      -1.978   3.785   7.088  0.00  0.00    +0.217 A 
ATOM     30  N   UNL     1      -2.126   3.866   5.768  0.00  0.00    -0.199 NA
ATOM     31  N   UNL     1      -1.317   4.784   7.773  0.00  0.00    -0.327 N 
ATOM     32  N   UNL     1      -3.614   0.693   7.763  0.00  0.00    -0.327 N 
ATOM     33  H   UNL     1      -0.960   5.547   7.292  0.00  0.00    +0.145 HD
ATOM     34  H   UNL     1      -1.210   4.724   8.735  0.00  0.00    +0.145 HD
ATOM     35  H   UNL     1      -3.509   0.629   8.725  0.00  0.00    +0.145 HD
ATOM     36  H   UNL     1      -4.078  -0.008   7.278  0.00  0.00    +0.145 HD
ENDBRANCH  24  25
ENDBRANCH  23  24
ENDBRANCH   5  23
TORSDOF 7
