REMARK  Name = ZINC49060995
REMARK  6 active torsions:
REMARK  status: ('A' for Active; 'I' for Inactive)
REMARK    1  A    between atoms: C_4  and  S_7
REMARK    2  A    between atoms: S_7  and  N_10
REMARK    3  A    between atoms: N_10  and  C_11
REMARK    4  A    between atoms: C_11  and  C_13
REMARK    5  A    between atoms: C_11  and  C_19
REMARK    6  A    between atoms: N_20  and  O_21
REMARK                            x       y       z     vdW  Elec       q    Type
REMARK                         _______ _______ _______ _____ _____    ______ ____
ROOT
ATOM      1  C   UNL     1       3.972  -2.115   1.101  0.00  0.00    +0.146 C 
ENDROOT
BRANCH   1   2
ATOM      2  C   UNL     1       5.314  -1.572   0.607  0.00  0.00    +0.015 C 
ATOM      3  C   UNL     1       5.070  -0.390  -0.335  0.00  0.00    +0.005 C 
ATOM      4  C   UNL     1       6.412   0.153  -0.829  0.00  0.00    +0.000 C 
ATOM      5  C   UNL     1       7.246   0.618   0.366  0.00  0.00    +0.000 C 
ATOM      6  C   UNL     1       7.490  -0.564   1.308  0.00  0.00    +0.000 C 
ATOM      7  C   UNL     1       6.148  -1.107   1.802  0.00  0.00    +0.005 C 
ENDBRANCH   1   2
BRANCH   1   8
ATOM      8  C   UNL     1       4.212  -3.279   2.029  0.00  0.00    +0.151 C 
ATOM      9  N   UNL     1       3.712  -3.269   3.220  0.00  0.00    -0.075 NA
ATOM     10  N   UNL     1       4.965  -4.352   1.606  0.00  0.00    -0.343 N 
ATOM     11  H   UNL     1       5.340  -4.359   0.712  0.00  0.00    +0.144 HD
ATOM     12  H   UNL     1       5.119  -5.101   2.203  0.00  0.00    +0.144 HD
BRANCH   9  13
ATOM     13  O   UNL     1       3.938  -4.362   4.091  0.00  0.00    -0.408 OA
ATOM     14  H   UNL     1       3.524  -4.265   4.960  0.00  0.00    +0.328 HD
ENDBRANCH   9  13
ENDBRANCH   1   8
BRANCH   1  15
ATOM     15  N   UNL     1       3.173  -2.560  -0.043  0.00  0.00    -0.179 NA
ATOM     16  H   UNL     1       3.608  -2.962  -0.811  0.00  0.00    +0.149 HD
BRANCH  15  17
ATOM     17  S   UNL     1       1.527  -2.376  -0.026  0.00  0.00    +0.066 S 
ATOM     18  O   UNL     1       1.075  -2.885   1.220  0.00  0.00    -0.152 OA
ATOM     19  O   UNL     1       1.050  -2.870  -1.270  0.00  0.00    -0.152 OA
BRANCH  17  23
ATOM     20  C   UNL     1      -0.017   1.379   0.010  0.00  0.00    +0.025 A 
ATOM     21  C   UNL     1       1.160   2.052   0.002  0.00  0.00    +0.048 A 
ATOM     22  S   UNL     1       2.348   0.720  -0.017  0.00  0.00    -0.076 S 
ATOM     23  C   UNL     1       1.197  -0.645  -0.013  0.00  0.00    +0.156 A 
ATOM     24  C   UNL     1       0.002  -0.004   0.002  0.00  0.00    +0.051 A 
ATOM     25 BR   UNL     1      -1.614  -0.986   0.013  0.00  0.00    -0.048 Br
ENDBRANCH  17  23
ENDBRANCH  15  17
ENDBRANCH   1  15
TORSDOF 6
