REMARK  Name = ZINC12140885
REMARK  9 active torsions:
REMARK  status: ('A' for Active; 'I' for Inactive)
REMARK    1  A    between atoms: C_1  and  C_2
REMARK    2  A    between atoms: C_2  and  N_3
REMARK    3  A    between atoms: N_3  and  C_4
REMARK    4  A    between atoms: N_3  and  C_6
REMARK    5  A    between atoms: C_4  and  C_5
REMARK    6  A    between atoms: C_6  and  C_7
REMARK    7  A    between atoms: C_7  and  N_8
REMARK    8  A    between atoms: C_22  and  C_24
REMARK    9  A    between atoms: C_27  and  N_30
REMARK                            x       y       z     vdW  Elec       q    Type
REMARK                         _______ _______ _______ _____ _____    ______ ____
ROOT
ATOM      1  N   UNL     1      -2.901  -4.651   0.577  0.00  0.00    -0.248 N 
ATOM      2  C   UNL     1      -3.213  -5.374   1.717  0.00  0.00    +0.168 A 
ATOM      3  N   UNL     1      -3.901  -4.997   2.768  0.00  0.00    -0.224 NA
ATOM      4  C   UNL     1      -4.130  -5.817   3.819  0.00  0.00    +0.084 A 
ATOM      5  C   UNL     1      -4.849  -5.535   5.003  0.00  0.00    +0.078 A 
ATOM      6  C   UNL     1      -4.995  -6.485   5.989  0.00  0.00    +0.164 A 
ATOM      7  C   UNL     1      -4.437  -7.755   5.845  0.00  0.00    +0.163 A 
ATOM      8  C   UNL     1      -3.725  -8.062   4.697  0.00  0.00    +0.066 A 
ATOM      9  C   UNL     1      -3.580  -7.113   3.714  0.00  0.00    +0.044 A 
ATOM     10  S   UNL     1      -2.787  -7.061   2.125  0.00  0.00    -0.052 S 
ATOM     11  O   UNL     1      -4.583  -8.701   6.813  0.00  0.00    -0.485 OA
ATOM     12  C   UNL     1      -4.987  -8.239   8.107  0.00  0.00    +0.270 C 
ATOM     13  C   UNL     1      -6.151  -7.256   7.922  0.00  0.00    +0.270 C 
ATOM     14  O   UNL     1      -5.694  -6.165   7.116  0.00  0.00    -0.485 OA
ATOM     15  C   UNL     1      -2.181  -5.223  -0.408  0.00  0.00    +0.252 C 
ATOM     16  O   UNL     1      -1.852  -6.390  -0.322  0.00  0.00    -0.270 OA
ENDROOT
BRANCH  15  17
ATOM     17  C   UNL     1      -1.790  -4.432  -1.591  0.00  0.00    +0.037 A 
ATOM     18  C   UNL     1      -1.579  -3.055  -1.475  0.00  0.00    +0.015 A 
ATOM     19  C   UNL     1      -1.215  -2.321  -2.581  0.00  0.00    +0.025 A 
ATOM     20  C   UNL     1      -1.057  -2.947  -3.812  0.00  0.00    +0.044 A 
ATOM     21  C   UNL     1      -1.266  -4.316  -3.932  0.00  0.00    +0.025 A 
ATOM     22  C   UNL     1      -1.625  -5.059  -2.829  0.00  0.00    +0.015 A 
BRANCH  20  23
ATOM     23  N   UNL     1      -0.687  -2.198  -4.933  0.00  0.00    -0.210 N 
ATOM     24  C   UNL     1       0.403  -2.472  -5.661  0.00  0.00    +0.227 C 
ATOM     25  O   UNL     1       1.181  -3.376  -5.446  0.00  0.00    -0.275 OA
ATOM     26  C   UNL     1       0.509  -1.475  -6.794  0.00  0.00    +0.106 C 
ATOM     27  C   UNL     1      -0.721  -0.567  -6.593  0.00  0.00    +0.106 C 
ATOM     28  C   UNL     1      -1.397  -1.150  -5.371  0.00  0.00    +0.227 C 
ATOM     29  O   UNL     1      -2.417  -0.734  -4.866  0.00  0.00    -0.275 OA
ENDBRANCH  20  23
ENDBRANCH  15  17
BRANCH   1  30
ATOM     30  C   UNL     1      -3.355  -3.265   0.443  0.00  0.00    +0.097 C 
BRANCH  30  31
ATOM     31  C   UNL     1      -2.464  -2.352   1.288  0.00  0.00    -0.059 C 
BRANCH  31  32
ATOM     32  N   UNL     1      -2.840  -0.951   1.059  0.00  0.00    +0.380 N 
ATOM     33  H   UNL     1      -2.790  -0.747   0.072  0.00  0.00    -0.082 HD
BRANCH  32  35
ATOM     34  C   UNL     1      -4.647   0.697   1.185  0.00  0.00    -0.017 C 
ATOM     35  C   UNL     1      -4.210  -0.727   1.536  0.00  0.00    -0.082 C 
ENDBRANCH  32  35
BRANCH  32  36
ATOM     36  C   UNL     1      -1.917  -0.071   1.788  0.00  0.00    -0.082 C 
ATOM     37  C   UNL     1      -0.520  -0.175   1.173  0.00  0.00    -0.017 C 
ENDBRANCH  32  36
ENDBRANCH  31  32
ENDBRANCH  30  31
ENDBRANCH   1  30
TORSDOF 7
