REMARK  Name = ZINC41586306
REMARK  11 active torsions:
REMARK  status: ('A' for Active; 'I' for Inactive)
REMARK    1  A    between atoms: C_1  and  C_2
REMARK    2  A    between atoms: C_2  and  O_3
REMARK    3  A    between atoms: O_3  and  C_4
REMARK    4  A    between atoms: C_4  and  C_6
REMARK    5  A    between atoms: N_9  and  C_12
REMARK    6  A    between atoms: C_12  and  C_13
REMARK    7  A    between atoms: C_14  and  O_36
REMARK    8  A    between atoms: C_20  and  C_32
REMARK    9  A    between atoms: C_21  and  C_24
REMARK   10  A    between atoms: C_27  and  O_30
REMARK   11  A    between atoms: O_30  and  C_31
REMARK                            x       y       z     vdW  Elec       q    Type
REMARK                         _______ _______ _______ _____ _____    ______ ____
ROOT
ATOM      1  C   UNL     1       1.532  -6.378  -5.589  0.00  0.00    +0.020 A 
ATOM      2  C   UNL     1       2.459  -7.291  -5.116  0.00  0.00    +0.122 A 
ATOM      3  C   UNL     1       2.340  -8.646  -5.417  0.00  0.00    +0.046 A 
ATOM      4  C   UNL     1       1.300  -9.092  -6.183  0.00  0.00    +0.019 A 
ATOM      5  C   UNL     1       0.357  -8.184  -6.664  0.00  0.00    +0.065 A 
ATOM      6  C   UNL     1       0.468  -6.814  -6.367  0.00  0.00    +0.144 A 
ATOM      7  O   UNL     1      -0.439  -5.939  -6.842  0.00  0.00    -0.450 OA
ATOM      8  C   UNL     1      -1.613  -6.341  -7.333  0.00  0.00    +0.219 A 
ATOM      9  C   UNL     1      -1.863  -7.632  -7.676  0.00  0.00    +0.076 A 
ATOM     10  C   UNL     1      -0.785  -8.624  -7.487  0.00  0.00    +0.201 A 
ATOM     11  O   UNL     1      -0.841  -9.742  -7.970  0.00  0.00    -0.286 OA
ENDROOT
BRANCH   9  12
ATOM     12  C   UNL     1      -3.179  -8.031  -8.234  0.00  0.00    -0.010 A 
ATOM     13  C   UNL     1      -3.503  -7.714  -9.552  0.00  0.00    +0.012 A 
ATOM     14  C   UNL     1      -4.727  -8.086 -10.068  0.00  0.00    +0.046 A 
ATOM     15  C   UNL     1      -5.635  -8.776  -9.276  0.00  0.00    +0.120 A 
ATOM     16  C   UNL     1      -5.315  -9.092  -7.963  0.00  0.00    +0.046 A 
ATOM     17  C   UNL     1      -4.090  -8.728  -7.443  0.00  0.00    +0.012 A 
BRANCH  15  18
ATOM     18  O   UNL     1      -6.840  -9.140  -9.787  0.00  0.00    -0.495 OA
ATOM     19  C   UNL     1      -7.727  -9.847  -8.918  0.00  0.00    +0.277 C 
ENDBRANCH  15  18
ENDBRANCH   9  12
BRANCH   8  20
ATOM     20  C   UNL     1      -2.708  -5.321  -7.513  0.00  0.00    +0.451 C 
ATOM     21  F   UNL     1      -3.897  -5.970  -7.865  0.00  0.00    -0.163 F 
ATOM     22  F   UNL     1      -2.895  -4.621  -6.317  0.00  0.00    -0.163 F 
ATOM     23  F   UNL     1      -2.348  -4.426  -8.526  0.00  0.00    -0.163 F 
ENDBRANCH   8  20
BRANCH   2  24
ATOM     24  O   UNL     1       3.496  -6.861  -4.351  0.00  0.00    -0.506 OA
ATOM     25  H   UNL     1       3.309  -6.855  -3.403  0.00  0.00    +0.292 HD
ENDBRANCH   2  24
BRANCH   1  26
ATOM     26  C   UNL     1       1.674  -4.915  -5.254  0.00  0.00    -0.036 C 
BRANCH  26  30
ATOM     27  C   UNL     1       0.791  -3.621  -1.291  0.00  0.00    +0.094 C 
ATOM     28  C   UNL     1       0.188  -2.869  -2.481  0.00  0.00    -0.004 C 
ATOM     29  C   UNL     1       0.998  -3.184  -3.740  0.00  0.00    -0.078 C 
ATOM     30  N   UNL     1       0.961  -4.628  -4.003  0.00  0.00    +0.383 N 
ATOM     31  C   UNL     1       1.603  -5.351  -2.898  0.00  0.00    -0.078 C 
ATOM     32  C   UNL     1       0.816  -5.120  -1.606  0.00  0.00    -0.004 C 
ATOM     33  H   UNL     1       0.001  -4.928  -4.088  0.00  0.00    -0.081 HD
BRANCH  27  34
ATOM     34  C   UNL     1      -0.048  -3.378  -0.063  0.00  0.00    +0.310 C 
ATOM     35  O   UNL     1      -0.573  -4.307   0.503  0.00  0.00    -0.251 OA
BRANCH  34  36
ATOM     36  O   UNL     1      -0.211  -2.129   0.401  0.00  0.00    -0.465 OA
BRANCH  36  38
ATOM     37  C   UNL     1      -1.090  -0.491   1.946  0.00  0.00    +0.048 C 
ATOM     38  C   UNL     1      -1.020  -1.973   1.569  0.00  0.00    +0.229 C 
ENDBRANCH  36  38
ENDBRANCH  34  36
ENDBRANCH  27  34
ENDBRANCH  26  30
ENDBRANCH   1  26
TORSDOF 9
