REMARK  Name = ZINC39947467
REMARK  6 active torsions:
REMARK  status: ('A' for Active; 'I' for Inactive)
REMARK    1  A    between atoms: C_1  and  C_2
REMARK    2  A    between atoms: C_2  and  C_4
REMARK    3  A    between atoms: C_2  and  S_15
REMARK    4  A    between atoms: C_4  and  C_6
REMARK    5  A    between atoms: S_15  and  C_16
REMARK    6  A    between atoms: N_25  and  C_26
REMARK                            x       y       z     vdW  Elec       q    Type
REMARK                         _______ _______ _______ _____ _____    ______ ____
ROOT
ATOM      1  C   UNL     1      -0.019   1.526   0.010  0.00  0.00    +0.027 C 
ATOM      2  C   UNL     1       0.002  -0.004   0.002  0.00  0.00    +0.117 C 
ENDROOT
BRANCH   2   3
ATOM      3  C   UNL     1       0.731  -0.503   1.223  0.00  0.00    +0.174 C 
ATOM      4  O   UNL     1       1.912  -0.776   1.156  0.00  0.00    -0.291 OA
BRANCH   3   5
ATOM      5  C   UNL     1       0.041  -0.654   2.444  0.00  0.00    +0.024 C 
ATOM      6  C   UNL     1       0.559  -1.092   3.650  0.00  0.00    +0.006 A 
ATOM      7  C   UNL     1       1.852  -1.507   4.047  0.00  0.00    +0.010 A 
ATOM      8  C   UNL     1       2.081  -1.893   5.322  0.00  0.00    +0.001 A 
ATOM      9  C   UNL     1       1.073  -1.904   6.300  0.00  0.00    +0.002 A 
ATOM     10  C   UNL     1      -0.194  -1.527   6.024  0.00  0.00    +0.026 A 
ATOM     11  C   UNL     1      -0.529  -1.091   4.658  0.00  0.00    +0.043 A 
ATOM     12  N   UNL     1      -1.646  -0.684   4.125  0.00  0.00    -0.380 N 
ATOM     13  C   UNL     1      -1.420  -0.365   2.711  0.00  0.00    +0.152 C 
ATOM     14  H   UNL     1      -2.492  -0.601   4.590  0.00  0.00    +0.160 HD
ENDBRANCH   3   5
ENDBRANCH   2   3
BRANCH   2  15
ATOM     15  S   UNL     1       0.851  -0.589  -1.490  0.00  0.00    -0.108 S 
BRANCH  15  16
ATOM     16  C   UNL     1      -0.220  -0.041  -2.848  0.00  0.00    +0.220 C 
ATOM     17  N   UNL     1      -0.398   1.415  -2.796  0.00  0.00    -0.316 N 
ATOM     18  C   UNL     1      -1.767   1.662  -2.625  0.00  0.00    +0.050 A 
ATOM     19  C   UNL     1      -2.461   2.861  -2.515  0.00  0.00    +0.025 A 
ATOM     20  C   UNL     1      -3.833   2.857  -2.348  0.00  0.00    +0.002 A 
ATOM     21  C   UNL     1      -4.521   1.659  -2.289  0.00  0.00    +0.002 A 
ATOM     22  C   UNL     1      -3.840   0.462  -2.397  0.00  0.00    +0.025 A 
ATOM     23  C   UNL     1      -2.460   0.456  -2.565  0.00  0.00    +0.053 A 
ATOM     24  N   UNL     1      -1.563  -0.615  -2.697  0.00  0.00    -0.305 N 
ATOM     25  C   UNL     1      -1.902  -2.040  -2.687  0.00  0.00    +0.132 C 
ATOM     26  H   UNL     1       0.302   2.083  -2.868  0.00  0.00    +0.149 HD
ENDBRANCH  15  16
ENDBRANCH   2  15
TORSDOF 4
