REMARK  Name = ZINC59830379
REMARK  8 active torsions:
REMARK  status: ('A' for Active; 'I' for Inactive)
REMARK    1  A    between atoms: C_1  and  C_2
REMARK    2  A    between atoms: C_2  and  C_23
REMARK    3  A    between atoms: N_3  and  N_4
REMARK    4  A    between atoms: C_7  and  S_10
REMARK    5  A    between atoms: S_10  and  C_11
REMARK    6  A    between atoms: C_11  and  C_12
REMARK    7  A    between atoms: N_14  and  C_15
REMARK    8  A    between atoms: C_28  and  O_29
REMARK                            x       y       z     vdW  Elec       q    Type
REMARK                         _______ _______ _______ _____ _____    ______ ____
ROOT
ATOM      1  N   UNL     1      -3.335   1.670   5.120  0.00  0.00    -0.205 N 
ATOM      2  C   UNL     1      -2.670   0.675   5.813  0.00  0.00    +0.232 A 
ATOM      3  N   UNL     1      -3.160  -0.503   6.138  0.00  0.00    -0.186 NA
ATOM      4  C   UNL     1      -2.237  -1.206   6.803  0.00  0.00    +0.211 A 
ATOM      5  N   UNL     1      -1.147  -0.486   6.909  0.00  0.00    -0.144 NA
ATOM      6  N   UNL     1      -1.401   0.739   6.270  0.00  0.00    -0.245 N 
ATOM      7  H   UNL     1      -2.886   2.507   4.923  0.00  0.00    +0.177 HD
ATOM      8  H   UNL     1      -0.786   1.484   6.177  0.00  0.00    +0.192 HD
ENDROOT
BRANCH   1  11
ATOM      9  C   UNL     1      -4.584   3.703   3.746  0.00  0.00    +0.068 C 
ATOM     10  C   UNL     1      -5.282   2.403   4.053  0.00  0.00    +0.067 C 
ATOM     11  N   UNL     1      -4.657   1.469   4.703  0.00  0.00    -0.184 NA
BRANCH  10  12
ATOM     12  C   UNL     1      -6.673   2.191   3.614  0.00  0.00    +0.039 A 
ATOM     13  C   UNL     1      -7.346   3.191   2.909  0.00  0.00    +0.013 A 
ATOM     14  C   UNL     1      -8.648   2.987   2.501  0.00  0.00    +0.001 A 
ATOM     15  C   UNL     1      -9.290   1.795   2.788  0.00  0.00    +0.004 A 
ATOM     16  C   UNL     1      -8.634   0.797   3.485  0.00  0.00    +0.046 A 
ATOM     17  C   UNL     1      -7.325   0.984   3.897  0.00  0.00    +0.126 A 
BRANCH  17  18
ATOM     18  O   UNL     1      -6.677   0.002   4.577  0.00  0.00    -0.506 OA
ATOM     19  H   UNL     1      -6.781   0.054   5.537  0.00  0.00    +0.292 HD
ENDBRANCH  17  18
ENDBRANCH  10  12
ENDBRANCH   1  11
BRANCH   4  20
ATOM     20  S   UNL     1      -2.452  -2.838   7.433  0.00  0.00    -0.075 S 
BRANCH  20  21
ATOM     21  C   UNL     1      -0.860  -3.219   8.215  0.00  0.00    +0.173 C 
BRANCH  21  22
ATOM     22  C   UNL     1      -0.909  -4.606   8.802  0.00  0.00    +0.228 C 
ATOM     23  O   UNL     1      -1.918  -5.272   8.703  0.00  0.00    -0.275 OA
ATOM     24  N   UNL     1       0.169  -5.107   9.438  0.00  0.00    -0.280 N 
ATOM     25  H   UNL     1       0.999  -4.605   9.454  0.00  0.00    +0.155 HD
BRANCH  24  26
ATOM     26  C   UNL     1       0.091  -6.352  10.076  0.00  0.00    +0.105 A 
ATOM     27  C   UNL     1      -0.317  -6.431  11.402  0.00  0.00    +0.147 A 
ATOM     28  C   UNL     1      -0.393  -7.662  12.029  0.00  0.00    +0.040 A 
ATOM     29  C   UNL     1      -0.064  -8.814  11.337  0.00  0.00    +0.006 A 
ATOM     30  C   UNL     1       0.342  -8.739  10.017  0.00  0.00    +0.040 A 
ATOM     31  C   UNL     1       0.415  -7.512   9.382  0.00  0.00    +0.147 A 
ATOM     32  F   UNL     1       0.806  -7.441   8.091  0.00  0.00    -0.203 F 
ATOM     33  F   UNL     1      -0.638  -5.307  12.079  0.00  0.00    -0.203 F 
ENDBRANCH  24  26
ENDBRANCH  21  22
ENDBRANCH  20  21
ENDBRANCH   4  20
TORSDOF 7
