REMARK  Name = ZINC23125567
REMARK  11 active torsions:
REMARK  status: ('A' for Active; 'I' for Inactive)
REMARK    1  A    between atoms: C_1  and  C_2
REMARK    2  A    between atoms: C_2  and  C_3
REMARK    3  A    between atoms: C_3  and  N_4
REMARK    4  A    between atoms: C_10  and  C_23
REMARK    5  A    between atoms: C_17  and  S_18
REMARK    6  A    between atoms: S_18  and  C_19
REMARK    7  A    between atoms: C_19  and  C_20
REMARK    8  A    between atoms: N_25  and  C_26
REMARK    9  A    between atoms: C_26  and  C_28
REMARK   10  A    between atoms: C_26  and  C_29
REMARK   11  A    between atoms: C_29  and  C_30
REMARK                            x       y       z     vdW  Elec       q    Type
REMARK                         _______ _______ _______ _____ _____    ______ ____
ROOT
ATOM      1  N   UNL     1       1.780  -0.134   9.449  0.00  0.00    -0.277 N 
ATOM      2  C   UNL     1       2.439  -0.005   8.279  0.00  0.00    +0.263 A 
ATOM      3  O   UNL     1       3.637  -0.204   8.219  0.00  0.00    -0.267 OA
ATOM      4  C   UNL     1       1.680   0.380   7.073  0.00  0.00    +0.064 A 
ATOM      5  C   UNL     1       2.314   0.527   5.840  0.00  0.00    +0.016 A 
ATOM      6  C   UNL     1       1.580   0.888   4.731  0.00  0.00    +0.014 A 
ATOM      7  C   UNL     1       0.204   1.106   4.840  0.00  0.00    +0.039 A 
ATOM      8  C   UNL     1      -0.435   0.966   6.070  0.00  0.00    +0.040 A 
ATOM      9  C   UNL     1       0.299   0.598   7.187  0.00  0.00    +0.065 A 
ATOM     10  N   UNL     1      -0.317   0.447   8.428  0.00  0.00    -0.256 N 
ATOM     11  C   UNL     1       0.414   0.089   9.528  0.00  0.00    +0.240 A 
ATOM     12  N   UNL     1      -0.409   0.018  10.551  0.00  0.00    -0.109 NA
ATOM     13  N   UNL     1      -1.694   0.338  10.099  0.00  0.00    -0.120 NA
ATOM     14  C   UNL     1      -1.621   0.594   8.815  0.00  0.00    +0.198 A 
ENDROOT
BRANCH   7  15
ATOM     15  C   UNL     1      -0.578   1.494   3.643  0.00  0.00    +0.244 C 
ATOM     16  O   UNL     1      -1.774   1.684   3.735  0.00  0.00    -0.270 OA
ATOM     17  N   UNL     1       0.038   1.636   2.453  0.00  0.00    -0.309 N 
ATOM     18  H   UNL     1       1.122   1.463   2.370  0.00  0.00    +0.149 HD
BRANCH  17  19
ATOM     19  C   UNL     1      -0.735   2.019   1.269  0.00  0.00    +0.070 C 
ATOM     20  C   UNL     1      -0.866   3.543   1.217  0.00  0.00    +0.028 C 
BRANCH  19  21
ATOM     21  C   UNL     1      -0.019   1.526   0.010  0.00  0.00    +0.018 C 
ATOM     22  C   UNL     1       0.002  -0.004   0.002  0.00  0.00    +0.005 C 
ENDBRANCH  19  21
ENDBRANCH  17  19
ENDBRANCH   7  15
BRANCH   1  23
ATOM     23  C   UNL     1       2.519  -0.516  10.654  0.00  0.00    +0.128 C 
BRANCH  23  25
ATOM     24  C   UNL     1       3.304  -2.440  12.042  0.00  0.00    +0.005 C 
ATOM     25  C   UNL     1       2.532  -2.041  10.783  0.00  0.00    +0.018 C 
ENDBRANCH  23  25
ENDBRANCH   1  23
BRANCH  14  26
ATOM     26  S   UNL     1      -2.966   1.048   7.771  0.00  0.00    -0.076 S 
BRANCH  26  27
ATOM     27  C   UNL     1      -4.399   1.066   8.884  0.00  0.00    +0.172 C 
BRANCH  27  28
ATOM     28  C   UNL     1      -5.633   1.445   8.108  0.00  0.00    +0.221 C 
ATOM     29  O   UNL     1      -5.555   1.680   6.921  0.00  0.00    -0.275 OA
ATOM     30  N   UNL     1      -6.825   1.523   8.733  0.00  0.00    -0.329 N 
ATOM     31  H   UNL     1      -7.726   1.799   8.166  0.00  0.00    +0.145 HD
ATOM     32  H   UNL     1      -6.896   1.310   9.809  0.00  0.00    +0.145 HD
ENDBRANCH  27  28
ENDBRANCH  26  27
ENDBRANCH  14  26
TORSDOF 8
