REMARK  Name = ZINC33173837
REMARK  7 active torsions:
REMARK  status: ('A' for Active; 'I' for Inactive)
REMARK    1  A    between atoms: C_1  and  C_2
REMARK    2  A    between atoms: C_5  and  N_9
REMARK    3  A    between atoms: N_9  and  S_10
REMARK    4  A    between atoms: S_10  and  C_13
REMARK    5  A    between atoms: C_15  and  C_19
REMARK    6  A    between atoms: C_17  and  C_18
REMARK    7  A    between atoms: C_21  and  C_25
REMARK                            x       y       z     vdW  Elec       q    Type
REMARK                         _______ _______ _______ _____ _____    ______ ____
ROOT
ATOM      1  C   UNL     1       2.263  -4.344  -0.158  0.00  0.00    +0.119 A 
ATOM      2  C   UNL     1       1.922  -3.013  -0.053  0.00  0.00    +0.046 A 
ATOM      3  C   UNL     1       2.915  -2.073  -0.111  0.00  0.00    +0.041 A 
ATOM      4  S   UNL     1       4.369  -3.087  -0.324  0.00  0.00    -0.090 S 
ATOM      5  C   UNL     1       3.568  -4.682  -0.313  0.00  0.00    +0.014 A 
ATOM      6  C   UNL     1       4.183  -6.051  -0.449  0.00  0.00    +0.053 C 
ENDROOT
BRANCH   3   7
ATOM      7  C   UNL     1       2.811  -0.600  -0.025  0.00  0.00    +0.100 A 
ATOM      8  C   UNL     1       3.883   0.314  -0.091  0.00  0.00    +0.062 A 
ATOM      9  C   UNL     1       3.373   1.559   0.026  0.00  0.00    +0.139 A 
ATOM     10  N   UNL     1       2.034   1.451   0.161  0.00  0.00    -0.273 N 
ATOM     11  H   UNL     1       1.417   2.356   0.272  0.00  0.00    +0.189 HD
ATOM     12  N   UNL     1       1.699   0.091   0.127  0.00  0.00    -0.173 NA
BRANCH   9  13
ATOM     13  C   UNL     1       4.161   2.844   0.008  0.00  0.00    +0.434 C 
ATOM     14  F   UNL     1       3.288   3.928   0.154  0.00  0.00    -0.164 F 
ATOM     15  F   UNL     1       5.082   2.841   1.060  0.00  0.00    -0.164 F 
ATOM     16  F   UNL     1       4.843   2.955  -1.209  0.00  0.00    -0.164 F 
ENDBRANCH   9  13
ENDBRANCH   3   7
BRANCH   1  17
ATOM     17  S   UNL     1       1.020  -5.591  -0.090  0.00  0.00    +0.073 S 
ATOM     18  O   UNL     1       1.448  -6.539   0.879  0.00  0.00    -0.150 OA
ATOM     19  O   UNL     1      -0.227  -4.917   0.002  0.00  0.00    -0.150 OA
BRANCH  17  20
ATOM     20  N   UNL     1       1.030  -6.371  -1.551  0.00  0.00    -0.215 N 
ATOM     21  H   UNL     1       1.361  -7.418  -1.614  0.00  0.00    +0.174 HD
BRANCH  20  26
ATOM     22  C   UNL     1      -0.646  -3.642  -6.233  0.00  0.00    +0.044 C 
ATOM     23  C   UNL     1      -0.202  -4.368  -4.989  0.00  0.00    -0.049 A 
ATOM     24  C   UNL     1       0.395  -3.666  -3.957  0.00  0.00    +0.005 A 
ATOM     25  C   UNL     1       0.804  -4.327  -2.816  0.00  0.00    +0.026 A 
ATOM     26  C   UNL     1       0.616  -5.699  -2.705  0.00  0.00    +0.066 A 
ATOM     27  C   UNL     1       0.022  -6.403  -3.745  0.00  0.00    +0.064 A 
ATOM     28  C   UNL     1      -0.390  -5.733  -4.883  0.00  0.00    +0.025 A 
ATOM     29 CL   UNL     1      -0.208  -8.118  -3.615  0.00  0.00    -0.082 Cl
ENDBRANCH  20  26
ENDBRANCH  17  20
ENDBRANCH   1  17
TORSDOF 5
