REMARK  Name = ZINC20882609
REMARK  4 active torsions:
REMARK  status: ('A' for Active; 'I' for Inactive)
REMARK    1  A    between atoms: C_8  and  C_26
REMARK    2  A    between atoms: C_14  and  C_19
REMARK    3  A    between atoms: C_29  and  O_35
REMARK    4  A    between atoms: C_30  and  N_32
REMARK                            x       y       z     vdW  Elec       q    Type
REMARK                         _______ _______ _______ _____ _____    ______ ____
ROOT
ATOM      1  C   UNL     1      -0.091  -2.678  -5.930  0.00  0.00    +0.002 A 
ATOM      2  C   UNL     1      -1.212  -2.737  -5.122  0.00  0.00    +0.002 A 
ATOM      3  C   UNL     1      -1.113  -2.455  -3.769  0.00  0.00    +0.025 A 
ATOM      4  C   UNL     1       0.117  -2.112  -3.236  0.00  0.00    +0.052 A 
ATOM      5  C   UNL     1       1.233  -2.014  -4.053  0.00  0.00    +0.049 A 
ATOM      6  C   UNL     1       1.136  -2.318  -5.402  0.00  0.00    +0.025 A 
ATOM      7  N   UNL     1       2.421  -1.539  -3.499  0.00  0.00    -0.331 N 
ATOM      8  C   UNL     1       2.522  -0.183  -3.003  0.00  0.00    +0.136 C 
ATOM      9  C   UNL     1       1.638   0.119  -1.817  0.00  0.00    +0.036 C 
ATOM     10  C   UNL     1       0.648  -0.662  -1.352  0.00  0.00    +0.017 C 
ATOM     11  N   UNL     1       0.297  -1.862  -1.881  0.00  0.00    -0.316 N 
ATOM     12  C   UNL     1      -0.164  -0.237  -0.141  0.00  0.00    +0.059 C 
ATOM     13  C   UNL     1      -0.286   1.286  -0.104  0.00  0.00    +0.032 C 
ATOM     14  C   UNL     1       1.131   1.865  -0.024  0.00  0.00    +0.088 C 
ATOM     15  C   UNL     1       1.921   1.357  -1.193  0.00  0.00    +0.163 C 
ATOM     16  O   UNL     1       2.838   2.032  -1.619  0.00  0.00    -0.292 OA
ATOM     17  H   UNL     1       3.289  -2.212  -3.442  0.00  0.00    +0.147 HD
ATOM     18  H   UNL     1       0.154  -2.671  -1.149  0.00  0.00    +0.152 HD
ENDROOT
BRANCH  13  19
ATOM     19  C   UNL     1      -1.078   1.705   1.108  0.00  0.00    -0.043 A 
ATOM     20  C   UNL     1      -0.631   1.375   2.374  0.00  0.00    +0.005 A 
ATOM     21  C   UNL     1      -1.355   1.765   3.485  0.00  0.00    +0.020 A 
ATOM     22  C   UNL     1      -2.531   2.476   3.330  0.00  0.00    +0.041 A 
ATOM     23  C   UNL     1      -2.981   2.801   2.063  0.00  0.00    +0.020 A 
ATOM     24  C   UNL     1      -2.254   2.415   0.952  0.00  0.00    +0.005 A 
ATOM     25 CL   UNL     1      -3.444   2.960   4.726  0.00  0.00    -0.084 Cl
ENDBRANCH  13  19
BRANCH   8  26
ATOM     26  C   UNL     1       2.157   0.762  -4.119  0.00  0.00    -0.020 A 
ATOM     27  C   UNL     1       0.903   0.695  -4.698  0.00  0.00    +0.009 A 
ATOM     28  C   UNL     1       0.566   1.560  -5.721  0.00  0.00    +0.048 A 
ATOM     29  C   UNL     1       1.488   2.496  -6.168  0.00  0.00    +0.147 A 
ATOM     30  C   UNL     1       2.745   2.561  -5.585  0.00  0.00    +0.168 A 
ATOM     31  C   UNL     1       3.075   1.698  -4.559  0.00  0.00    +0.042 A 
BRANCH  30  32
ATOM     32  N   UNL     1       3.730   3.559  -6.060  0.00  0.00    +0.060 N 
ATOM     33  O   UNL     1       4.834   3.616  -5.548  0.00  0.00    -0.126 OA
ATOM     34  O   UNL     1       3.437   4.323  -6.962  0.00  0.00    -0.126 OA
ENDBRANCH  30  32
BRANCH  29  35
ATOM     35  O   UNL     1       1.159   3.349  -7.174  0.00  0.00    -0.504 OA
ATOM     36  H   UNL     1       1.890   4.091  -7.527  0.00  0.00    +0.292 HD
ENDBRANCH  29  35
ENDBRANCH   8  26
TORSDOF 4
