REMARK  Name = ZINC45230594
REMARK  9 active torsions:
REMARK  status: ('A' for Active; 'I' for Inactive)
REMARK    1  A    between atoms: C_1  and  C_2
REMARK    2  A    between atoms: C_2  and  C_4
REMARK    3  A    between atoms: C_2  and  N_11
REMARK    4  A    between atoms: C_12  and  C_14
REMARK    5  A    between atoms: C_14  and  C_16
REMARK    6  A    between atoms: C_14  and  O_17
REMARK    7  A    between atoms: O_17  and  C_18
REMARK    8  A    between atoms: C_18  and  C_20
REMARK    9  A    between atoms: C_25  and  N_26
REMARK                            x       y       z     vdW  Elec       q    Type
REMARK                         _______ _______ _______ _____ _____    ______ ____
ROOT
ATOM      1  C   UNL     1      -3.485  -1.136   1.184  0.00  0.00    +0.259 C 
ATOM      2  C   UNL     1      -4.425  -0.158   0.477  0.00  0.00    +0.062 C 
ENDROOT
BRANCH   1   4
ATOM      3  N   UNL     1      -1.432  -0.428   0.000  0.00  0.00    -0.306 N 
ATOM      4  C   UNL     1      -2.083  -0.584   1.170  0.00  0.00    +0.254 C 
ATOM      5  O   UNL     1      -1.540  -0.281   2.211  0.00  0.00    -0.272 OA
ATOM      6  H   UNL     1      -1.866  -0.671  -0.833  0.00  0.00    +0.149 HD
BRANCH   3   8
ATOM      7  C   UNL     1      -0.122   1.637  -0.008  0.00  0.00    +0.033 C 
ATOM      8  C   UNL     1      -0.069   0.108  -0.014  0.00  0.00    +0.100 C 
BRANCH   8   9
ATOM      9  C   UNL     1       0.644  -0.365  -1.254  0.00  0.00    -0.027 A 
ATOM     10  C   UNL     1      -0.028  -0.413  -2.462  0.00  0.00    +0.008 A 
ATOM     11  C   UNL     1       0.625  -0.846  -3.600  0.00  0.00    +0.038 A 
ATOM     12  C   UNL     1       1.953  -1.233  -3.531  0.00  0.00    +0.123 A 
ATOM     13  C   UNL     1       2.625  -1.185  -2.321  0.00  0.00    +0.038 A 
ATOM     14  C   UNL     1       1.972  -0.746  -1.185  0.00  0.00    +0.008 A 
ATOM     15  F   UNL     1       2.593  -1.657  -4.643  0.00  0.00    -0.205 F 
ENDBRANCH   8   9
ENDBRANCH   3   8
ENDBRANCH   1   4
BRANCH   1  16
ATOM     16  O   UNL     1      -3.913  -1.315   2.536  0.00  0.00    -0.449 OA
BRANCH  16  17
ATOM     17  C   UNL     1      -4.793  -2.308   2.773  0.00  0.00    +0.342 C 
ATOM     18  O   UNL     1      -5.186  -3.003   1.857  0.00  0.00    -0.245 OA
BRANCH  17  19
ATOM     19  C   UNL     1      -5.278  -2.551   4.142  0.00  0.00    +0.081 A 
ATOM     20  C   UNL     1      -4.738  -1.837   5.217  0.00  0.00    +0.032 A 
ATOM     21  C   UNL     1      -5.196  -2.070   6.495  0.00  0.00    +0.019 A 
ATOM     22  C   UNL     1      -6.192  -3.008   6.723  0.00  0.00    +0.017 A 
ATOM     23  C   UNL     1      -6.734  -3.720   5.673  0.00  0.00    +0.024 A 
ATOM     24  C   UNL     1      -6.289  -3.496   4.376  0.00  0.00    +0.039 A 
ATOM     25 BR   UNL     1      -4.464  -1.103   7.947  0.00  0.00    -0.050 Br
BRANCH  24  26
ATOM     26  N   UNL     1      -6.838  -4.207   3.317  0.00  0.00    -0.357 N 
ATOM     27  H   UNL     1      -6.469  -4.111   2.425  0.00  0.00    +0.142 HD
ATOM     28  H   UNL     1      -7.590  -4.800   3.470  0.00  0.00    +0.142 HD
ENDBRANCH  24  26
ENDBRANCH  17  19
ENDBRANCH  16  17
ENDBRANCH   1  16
TORSDOF 7
