REMARK  Name = ZINC38732612
REMARK  4 active torsions:
REMARK  status: ('A' for Active; 'I' for Inactive)
REMARK    1  A    between atoms: C_4  and  C_7
REMARK    2  A    between atoms: C_7  and  O_37
REMARK    3  A    between atoms: C_13  and  C_15
REMARK    4  A    between atoms: C_21  and  C_23
REMARK                            x       y       z     vdW  Elec       q    Type
REMARK                         _______ _______ _______ _____ _____    ______ ____
ROOT
ATOM      1  C   UNL     1       5.547  -5.418   0.192  0.00  0.00    +0.087 C 
ATOM      2  C   UNL     1       4.068  -5.527  -0.187  0.00  0.00    +0.013 C 
ATOM      3  C   UNL     1       3.212  -5.482   1.080  0.00  0.00    +0.001 C 
ATOM      4  C   UNL     1       3.592  -6.648   1.994  0.00  0.00    +0.001 C 
ATOM      5  C   UNL     1       5.071  -6.539   2.373  0.00  0.00    +0.013 C 
ATOM      6  C   UNL     1       5.927  -6.584   1.106  0.00  0.00    +0.087 C 
ENDROOT
BRANCH   6   7
ATOM      7  C   UNL     1       7.383  -6.476   1.479  0.00  0.00    +0.219 C 
ATOM      8  O   UNL     1       7.701  -5.989   2.543  0.00  0.00    -0.275 OA
ATOM      9  N   UNL     1       8.331  -6.920   0.631  0.00  0.00    -0.298 N 
ATOM     10  C   UNL     1       7.958  -7.609  -0.613  0.00  0.00    +0.126 C 
ATOM     11  C   UNL     1       8.613  -6.879  -1.792  0.00  0.00    +0.125 C 
ATOM     12  N   UNL     1      10.038  -6.684  -1.490  0.00  0.00    -0.314 N 
ATOM     13  C   UNL     1      10.411  -5.995  -0.246  0.00  0.00    +0.125 C 
ATOM     14  C   UNL     1       9.756  -6.720   0.930  0.00  0.00    +0.126 C 
ATOM     15  C   UNL     1      11.016  -7.142  -2.366  0.00  0.00    +0.099 A 
ATOM     16  C   UNL     1      10.645  -7.667  -3.600  0.00  0.00    +0.042 A 
ATOM     17  C   UNL     1      11.628  -8.120  -4.461  0.00  0.00    +0.005 A 
ATOM     18  C   UNL     1      12.954  -8.032  -4.057  0.00  0.00    +0.018 A 
ATOM     19  C   UNL     1      13.251  -7.500  -2.819  0.00  0.00    +0.084 A 
ATOM     20  N   UNL     1      12.292  -7.071  -2.020  0.00  0.00    -0.350 N 
ATOM     21  H   UNL     1      12.528  -6.697  -1.156  0.00  0.00    +0.166 HD
ENDBRANCH   6   7
BRANCH   1  28
ATOM     22  C   UNL     1       6.319  -0.654  -1.233  0.00  0.00    +0.094 C 
ATOM     23  C   UNL     1       6.290  -2.034  -1.893  0.00  0.00    +0.058 C 
ATOM     24  C   UNL     1       5.278  -2.924  -1.164  0.00  0.00    +0.111 C 
ATOM     25  N   UNL     1       5.612  -2.946   0.266  0.00  0.00    -0.301 N 
ATOM     26  C   UNL     1       5.754  -1.669   0.979  0.00  0.00    +0.111 C 
ATOM     27  C   UNL     1       6.761  -0.794   0.225  0.00  0.00    +0.058 C 
ATOM     28  C   UNL     1       5.785  -4.116   0.913  0.00  0.00    +0.219 C 
ATOM     29  O   UNL     1       6.132  -4.121   2.075  0.00  0.00    -0.275 OA
BRANCH  22  33
ATOM     30  C   UNL     1       9.067   1.866  -3.318  0.00  0.00    +0.000 A 
ATOM     31  C   UNL     1       7.740   1.821  -3.704  0.00  0.00    +0.000 A 
ATOM     32  C   UNL     1       6.851   1.005  -3.030  0.00  0.00    +0.006 A 
ATOM     33  C   UNL     1       7.288   0.234  -1.969  0.00  0.00    -0.016 A 
ATOM     34  C   UNL     1       8.615   0.279  -1.583  0.00  0.00    +0.006 A 
ATOM     35  C   UNL     1       9.504   1.096  -2.256  0.00  0.00    +0.000 A 
ENDBRANCH  22  33
BRANCH  22  36
ATOM     36  O   UNL     1       5.013  -0.076  -1.281  0.00  0.00    -0.384 OA
ATOM     37  H   UNL     1       4.668   0.043  -2.177  0.00  0.00    +0.211 HD
ENDBRANCH  22  36
ENDBRANCH   1  28
TORSDOF 4
