REMARK  Name = ZINC12412312
REMARK  13 active torsions:
REMARK  status: ('A' for Active; 'I' for Inactive)
REMARK    1  A    between atoms: C_1  and  C_2
REMARK    2  A    between atoms: C_2  and  O_3
REMARK    3  A    between atoms: O_3  and  C_4
REMARK    4  A    between atoms: C_11  and  S_14
REMARK    5  A    between atoms: S_14  and  C_15
REMARK    6  A    between atoms: C_15  and  C_16
REMARK    7  A    between atoms: C_19  and  C_38
REMARK    8  A    between atoms: N_22  and  S_28
REMARK    9  A    between atoms: C_23  and  C_25
REMARK   10  A    between atoms: C_25  and  C_26
REMARK   11  A    between atoms: C_25  and  C_27
REMARK   12  A    between atoms: S_28  and  C_31
REMARK   13  A    between atoms: C_34  and  C_37
REMARK                            x       y       z     vdW  Elec       q    Type
REMARK                         _______ _______ _______ _____ _____    ______ ____
ROOT
ATOM      1  C   UNL     1      -2.616  -0.085  -0.303  0.00  0.00    +0.227 C 
ATOM      2  O   UNL     1      -1.890  -1.026  -0.063  0.00  0.00    -0.275 OA
ATOM      3  N   UNL     1      -2.820   0.865   0.632  0.00  0.00    -0.279 N 
ATOM      4  C   UNL     1      -3.753   2.005   0.546  0.00  0.00    +0.090 C 
ATOM      5  C   UNL     1      -4.124   2.297   2.014  0.00  0.00    +0.133 C 
ATOM      6  N   UNL     1      -2.960   1.854   2.796  0.00  0.00    -0.154 NA
ATOM      7  C   UNL     1      -2.158   0.971   1.939  0.00  0.00    +0.171 C 
ATOM      8  C   UNL     1      -4.996   1.621  -0.258  0.00  0.00    +0.029 C 
ENDROOT
BRANCH   7   9
ATOM      9  C   UNL     1      -0.757   1.560   1.761  0.00  0.00    +0.020 C 
ATOM     10  C   UNL     1      -0.870   3.002   1.261  0.00  0.00    +0.010 C 
ATOM     11  C   UNL     1       0.021   0.726   0.741  0.00  0.00    +0.010 C 
ENDBRANCH   7   9
BRANCH   6  12
ATOM     12  S   UNL     1      -2.618   2.274   4.360  0.00  0.00    +0.063 S 
ATOM     13  O   UNL     1      -1.204   2.225   4.494  0.00  0.00    -0.153 OA
ATOM     14  O   UNL     1      -3.369   3.447   4.639  0.00  0.00    -0.153 OA
BRANCH  12  15
ATOM     15  C   UNL     1      -3.266   1.004   5.395  0.00  0.00    +0.106 A 
ATOM     16  C   UNL     1      -4.591   1.042   5.789  0.00  0.00    +0.029 A 
ATOM     17  C   UNL     1      -5.100   0.042   6.597  0.00  0.00    +0.005 A 
ATOM     18  C   UNL     1      -4.283  -0.990   7.018  0.00  0.00    -0.050 A 
ATOM     19  C   UNL     1      -2.957  -1.025   6.628  0.00  0.00    +0.005 A 
ATOM     20  C   UNL     1      -2.449  -0.028   5.817  0.00  0.00    +0.029 A 
ATOM     21  C   UNL     1      -4.838  -2.077   7.902  0.00  0.00    +0.044 C 
ENDBRANCH  12  15
ENDBRANCH   6  12
BRANCH   1  22
ATOM     22  C   UNL     1      -3.291   0.022  -1.646  0.00  0.00    +0.173 C 
BRANCH  22  23
ATOM     23  S   UNL     1      -2.665  -1.275  -2.742  0.00  0.00    -0.079 S 
BRANCH  23  31
ATOM     24  C   UNL     1      -6.297   0.552  -7.521  0.00  0.00    +0.123 A 
ATOM     25  C   UNL     1      -5.696  -0.502  -8.201  0.00  0.00    +0.048 A 
ATOM     26  C   UNL     1      -4.753  -1.290  -7.574  0.00  0.00    +0.031 A 
ATOM     27  C   UNL     1      -4.400  -1.032  -6.258  0.00  0.00    +0.067 A 
ATOM     28  C   UNL     1      -5.003   0.031  -5.564  0.00  0.00    +0.093 A 
ATOM     29  C   UNL     1      -5.957   0.822  -6.209  0.00  0.00    +0.075 A 
ATOM     30  N   UNL     1      -4.475   0.042  -4.312  0.00  0.00    -0.222 NA
ATOM     31  C   UNL     1      -3.595  -0.923  -4.196  0.00  0.00    +0.168 A 
ATOM     32  N   UNL     1      -3.513  -1.619  -5.368  0.00  0.00    -0.333 N 
ATOM     33  H   UNL     1      -2.923  -2.406  -5.551  0.00  0.00    +0.168 HD
BRANCH  24  34
ATOM     34  O   UNL     1      -7.225   1.321  -8.150  0.00  0.00    -0.492 OA
BRANCH  34  36
ATOM     35  C   UNL     1      -8.589   1.956 -10.041  0.00  0.00    +0.048 C 
ATOM     36  C   UNL     1      -7.532   0.988  -9.505  0.00  0.00    +0.225 C 
ENDBRANCH  34  36
ENDBRANCH  24  34
ENDBRANCH  23  31
ENDBRANCH  22  23
ENDBRANCH   1  22
TORSDOF 8
