REMARK  Name = ZINC02839620
REMARK  5 active torsions:
REMARK  status: ('A' for Active; 'I' for Inactive)
REMARK    1  A    between atoms: C_4  and  N_19
REMARK    2  A    between atoms: C_6  and  C_7
REMARK    3  A    between atoms: C_7  and  C_9
REMARK    4  A    between atoms: C_9  and  C_11
REMARK    5  A    between atoms: C_15  and  N_17
REMARK                            x       y       z     vdW  Elec       q    Type
REMARK                         _______ _______ _______ _____ _____    ______ ____
ROOT
ATOM      1  C   UNL     1      -1.262  -0.761   0.010  0.00  0.00    +0.233 C 
ATOM      2  O   UNL     1      -1.546  -0.148  -0.999  0.00  0.00    -0.283 OA
ENDROOT
BRANCH   1   8
ATOM      3  C   UNL     1      -0.830  -0.747   2.463  0.00  0.00    +0.013 A 
ATOM      4  C   UNL     1      -0.629  -0.067   3.645  0.00  0.00    +0.018 A 
ATOM      5  C   UNL     1      -0.641   1.317   3.664  0.00  0.00    +0.039 A 
ATOM      6  C   UNL     1      -0.857   2.033   2.489  0.00  0.00    +0.039 A 
ATOM      7  C   UNL     1      -1.060   1.361   1.296  0.00  0.00    +0.035 A 
ATOM      8  C   UNL     1      -1.048  -0.037   1.276  0.00  0.00    +0.027 A 
ATOM      9 BR   UNL     1      -0.364   2.240   5.291  0.00  0.00    -0.048 Br
BRANCH   6  10
ATOM     10  N   UNL     1      -0.867   3.430   2.515  0.00  0.00    -0.357 N 
ATOM     11  H   UNL     1      -1.017   3.929   1.696  0.00  0.00    +0.142 HD
ATOM     12  H   UNL     1      -0.725   3.901   3.351  0.00  0.00    +0.142 HD
ENDBRANCH   6  10
ENDBRANCH   1   8
BRANCH   1  13
ATOM     13  C   UNL     1      -1.131  -2.246  -0.031  0.00  0.00    +0.233 C 
ATOM     14  O   UNL     1      -0.031  -2.759  -0.011  0.00  0.00    -0.283 OA
BRANCH  13  15
ATOM     15  C   UNL     1      -2.337  -3.091  -0.097  0.00  0.00    +0.027 A 
ATOM     16  C   UNL     1      -3.601  -2.503  -0.221  0.00  0.00    +0.013 A 
ATOM     17  C   UNL     1      -4.726  -3.296  -0.288  0.00  0.00    +0.018 A 
ATOM     18  C   UNL     1      -4.613  -4.674  -0.221  0.00  0.00    +0.039 A 
ATOM     19  C   UNL     1      -3.361  -5.269  -0.092  0.00  0.00    +0.039 A 
ATOM     20  C   UNL     1      -2.223  -4.483  -0.030  0.00  0.00    +0.035 A 
ATOM     21 BR   UNL     1      -6.165  -5.752  -0.307  0.00  0.00    -0.048 Br
BRANCH  19  22
ATOM     22  N   UNL     1      -3.253  -6.661  -0.026  0.00  0.00    -0.357 N 
ATOM     23  H   UNL     1      -2.381  -7.076   0.064  0.00  0.00    +0.142 HD
ATOM     24  H   UNL     1      -4.050  -7.212  -0.070  0.00  0.00    +0.142 HD
ENDBRANCH  19  22
ENDBRANCH  13  15
ENDBRANCH   1  13
TORSDOF 5
