REMARK  Name = ZINC30261427
REMARK  6 active torsions:
REMARK  status: ('A' for Active; 'I' for Inactive)
REMARK    1  A    between atoms: C_1  and  C_2
REMARK    2  A    between atoms: C_2  and  C_4
REMARK    3  A    between atoms: C_2  and  N_14
REMARK    4  A    between atoms: C_15  and  C_17
REMARK    5  A    between atoms: C_17  and  N_18
REMARK    6  A    between atoms: C_24  and  C_26
REMARK                            x       y       z     vdW  Elec       q    Type
REMARK                         _______ _______ _______ _____ _____    ______ ____
ROOT
ATOM      1  C   UNL     1      -6.242  -1.099   2.608  0.00  0.00    +0.019 C 
ENDROOT
BRANCH   1   2
ATOM      2  N   UNL     1      -7.401  -1.867   3.080  0.00  0.00    +0.387 N 
ATOM      3  C   UNL     1      -8.226  -2.323   1.953  0.00  0.00    -0.059 C 
ATOM      4  C   UNL     1      -9.316  -3.267   2.470  0.00  0.00    +0.089 C 
ATOM      5  N   UNL     1     -10.054  -2.584   3.544  0.00  0.00    -0.301 N 
ATOM      6  C   UNL     1      -9.284  -1.980   4.642  0.00  0.00    +0.089 C 
ATOM      7  C   UNL     1      -8.195  -1.087   4.039  0.00  0.00    -0.059 C 
ATOM      8  C   UNL     1     -11.400  -2.513   3.522  0.00  0.00    +0.248 C 
ATOM      9  O   UNL     1     -11.998  -2.009   4.453  0.00  0.00    -0.270 OA
ATOM     10  H   UNL     1      -7.028  -2.760   3.603  0.00  0.00    -0.081 HD
BRANCH   8  11
ATOM     11  C   UNL     1     -12.149  -3.048   2.366  0.00  0.00    +0.055 A 
ATOM     12  C   UNL     1     -11.932  -4.359   1.936  0.00  0.00    +0.016 A 
ATOM     13  C   UNL     1     -12.634  -4.852   0.858  0.00  0.00    +0.021 A 
ATOM     14  C   UNL     1     -13.554  -4.052   0.200  0.00  0.00    +0.042 A 
ATOM     15  C   UNL     1     -13.775  -2.752   0.621  0.00  0.00    +0.040 A 
ATOM     16  C   UNL     1     -13.082  -2.246   1.703  0.00  0.00    +0.054 A 
ATOM     17 CL   UNL     1     -13.364  -0.618   2.234  0.00  0.00    -0.083 Cl
ATOM     18 CL   UNL     1     -14.434  -4.682  -1.158  0.00  0.00    -0.083 Cl
ENDBRANCH   8  11
ENDBRANCH   1   2
BRANCH   1  20
ATOM     19  N   UNL     1      -4.188  -1.514   1.293  0.00  0.00    -0.310 N 
ATOM     20  C   UNL     1      -5.324  -2.004   1.827  0.00  0.00    +0.197 C 
ATOM     21  O   UNL     1      -5.609  -3.174   1.678  0.00  0.00    -0.278 OA
ATOM     22  H   UNL     1      -3.930  -0.453   1.428  0.00  0.00    +0.149 HD
BRANCH  19  24
ATOM     23  C   UNL     1      -3.771  -2.470  -0.919  0.00  0.00    +0.033 C 
ATOM     24  C   UNL     1      -3.296  -2.394   0.533  0.00  0.00    +0.100 C 
BRANCH  24  25
ATOM     25  C   UNL     1      -1.894  -1.844   0.575  0.00  0.00    -0.024 A 
ATOM     26  C   UNL     1      -1.683  -0.482   0.469  0.00  0.00    +0.009 A 
ATOM     27  C   UNL     1      -0.398   0.025   0.502  0.00  0.00    +0.050 A 
ATOM     28  C   UNL     1       0.684  -0.831   0.648  0.00  0.00    +0.162 A 
ATOM     29  C   UNL     1       0.472  -2.200   0.755  0.00  0.00    +0.162 A 
ATOM     30  C   UNL     1      -0.820  -2.703   0.718  0.00  0.00    +0.055 A 
ATOM     31  O   UNL     1       1.519  -3.058   0.899  0.00  0.00    -0.485 OA
ATOM     32  C   UNL     1       2.814  -2.554   0.557  0.00  0.00    +0.270 C 
ATOM     33  C   UNL     1       2.974  -1.167   1.192  0.00  0.00    +0.270 C 
ATOM     34  O   UNL     1       1.944  -0.316   0.677  0.00  0.00    -0.485 OA
ENDBRANCH  24  25
ENDBRANCH  19  24
ENDBRANCH   1  20
TORSDOF 5
