REMARK  Name = ZINC39656945
REMARK  8 active torsions:
REMARK  status: ('A' for Active; 'I' for Inactive)
REMARK    1  A    between atoms: C_1  and  C_2
REMARK    2  A    between atoms: C_2  and  C_4
REMARK    3  A    between atoms: C_2  and  N_11
REMARK    4  A    between atoms: C_12  and  C_14
REMARK    5  A    between atoms: C_25  and  C_27
REMARK    6  A    between atoms: C_27  and  C_29
REMARK    7  A    between atoms: C_27  and  O_30
REMARK    8  A    between atoms: O_30  and  C_31
REMARK                            x       y       z     vdW  Elec       q    Type
REMARK                         _______ _______ _______ _____ _____    ______ ____
ROOT
ATOM      1  C   UNL     1       2.703  -1.076  -2.476  0.00  0.00    +0.100 C 
ATOM      2  C   UNL     1       2.376  -0.149  -3.667  0.00  0.00    +0.121 C 
ATOM      3  N   UNL     1       3.497   0.819  -3.707  0.00  0.00    -0.297 N 
ATOM      4  C   UNL     1       4.697   0.006  -3.396  0.00  0.00    +0.115 C 
ATOM      5  C   UNL     1       4.228  -0.975  -2.303  0.00  0.00    -0.004 C 
ATOM      6  C   UNL     1       4.875  -2.341  -2.507  0.00  0.00    -0.010 C 
ATOM      7  C   UNL     1       6.383  -2.227  -2.272  0.00  0.00    -0.082 C 
ATOM      8  N   UNL     1       6.634  -1.742  -0.909  0.00  0.00    +0.379 N 
ATOM      9  C   UNL     1       6.089  -0.389  -0.751  0.00  0.00    -0.082 C 
ATOM     10  C   UNL     1       4.567  -0.425  -0.921  0.00  0.00    -0.010 C 
ATOM     11  C   UNL     1       3.439   2.140  -3.968  0.00  0.00    +0.256 C 
ATOM     12  O   UNL     1       2.364   2.683  -4.112  0.00  0.00    -0.272 OA
ATOM     13  H   UNL     1       6.191  -2.361  -0.247  0.00  0.00    -0.086 HD
ATOM     14  H   UNL     1       7.628  -1.726  -0.737  0.00  0.00    -0.086 HD
ENDROOT
BRANCH   1  16
ATOM     15  N   UNL     1       1.627  -1.484  -0.286  0.00  0.00    -0.308 N 
ATOM     16  C   UNL     1       2.001  -0.598  -1.231  0.00  0.00    +0.219 C 
ATOM     17  O   UNL     1       1.772   0.583  -1.079  0.00  0.00    -0.275 OA
ATOM     18  H   UNL     1       1.810  -2.429  -0.407  0.00  0.00    +0.149 HD
BRANCH  15  20
ATOM     19  C   UNL     1      -0.556  -0.901   0.650  0.00  0.00    +0.033 C 
ATOM     20  C   UNL     1       0.945  -1.019   0.924  0.00  0.00    +0.100 C 
BRANCH  20  21
ATOM     21  C   UNL     1       1.175  -2.005   2.041  0.00  0.00    -0.027 A 
ATOM     22  C   UNL     1       1.156  -3.362   1.779  0.00  0.00    +0.006 A 
ATOM     23  C   UNL     1       1.368  -4.267   2.803  0.00  0.00    +0.015 A 
ATOM     24  C   UNL     1       1.599  -3.814   4.089  0.00  0.00    +0.018 A 
ATOM     25  C   UNL     1       1.617  -2.455   4.350  0.00  0.00    +0.015 A 
ATOM     26  C   UNL     1       1.411  -1.552   3.325  0.00  0.00    +0.006 A 
ATOM     27 BR   UNL     1       1.888  -5.051   5.490  0.00  0.00    -0.050 Br
ENDBRANCH  20  21
ENDBRANCH  15  20
ENDBRANCH   1  16
BRANCH  11  28
ATOM     28  C   UNL     1       4.710   2.942  -4.081  0.00  0.00    +0.256 C 
ATOM     29  C   UNL     1       5.468   2.523  -5.342  0.00  0.00    +0.062 C 
BRANCH  28  30
ATOM     30  O   UNL     1       4.390   4.333  -4.157  0.00  0.00    -0.480 OA
BRANCH  30  31
ATOM     31  C   UNL     1       5.345   5.209  -3.748  0.00  0.00    +0.122 A 
ATOM     32  C   UNL     1       5.060   6.565  -3.679  0.00  0.00    +0.045 A 
ATOM     33  C   UNL     1       6.032   7.454  -3.262  0.00  0.00    +0.004 A 
ATOM     34  C   UNL     1       7.288   6.993  -2.915  0.00  0.00    +0.000 A 
ATOM     35  C   UNL     1       7.575   5.642  -2.984  0.00  0.00    +0.004 A 
ATOM     36  C   UNL     1       6.605   4.749  -3.394  0.00  0.00    +0.045 A 
ENDBRANCH  30  31
ENDBRANCH  28  30
ENDBRANCH  11  28
TORSDOF 6
