REMARK  Name = ZINC45575093
REMARK  7 active torsions:
REMARK  status: ('A' for Active; 'I' for Inactive)
REMARK    1  A    between atoms: C_3  and  C_6
REMARK    2  A    between atoms: C_6  and  C_8
REMARK    3  A    between atoms: C_6  and  N_26
REMARK    4  A    between atoms: C_8  and  N_9
REMARK    5  A    between atoms: C_10  and  C_12
REMARK    6  A    between atoms: C_12  and  N_13
REMARK    7  A    between atoms: C_14  and  C_16
REMARK                            x       y       z     vdW  Elec       q    Type
REMARK                         _______ _______ _______ _____ _____    ______ ____
ROOT
ATOM      1  N   UNL     1       5.745   2.231   1.339  0.00  0.00    -0.315 N 
ATOM      2  C   UNL     1       6.460   2.277   2.480  0.00  0.00    +0.230 C 
ATOM      3  O   UNL     1       5.912   2.096   3.547  0.00  0.00    -0.274 OA
ATOM      4  H   UNL     1       6.183   2.376   0.486  0.00  0.00    +0.149 HD
ENDROOT
BRANCH   1   5
ATOM      5  C   UNL     1       4.305   1.964   1.387  0.00  0.00    +0.094 C 
BRANCH   5   6
ATOM      6  C   UNL     1       3.715   2.095  -0.019  0.00  0.00    -0.013 C 
BRANCH   6   7
ATOM      7  N   UNL     1       2.299   1.704   0.006  0.00  0.00    +0.386 N 
ATOM      8  C   UNL     1       1.715   1.807  -1.356  0.00  0.00    -0.078 C 
ATOM      9  C   UNL     1       0.483   0.870  -1.285  0.00  0.00    -0.020 C 
ATOM     10  C   UNL     1       0.987  -0.297  -0.405  0.00  0.00    -0.020 C 
ATOM     11  C   UNL     1       2.168   0.283   0.394  0.00  0.00    -0.078 C 
ATOM     12  H   UNL     1       1.788   2.289   0.650  0.00  0.00    -0.081 HD
ENDBRANCH   6   7
BRANCH   6  15
ATOM     13  C   UNL     1       4.664   5.426  -1.604  0.00  0.00    +0.008 A 
ATOM     14  C   UNL     1       4.751   4.078  -1.314  0.00  0.00    +0.009 A 
ATOM     15  C   UNL     1       3.834   3.523  -0.483  0.00  0.00    -0.022 A 
ATOM     16  S   UNL     1       2.804   4.925  -0.082  0.00  0.00    -0.103 S 
ATOM     17  C   UNL     1       3.665   6.155  -1.049  0.00  0.00    +0.045 A 
ENDBRANCH   6  15
ENDBRANCH   5   6
ENDBRANCH   1   5
BRANCH   2  18
ATOM     18  C   UNL     1       7.941   2.551   2.431  0.00  0.00    +0.200 C 
BRANCH  18  19
ATOM     19  N   UNL     1       8.483   2.549   3.792  0.00  0.00    -0.306 N 
ATOM     20  C   UNL     1       9.797   2.774   3.994  0.00  0.00    +0.220 C 
ATOM     21  O   UNL     1      10.529   2.979   3.049  0.00  0.00    -0.275 OA
ATOM     22  H   UNL     1       7.897   2.385   4.547  0.00  0.00    +0.149 HD
BRANCH  20  23
ATOM     23  C   UNL     1      10.355   2.771   5.394  0.00  0.00    +0.048 C 
ATOM     24  C   UNL     1       9.662   3.856   6.221  0.00  0.00    +0.019 C 
ATOM     25  C   UNL     1      10.229   3.853   7.642  0.00  0.00    -0.009 C 
ATOM     26  C   UNL     1      11.732   4.132   7.592  0.00  0.00    +0.007 C 
ATOM     27  C   UNL     1      12.425   3.047   6.765  0.00  0.00    -0.009 C 
ATOM     28  C   UNL     1      11.858   3.050   5.344  0.00  0.00    +0.019 C 
ATOM     29  C   UNL     1      12.181   1.681   7.409  0.00  0.00    +0.007 C 
ATOM     30  C   UNL     1      10.678   1.402   7.459  0.00  0.00    -0.009 C 
ATOM     31  C   UNL     1       9.985   2.487   8.286  0.00  0.00    +0.007 C 
ATOM     32  C   UNL     1      10.111   1.405   6.037  0.00  0.00    +0.019 C 
ENDBRANCH  20  23
ENDBRANCH  18  19
ENDBRANCH   2  18
TORSDOF 7
