REMARK  Name = ZINC08299721
REMARK  9 active torsions:
REMARK  status: ('A' for Active; 'I' for Inactive)
REMARK    1  A    between atoms: C_1  and  C_2
REMARK    2  A    between atoms: C_2  and  C_3
REMARK    3  A    between atoms: C_2  and  C_4
REMARK    4  A    between atoms: C_2  and  C_5
REMARK    5  A    between atoms: C_8  and  C_11
REMARK    6  A    between atoms: N_13  and  C_16
REMARK    7  A    between atoms: C_16  and  C_17
REMARK    8  A    between atoms: C_25  and  C_27
REMARK    9  A    between atoms: C_32  and  C_35
REMARK                            x       y       z     vdW  Elec       q    Type
REMARK                         _______ _______ _______ _____ _____    ______ ____
ROOT
ATOM      1  C   UNL     1      -1.206   7.622  -4.397  0.00  0.00    -0.046 C 
ATOM      2  C   UNL     1       0.043   6.992  -5.022  0.00  0.00    -0.010 C 
ATOM      3  C   UNL     1       0.955   6.482  -3.899  0.00  0.00    -0.004 C 
ATOM      4  C   UNL     1       1.326   7.664  -2.995  0.00  0.00    -0.015 C 
ATOM      5  C   UNL     1       0.041   8.274  -2.427  0.00  0.00    -0.078 C 
ATOM      6  C   UNL     1      -1.075   6.125  -2.497  0.00  0.00    -0.065 C 
ATOM      7  C   UNL     1       0.177   5.454  -3.067  0.00  0.00    +0.062 C 
ATOM      8  N   UNL     1      -1.142   7.540  -2.923  0.00  0.00    +0.383 N 
ATOM      9  H   UNL     1      -1.989   7.967  -2.528  0.00  0.00    -0.081 HD
ENDROOT
BRANCH   7  10
ATOM     10  C   UNL     1       1.044   4.960  -1.937  0.00  0.00    +0.217 C 
ATOM     11  O   UNL     1       2.176   5.376  -1.815  0.00  0.00    -0.275 OA
ATOM     12  N   UNL     1       0.561   4.055  -1.063  0.00  0.00    -0.301 N 
ATOM     13  C   UNL     1       1.393   3.563   0.043  0.00  0.00    +0.108 C 
ATOM     14  C   UNL     1       1.417   2.032  -0.001  0.00  0.00    +0.032 C 
ATOM     15  C   UNL     1      -0.018   1.503   0.010  0.00  0.00    +0.078 C 
ATOM     16  C   UNL     1      -0.760   2.009  -1.229  0.00  0.00    +0.032 C 
ATOM     17  C   UNL     1      -0.809   3.540  -1.199  0.00  0.00    +0.108 C 
BRANCH  15  18
ATOM     18  C   UNL     1       0.002  -0.004   0.002  0.00  0.00    +0.214 C 
ATOM     19  O   UNL     1       1.060  -0.596  -0.011  0.00  0.00    -0.276 OA
ATOM     20  N   UNL     1      -1.156  -0.694   0.009  0.00  0.00    -0.329 N 
ATOM     21  H   UNL     1      -2.002  -0.220   0.020  0.00  0.00    +0.145 HD
ATOM     22  H   UNL     1      -1.143  -1.664   0.004  0.00  0.00    +0.145 HD
ENDBRANCH  15  18
ENDBRANCH   7  10
BRANCH   1  23
ATOM     23  C   UNL     1      -1.297   9.092  -4.810  0.00  0.00    +0.130 C 
BRANCH  23  26
ATOM     24  C   UNL     1      -3.997  10.932  -3.307  0.00  0.00    +0.113 A 
ATOM     25  C   UNL     1      -2.661  10.762  -3.529  0.00  0.00    +0.138 A 
ATOM     26  N   UNL     1      -2.550   9.663  -4.309  0.00  0.00    -0.253 N 
ATOM     27  N   UNL     1      -3.729   9.200  -4.533  0.00  0.00    -0.065 NA
ATOM     28  N   UNL     1      -4.616   9.929  -3.953  0.00  0.00    -0.130 NA
BRANCH  24  32
ATOM     29  C   UNL     1      -5.831  14.010  -1.015  0.00  0.00    -0.042 A 
ATOM     30  C   UNL     1      -6.613  13.043  -1.622  0.00  0.00    +0.005 A 
ATOM     31  C   UNL     1      -6.023  12.043  -2.367  0.00  0.00    +0.010 A 
ATOM     32  C   UNL     1      -4.637  12.007  -2.507  0.00  0.00    +0.004 A 
ATOM     33  C   UNL     1      -3.854  12.979  -1.889  0.00  0.00    +0.010 A 
ATOM     34  C   UNL     1      -4.455  13.979  -1.151  0.00  0.00    +0.005 A 
BRANCH  29  36
ATOM     35  C   UNL     1      -7.266  14.477   0.953  0.00  0.00    +0.015 C 
ATOM     36  C   UNL     1      -6.481  15.100  -0.203  0.00  0.00    -0.013 C 
ATOM     37  C   UNL     1      -5.404  16.032   0.355  0.00  0.00    +0.015 C 
ATOM     38  C   UNL     1      -7.435  15.899  -1.094  0.00  0.00    +0.015 C 
ENDBRANCH  29  36
ENDBRANCH  24  32
ENDBRANCH  23  26
ENDBRANCH   1  23
TORSDOF 6
