REMARK  Name = ZINC58565264
REMARK  10 active torsions:
REMARK  status: ('A' for Active; 'I' for Inactive)
REMARK    1  A    between atoms: C_1  and  C_2
REMARK    2  A    between atoms: C_4  and  C_15
REMARK    3  A    between atoms: C_6  and  C_12
REMARK    4  A    between atoms: N_9  and  C_11
REMARK    5  A    between atoms: N_17  and  C_18
REMARK    6  A    between atoms: C_18  and  C_20
REMARK    7  A    between atoms: C_18  and  C_24
REMARK    8  A    between atoms: C_20  and  C_21
REMARK    9  A    between atoms: C_21  and  C_22
REMARK   10  A    between atoms: C_21  and  C_23
REMARK                            x       y       z     vdW  Elec       q    Type
REMARK                         _______ _______ _______ _____ _____    ______ ____
ROOT
ATOM      1  C   UNL     1      -0.097   0.670  -3.144  0.00  0.00    +0.245 C 
ATOM      2  O   UNL     1       0.082   1.577  -2.356  0.00  0.00    -0.270 OA
ATOM      3  N   UNL     1      -0.383   0.943  -4.433  0.00  0.00    -0.302 N 
ATOM      4  H   UNL     1      -0.592   0.222  -5.047  0.00  0.00    +0.150 HD
ENDROOT
BRANCH   1   8
ATOM      5  C   UNL     1      -1.546   1.006  -0.384  0.00  0.00    +0.068 C 
ATOM      6  C   UNL     1      -1.201  -0.461  -0.403  0.00  0.00    +0.070 A 
ATOM      7  C   UNL     1      -0.529  -1.136  -1.443  0.00  0.00    +0.054 A 
ATOM      8  C   UNL     1      -0.000  -0.734  -2.691  0.00  0.00    +0.051 A 
ATOM      9  C   UNL     1       0.614  -1.705  -3.479  0.00  0.00    +0.037 A 
ATOM     10  C   UNL     1       0.684  -3.011  -3.018  0.00  0.00    +0.047 A 
ATOM     11  N   UNL     1       0.184  -3.360  -1.853  0.00  0.00    -0.232 NA
ATOM     12  C   UNL     1      -0.412  -2.486  -1.055  0.00  0.00    +0.159 A 
ATOM     13  N   UNL     1      -1.003  -2.585   0.178  0.00  0.00    -0.249 N 
ATOM     14  N   UNL     1      -1.469  -1.316   0.542  0.00  0.00    -0.174 NA
ATOM     15  C   UNL     1      -1.121  -3.806   0.978  0.00  0.00    +0.174 C 
BRANCH  10  16
ATOM     16  C   UNL     1       1.349  -4.057  -3.874  0.00  0.00    +0.038 C 
ATOM     17  C   UNL     1       2.243  -3.571  -5.018  0.00  0.00    +0.010 C 
ATOM     18  C   UNL     1       2.870  -4.194  -3.769  0.00  0.00    +0.010 C 
ENDBRANCH  10  16
ENDBRANCH   1   8
BRANCH   3  19
ATOM     19  C   UNL     1      -0.377   2.330  -4.906  0.00  0.00    +0.139 C 
BRANCH  19  20
ATOM     20  C   UNL     1      -1.236   2.443  -6.139  0.00  0.00    +0.129 A 
ATOM     21  N   UNL     1      -1.990   1.437  -6.659  0.00  0.00    -0.340 N 
ATOM     22  H   UNL     1      -2.068   0.536  -6.307  0.00  0.00    +0.167 HD
ATOM     23  C   UNL     1      -2.623   1.935  -7.780  0.00  0.00    +0.066 A 
ATOM     24  C   UNL     1      -3.503   1.401  -8.712  0.00  0.00    +0.028 A 
ATOM     25  C   UNL     1      -3.965   2.188  -9.745  0.00  0.00    +0.002 A 
ATOM     26  C   UNL     1      -3.556   3.509  -9.859  0.00  0.00    +0.002 A 
ATOM     27  C   UNL     1      -2.692   4.052  -8.951  0.00  0.00    +0.030 A 
ATOM     28  C   UNL     1      -2.211   3.273  -7.896  0.00  0.00    +0.089 A 
ATOM     29  N   UNL     1      -1.369   3.519  -6.859  0.00  0.00    -0.231 NA
ENDBRANCH  19  20
BRANCH  19  30
ATOM     30  C   UNL     1       1.055   2.748  -5.242  0.00  0.00    +0.033 C 
BRANCH  30  31
ATOM     31  C   UNL     1       1.084   4.239  -5.585  0.00  0.00    -0.015 C 
ATOM     32  C   UNL     1       0.736   5.056  -4.339  0.00  0.00    +0.007 C 
ATOM     33  C   UNL     1       2.482   4.623  -6.073  0.00  0.00    +0.007 C 
ENDBRANCH  30  31
ENDBRANCH  19  30
ENDBRANCH   3  19
TORSDOF 6
