REMARK  Name = ZINC61886236
REMARK  4 active torsions:
REMARK  status: ('A' for Active; 'I' for Inactive)
REMARK    1  A    between atoms: C_2  and  C_9
REMARK    2  A    between atoms: N_11  and  C_12
REMARK    3  A    between atoms: C_17  and  C_19
REMARK    4  A    between atoms: N_20  and  O_21
REMARK                            x       y       z     vdW  Elec       q    Type
REMARK                         _______ _______ _______ _____ _____    ______ ____
ROOT
ATOM      1  C   UNL     1       1.118   3.587   0.463  0.00  0.00    +0.244 C 
ATOM      2  O   UNL     1       0.075   4.195   0.606  0.00  0.00    -0.270 OA
ATOM      3  N   UNL     1       2.268   4.259   0.256  0.00  0.00    -0.308 N 
ATOM      4  H   UNL     1       3.086   3.774   0.067  0.00  0.00    +0.149 HD
ENDROOT
BRANCH   1   6
ATOM      5  C   UNL     1      -0.040   1.414   0.843  0.00  0.00    +0.033 A 
ATOM      6  C   UNL     1       1.125   2.109   0.515  0.00  0.00    +0.039 A 
ATOM      7  C   UNL     1       2.296   1.404   0.236  0.00  0.00    +0.033 A 
ATOM      8  C   UNL     1       2.297   0.024   0.286  0.00  0.00    +0.043 A 
ATOM      9  C   UNL     1       1.138  -0.660   0.612  0.00  0.00    +0.040 A 
ATOM     10  C   UNL     1      -0.028   0.034   0.889  0.00  0.00    +0.043 A 
ATOM     11 CL   UNL     1      -1.476  -0.832   1.297  0.00  0.00    -0.083 Cl
ATOM     12 CL   UNL     1       3.753  -0.856  -0.061  0.00  0.00    -0.083 Cl
ENDBRANCH   1   6
BRANCH   3  13
ATOM     13  C   UNL     1       2.281   5.723   0.316  0.00  0.00    +0.083 C 
ATOM     14  C   UNL     1       2.060   6.311  -1.093  0.00  0.00    +0.023 C 
ATOM     15  C   UNL     1       2.975   7.561  -1.131  0.00  0.00    +0.003 C 
ATOM     16  C   UNL     1       4.227   7.091  -0.350  0.00  0.00    +0.013 C 
ATOM     17  C   UNL     1       3.658   6.218   0.789  0.00  0.00    +0.076 C 
BRANCH  17  18
ATOM     18  C   UNL     1       4.569   5.045   1.046  0.00  0.00    +0.136 C 
ATOM     19  N   UNL     1       4.701   4.580   2.243  0.00  0.00    -0.076 NA
ATOM     20  N   UNL     1       5.260   4.469   0.003  0.00  0.00    -0.344 N 
ATOM     21  H   UNL     1       5.161   4.819  -0.897  0.00  0.00    +0.144 HD
ATOM     22  H   UNL     1       5.846   3.714   0.168  0.00  0.00    +0.144 HD
BRANCH  19  23
ATOM     23  O   UNL     1       3.904   5.094   3.295  0.00  0.00    -0.408 OA
ATOM     24  H   UNL     1       4.127   4.739   4.166  0.00  0.00    +0.328 HD
ENDBRANCH  19  23
ENDBRANCH  17  18
ENDBRANCH   3  13
TORSDOF 4
