REMARK  Name = ZINC25180282
REMARK  8 active torsions:
REMARK  status: ('A' for Active; 'I' for Inactive)
REMARK    1  A    between atoms: C_1  and  C_2
REMARK    2  A    between atoms: C_5  and  C_8
REMARK    3  A    between atoms: N_10  and  C_11
REMARK    4  A    between atoms: C_11  and  C_12
REMARK    5  A    between atoms: N_14  and  C_15
REMARK    6  A    between atoms: C_15  and  C_16
REMARK    7  A    between atoms: C_16  and  C_18
REMARK    8  A    between atoms: C_16  and  C_25
REMARK                            x       y       z     vdW  Elec       q    Type
REMARK                         _______ _______ _______ _____ _____    ______ ____
ROOT
ATOM      1  C   UNL     1       2.452   3.936   0.000  0.00  0.00    +0.069 C 
ENDROOT
BRANCH   1   2
ATOM      2  C   UNL     1       3.236   3.589  -1.239  0.00  0.00    -0.013 A 
ATOM      3  C   UNL     1       3.681   2.372  -1.587  0.00  0.00    +0.088 A 
ATOM      4  N   UNL     1       4.349   2.443  -2.780  0.00  0.00    -0.360 N 
ATOM      5  H   UNL     1       4.779   1.533  -3.224  0.00  0.00    +0.165 HD
ATOM      6  C   UNL     1       4.358   3.742  -3.235  0.00  0.00    +0.047 A 
ATOM      7  C   UNL     1       3.661   4.517  -2.290  0.00  0.00    +0.003 A 
ATOM      8  C   UNL     1       3.509   5.890  -2.491  0.00  0.00    +0.010 A 
ATOM      9  C   UNL     1       4.040   6.475  -3.606  0.00  0.00    +0.001 A 
ATOM     10  C   UNL     1       4.728   5.715  -4.541  0.00  0.00    +0.002 A 
ATOM     11  C   UNL     1       4.890   4.358  -4.362  0.00  0.00    +0.026 A 
ENDBRANCH   1   2
BRANCH   1  12
ATOM     12  C   UNL     1       1.157   3.165   0.008  0.00  0.00    -0.020 A 
ATOM     13  C   UNL     1       1.175   1.783   0.000  0.00  0.00    +0.006 A 
ATOM     14  C   UNL     1      -0.013   1.076   0.008  0.00  0.00    +0.000 A 
ATOM     15  C   UNL     1      -1.219   1.750   0.017  0.00  0.00    +0.001 A 
ATOM     16  C   UNL     1      -1.239   3.132   0.031  0.00  0.00    +0.020 A 
ATOM     17  C   UNL     1      -0.050   3.841   0.023  0.00  0.00    +0.045 A 
ATOM     18 CL   UNL     1      -0.074   5.576   0.032  0.00  0.00    -0.083 Cl
ENDBRANCH   1  12
BRANCH   1  19
ATOM     19  C   UNL     1       3.271   3.570   1.240  0.00  0.00    +0.117 C 
BRANCH  19  22
ATOM     20  C   UNL     1       3.097   3.799   3.660  0.00  0.00    +0.230 C 
ATOM     21  O   UNL     1       4.167   3.236   3.760  0.00  0.00    -0.274 OA
ATOM     22  N   UNL     1       2.562   4.016   2.442  0.00  0.00    -0.313 N 
ATOM     23  H   UNL     1       1.592   4.527   2.351  0.00  0.00    +0.149 HD
BRANCH  20  24
ATOM     24  C   UNL     1       2.368   4.258   4.896  0.00  0.00    +0.200 C 
BRANCH  24  27
ATOM     25  C   UNL     1       2.692   4.221   7.311  0.00  0.00    +0.244 C 
ATOM     26  O   UNL     1       1.628   4.795   7.433  0.00  0.00    -0.270 OA
ATOM     27  N   UNL     1       3.152   3.907   6.083  0.00  0.00    -0.303 N 
ATOM     28  H   UNL     1       4.115   3.388   5.973  0.00  0.00    +0.150 HD
BRANCH  25  33
ATOM     29  C   UNL     1       5.770   2.845  11.974  0.00  0.00    +0.044 C 
ATOM     30  C   UNL     1       4.964   3.205  10.753  0.00  0.00    -0.050 A 
ATOM     31  C   UNL     1       3.753   3.859  10.896  0.00  0.00    +0.004 A 
ATOM     32  C   UNL     1       3.010   4.192   9.782  0.00  0.00    +0.013 A 
ATOM     33  C   UNL     1       3.483   3.868   8.509  0.00  0.00    +0.037 A 
ATOM     34  C   UNL     1       4.703   3.204   8.373  0.00  0.00    +0.013 A 
ATOM     35  C   UNL     1       5.439   2.881   9.495  0.00  0.00    +0.004 A 
ENDBRANCH  25  33
ENDBRANCH  24  27
ENDBRANCH  20  24
ENDBRANCH  19  22
ENDBRANCH   1  19
TORSDOF 7
