REMARK  Name = ZINC65237450
REMARK  7 active torsions:
REMARK  status: ('A' for Active; 'I' for Inactive)
REMARK    1  A    between atoms: C_1  and  C_2
REMARK    2  A    between atoms: C_2  and  C_3
REMARK    3  A    between atoms: C_8  and  N_9
REMARK    4  A    between atoms: C_10  and  C_12
REMARK    5  A    between atoms: C_12  and  N_13
REMARK    6  A    between atoms: C_15  and  S_20
REMARK    7  A    between atoms: S_20  and  N_23
REMARK                            x       y       z     vdW  Elec       q    Type
REMARK                         _______ _______ _______ _____ _____    ______ ____
ROOT
ATOM      1  N   UNL     1      -2.353  -0.595  -5.972  0.00  0.00    -0.305 N 
ATOM      2  C   UNL     1      -2.362  -1.852  -6.486  0.00  0.00    +0.118 A 
ATOM      3  C   UNL     1      -3.187  -2.174  -7.510  0.00  0.00    +0.122 A 
ATOM      4  C   UNL     1      -4.043  -1.204  -8.050  0.00  0.00    +0.035 A 
ATOM      5  C   UNL     1      -4.033   0.057  -7.532  0.00  0.00    +0.072 A 
ATOM      6  C   UNL     1      -3.168   0.356  -6.466  0.00  0.00    +0.252 A 
ATOM      7  O   UNL     1      -3.152   1.480  -5.990  0.00  0.00    -0.268 OA
ENDROOT
BRANCH   3   8
ATOM      8  S   UNL     1      -3.182  -3.810  -8.164  0.00  0.00    +0.062 S 
ATOM      9  O   UNL     1      -3.204  -3.682  -9.579  0.00  0.00    -0.153 OA
ATOM     10  O   UNL     1      -2.159  -4.519  -7.479  0.00  0.00    -0.153 OA
BRANCH   8  11
ATOM     11  N   UNL     1      -4.617  -4.514  -7.730  0.00  0.00    -0.177 NA
ATOM     12  C   UNL     1      -4.687  -5.230  -6.476  0.00  0.00    +0.109 C 
ATOM     13  C   UNL     1      -4.296  -6.712  -6.702  0.00  0.00    +0.017 C 
ATOM     14  C   UNL     1      -5.356  -7.412  -7.444  0.00  0.00    +0.001 C 
ATOM     15  C   UNL     1      -5.604  -6.869  -8.848  0.00  0.00    +0.001 C 
ATOM     16  C   UNL     1      -6.558  -5.702  -8.772  0.00  0.00    +0.017 C 
ATOM     17  C   UNL     1      -5.774  -4.380  -8.637  0.00  0.00    +0.109 C 
ENDBRANCH   8  11
ENDBRANCH   3   8
BRANCH   1  18
ATOM     18  C   UNL     1      -1.451  -0.272  -4.864  0.00  0.00    +0.220 C 
BRANCH  18  20
ATOM     19  N   UNL     1      -1.505  -0.315  -2.391  0.00  0.00    -0.284 N 
ATOM     20  C   UNL     1      -2.147  -0.541  -3.555  0.00  0.00    +0.237 C 
ATOM     21  O   UNL     1      -3.285  -0.961  -3.548  0.00  0.00    -0.274 OA
ATOM     22  H   UNL     1      -0.620   0.082  -2.395  0.00  0.00    +0.155 HD
BRANCH  19  28
ATOM     23  C   UNL     1      -1.349  -1.119  -0.119  0.00  0.00    -0.026 A 
ATOM     24  C   UNL     1      -1.954  -1.445   1.079  0.00  0.00    +0.005 A 
ATOM     25  C   UNL     1      -3.322  -1.313   1.222  0.00  0.00    +0.000 A 
ATOM     26  C   UNL     1      -4.090  -0.854   0.168  0.00  0.00    +0.002 A 
ATOM     27  C   UNL     1      -3.491  -0.525  -1.033  0.00  0.00    +0.023 A 
ATOM     28  C   UNL     1      -2.116  -0.652  -1.178  0.00  0.00    +0.037 A 
BRANCH  23  30
ATOM     29  C   UNL     1       0.819   0.078   0.019  0.00  0.00    +0.009 C 
ATOM     30  C   UNL     1       0.143  -1.263  -0.275  0.00  0.00    +0.033 C 
ENDBRANCH  23  30
ENDBRANCH  19  28
ENDBRANCH  18  20
ENDBRANCH   1  18
TORSDOF 6
