REMARK  Name = ZINC22895754
REMARK  8 active torsions:
REMARK  status: ('A' for Active; 'I' for Inactive)
REMARK    1  A    between atoms: C_1  and  C_2
REMARK    2  A    between atoms: C_2  and  C_3
REMARK    3  A    between atoms: C_2  and  C_4
REMARK    4  A    between atoms: C_4  and  C_6
REMARK    5  A    between atoms: C_4  and  N_22
REMARK    6  A    between atoms: N_8  and  N_9
REMARK    7  A    between atoms: C_10  and  C_12
REMARK    8  A    between atoms: C_23  and  C_25
REMARK                            x       y       z     vdW  Elec       q    Type
REMARK                         _______ _______ _______ _____ _____    ______ ____
ROOT
ATOM      1  C   UNL     1      -1.629   4.994   2.978  0.00  0.00    +0.250 C 
ATOM      2  O   UNL     1      -1.232   5.690   2.068  0.00  0.00    -0.272 OA
ATOM      3  N   UNL     1      -1.317   3.684   3.011  0.00  0.00    -0.233 N 
ATOM      4  H   UNL     1      -1.611   3.070   3.875  0.00  0.00    +0.173 HD
ENDROOT
BRANCH   3   5
ATOM      5  N   UNL     1      -0.619   3.103   1.944  0.00  0.00    -0.234 N 
ATOM      6  C   UNL     1      -0.308   1.792   1.976  0.00  0.00    +0.235 C 
ATOM      7  O   UNL     1      -0.631   1.115   2.929  0.00  0.00    -0.274 OA
ATOM      8  H   UNL     1      -0.326   3.716   1.079  0.00  0.00    +0.173 HD
BRANCH   6   9
ATOM      9  C   UNL     1       0.443   1.167   0.829  0.00  0.00    +0.049 C 
ATOM     10  C   UNL     1       1.794   1.864   0.663  0.00  0.00    +0.019 C 
ATOM     11  C   UNL     1       2.557   1.230  -0.502  0.00  0.00    -0.009 C 
ATOM     12  C   UNL     1       2.781  -0.256  -0.216  0.00  0.00    +0.007 C 
ATOM     13  C   UNL     1       1.429  -0.953  -0.051  0.00  0.00    -0.009 C 
ATOM     14  C   UNL     1       0.667  -0.319   1.115  0.00  0.00    +0.019 C 
ATOM     15  C   UNL     1       0.615  -0.799  -1.337  0.00  0.00    +0.007 C 
ATOM     16  C   UNL     1       0.391   0.688  -1.623  0.00  0.00    -0.009 C 
ATOM     17  C   UNL     1       1.742   1.385  -1.788  0.00  0.00    +0.007 C 
ATOM     18  C   UNL     1      -0.371   1.322  -0.458  0.00  0.00    +0.019 C 
ENDBRANCH   6   9
ENDBRANCH   3   5
BRANCH   1  19
ATOM     19  C   UNL     1      -2.470   5.596   4.074  0.00  0.00    +0.163 C 
BRANCH  19  20
ATOM     20  N   UNL     1      -2.167   7.024   4.194  0.00  0.00    -0.299 N 
ATOM     21  C   UNL     1      -2.378   7.662   5.362  0.00  0.00    +0.251 C 
ATOM     22  O   UNL     1      -2.820   7.052   6.318  0.00  0.00    -0.270 OA
ATOM     23  H   UNL     1      -1.768   7.576   3.330  0.00  0.00    +0.150 HD
BRANCH  21  24
ATOM     24  C   UNL     1      -2.075   9.091   5.483  0.00  0.00    +0.074 A 
ATOM     25  C   UNL     1      -2.217   9.925   6.580  0.00  0.00    +0.021 A 
ATOM     26  C   UNL     1      -1.853  11.239   6.419  0.00  0.00    +0.008 A 
ATOM     27  C   UNL     1      -1.380  11.653   5.214  0.00  0.00    +0.046 A 
ATOM     28  S   UNL     1      -1.419  10.209   4.256  0.00  0.00    -0.092 S 
ENDBRANCH  21  24
ENDBRANCH  19  20
BRANCH  19  30
ATOM     29  C   UNL     1      -4.235   6.003   2.353  0.00  0.00    +0.009 C 
ATOM     30  C   UNL     1      -3.952   5.416   3.737  0.00  0.00    +0.012 C 
ATOM     31  C   UNL     1      -4.297   3.925   3.739  0.00  0.00    +0.009 C 
ENDBRANCH  19  30
ENDBRANCH   1  19
TORSDOF 6
