REMARK  Name = ZINC39670414
REMARK  6 active torsions:
REMARK  status: ('A' for Active; 'I' for Inactive)
REMARK    1  A    between atoms: C_1  and  C_2
REMARK    2  A    between atoms: C_7  and  C_11
REMARK    3  A    between atoms: C_11  and  N_12
REMARK    4  A    between atoms: C_13  and  C_15
REMARK    5  A    between atoms: C_26  and  C_28
REMARK    6  A    between atoms: C_33  and  C_34
REMARK                            x       y       z     vdW  Elec       q    Type
REMARK                         _______ _______ _______ _____ _____    ______ ____
ROOT
ATOM      1  C   UNL     1       3.658  -7.483   3.743  0.00  0.00    +0.100 C 
ATOM      2  C   UNL     1       3.987  -7.804   2.268  0.00  0.00    +0.121 C 
ATOM      3  N   UNL     1       4.700  -9.102   2.317  0.00  0.00    -0.296 N 
ATOM      4  C   UNL     1       3.981  -9.879   3.355  0.00  0.00    +0.115 C 
ATOM      5  C   UNL     1       3.655  -8.847   4.453  0.00  0.00    -0.004 C 
ATOM      6  C   UNL     1       2.279  -9.129   5.049  0.00  0.00    -0.010 C 
ATOM      7  C   UNL     1       2.317 -10.463   5.800  0.00  0.00    -0.082 C 
ATOM      8  N   UNL     1       3.328 -10.401   6.861  0.00  0.00    +0.379 N 
ATOM      9  C   UNL     1       4.661 -10.223   6.273  0.00  0.00    -0.082 C 
ATOM     10  C   UNL     1       4.723  -8.878   5.542  0.00  0.00    -0.010 C 
ATOM     11  C   UNL     1       5.764  -9.489   1.585  0.00  0.00    +0.247 C 
ATOM     12  O   UNL     1       6.178 -10.628   1.669  0.00  0.00    -0.270 OA
ATOM     13  H   UNL     1       3.125  -9.625   7.473  0.00  0.00    -0.086 HD
ATOM     14  H   UNL     1       3.309 -11.259   7.393  0.00  0.00    -0.086 HD
ENDROOT
BRANCH  11  15
ATOM     15  C   UNL     1       6.426  -8.526   0.678  0.00  0.00    +0.049 A 
ATOM     16  C   UNL     1       5.667  -7.588  -0.023  0.00  0.00    +0.013 A 
ATOM     17  C   UNL     1       6.292  -6.693  -0.867  0.00  0.00    +0.001 A 
ATOM     18  C   UNL     1       7.667  -6.724  -1.019  0.00  0.00    +0.001 A 
ATOM     19  C   UNL     1       8.424  -7.652  -0.327  0.00  0.00    +0.013 A 
ATOM     20  C   UNL     1       7.813  -8.549   0.525  0.00  0.00    +0.067 A 
BRANCH  20  21
ATOM     21  C   UNL     1       8.640  -9.555   1.282  0.00  0.00    +0.418 C 
ATOM     22  F   UNL     1       9.992  -9.381   0.965  0.00  0.00    -0.166 F 
ATOM     23  F   UNL     1       8.456  -9.369   2.657  0.00  0.00    -0.166 F 
ATOM     24  F   UNL     1       8.241 -10.848   0.929  0.00  0.00    -0.166 F 
ENDBRANCH  20  21
ENDBRANCH  11  15
BRANCH   1  26
ATOM     25  N   UNL     1       2.047  -5.967   4.849  0.00  0.00    -0.309 N 
ATOM     26  C   UNL     1       2.303  -6.833   3.849  0.00  0.00    +0.219 C 
ATOM     27  O   UNL     1       1.442  -7.089   3.034  0.00  0.00    -0.275 OA
ATOM     28  H   UNL     1       2.736  -5.762   5.501  0.00  0.00    +0.149 HD
BRANCH  25  29
ATOM     29  C   UNL     1       0.730  -5.335   4.953  0.00  0.00    +0.159 C 
BRANCH  29  36
ATOM     30  C   UNL     1       0.055  -1.930  11.478  0.00  0.00    +0.045 C 
ATOM     31  C   UNL     1       0.375  -2.181  10.026  0.00  0.00    -0.034 A 
ATOM     32  C   UNL     1       0.935  -1.155   9.246  0.00  0.00    +0.008 A 
ATOM     33  C   UNL     1       1.222  -1.385   7.937  0.00  0.00    +0.045 A 
ATOM     34  C   UNL     1       0.952  -2.653   7.383  0.00  0.00    +0.115 A 
ATOM     35  N   UNL     1       1.124  -3.150   6.167  0.00  0.00    -0.342 N 
ATOM     36  C   UNL     1       0.705  -4.418   6.148  0.00  0.00    +0.051 A 
ATOM     37  C   UNL     1       0.254  -4.741   7.380  0.00  0.00    +0.115 A 
ATOM     38  N   UNL     1       0.406  -3.634   8.169  0.00  0.00    -0.308 N 
ATOM     39  C   UNL     1       0.127  -3.391   9.483  0.00  0.00    +0.096 A 
ATOM     40  H   UNL     1       1.495  -2.670   5.410  0.00  0.00    +0.167 HD
ENDBRANCH  29  36
ENDBRANCH  25  29
ENDBRANCH   1  26
TORSDOF 5
