REMARK  Name = ZINC64044122
REMARK  10 active torsions:
REMARK  status: ('A' for Active; 'I' for Inactive)
REMARK    1  A    between atoms: C_1  and  C_2
REMARK    2  A    between atoms: C_10  and  C_12
REMARK    3  A    between atoms: N_14  and  C_15
REMARK    4  A    between atoms: N_14  and  C_31
REMARK    5  A    between atoms: C_15  and  C_16
REMARK    6  A    between atoms: C_19  and  O_24
REMARK    7  A    between atoms: C_20  and  O_22
REMARK    8  A    between atoms: O_22  and  C_23
REMARK    9  A    between atoms: O_24  and  C_25
REMARK   10  A    between atoms: C_31  and  C_32
REMARK                            x       y       z     vdW  Elec       q    Type
REMARK                         _______ _______ _______ _____ _____    ______ ____
ROOT
ATOM      1  C   UNL     1      -1.297  -0.188   1.990  0.00  0.00    +0.243 C 
ATOM      2  O   UNL     1      -0.299  -0.057   1.313  0.00  0.00    -0.273 OA
ATOM      3  N   UNL     1      -1.484   0.592   3.073  0.00  0.00    -0.291 N 
ENDROOT
BRANCH   1  13
ATOM      4  C   UNL     1      -1.232  -3.238   3.047  0.00  0.00    +0.042 C 
ATOM      5  C   UNL     1      -1.752  -2.612   1.779  0.00  0.00    -0.033 C 
ATOM      6  C   UNL     1      -1.803  -3.182   0.553  0.00  0.00    +0.001 A 
ATOM      7  C   UNL     1      -1.405  -4.503   0.054  0.00  0.00    +0.030 A 
ATOM      8  C   UNL     1      -1.583  -4.790  -1.257  0.00  0.00    +0.042 A 
ATOM      9  C   UNL     1      -2.136  -3.858  -2.147  0.00  0.00    +0.022 A 
ATOM     10  C   UNL     1      -2.526  -2.625  -1.762  0.00  0.00    +0.027 A 
ATOM     11  C   UNL     1      -2.385  -2.217  -0.407  0.00  0.00    +0.043 A 
ATOM     12  N   UNL     1      -2.682  -1.094   0.202  0.00  0.00    -0.370 N 
ATOM     13  C   UNL     1      -2.327  -1.223   1.620  0.00  0.00    +0.193 C 
ATOM     14 CL   UNL     1      -1.113  -6.352  -1.852  0.00  0.00    -0.084 Cl
ATOM     15  H   UNL     1      -3.074  -0.311  -0.215  0.00  0.00    +0.161 HD
ENDBRANCH   1  13
BRANCH   3  16
ATOM     16  C   UNL     1      -2.638   0.368   3.947  0.00  0.00    +0.143 C 
BRANCH  16  17
ATOM     17  C   UNL     1      -2.225  -0.488   5.115  0.00  0.00    -0.026 A 
ATOM     18  C   UNL     1      -2.440  -1.854   5.080  0.00  0.00    +0.009 A 
ATOM     19  C   UNL     1      -2.062  -2.644   6.150  0.00  0.00    +0.050 A 
ATOM     20  C   UNL     1      -1.467  -2.068   7.261  0.00  0.00    +0.162 A 
ATOM     21  C   UNL     1      -1.250  -0.694   7.296  0.00  0.00    +0.162 A 
ATOM     22  C   UNL     1      -1.626   0.092   6.218  0.00  0.00    +0.054 A 
BRANCH  21  23
ATOM     23  O   UNL     1      -0.665  -0.124   8.383  0.00  0.00    -0.491 OA
ATOM     24  C   UNL     1      -0.474   1.292   8.350  0.00  0.00    +0.277 C 
ENDBRANCH  21  23
BRANCH  20  25
ATOM     25  O   UNL     1      -1.095  -2.844   8.314  0.00  0.00    -0.483 OA
BRANCH  25  26
ATOM     26  C   UNL     1      -1.237  -4.258   8.160  0.00  0.00    +0.201 C 
ATOM     27  C   UNL     1      -0.319  -5.016   9.157  0.00  0.00    +0.075 C 
ATOM     28  C   UNL     1      -1.111  -6.336   9.340  0.00  0.00    +0.163 C 
ATOM     29  O   UNL     1      -2.494  -5.949   9.312  0.00  0.00    -0.376 OA
ATOM     30  C   UNL     1      -2.646  -4.718   8.589  0.00  0.00    +0.204 C 
ENDBRANCH  25  26
ENDBRANCH  20  25
ENDBRANCH  16  17
ENDBRANCH   3  16
BRANCH   3  31
ATOM     31  C   UNL     1      -0.533   1.665   3.377  0.00  0.00    +0.144 C 
BRANCH  31  32
ATOM     32  C   UNL     1      -1.039   2.962   2.802  0.00  0.00    -0.012 A 
ATOM     33  C   UNL     1      -0.783   3.291   1.479  0.00  0.00    +0.008 A 
ATOM     34  C   UNL     1      -1.268   4.496   0.993  0.00  0.00    +0.020 A 
ATOM     35  C   UNL     1      -1.985   5.323   1.838  0.00  0.00    +0.111 A 
ATOM     36  N   UNL     1      -2.208   4.978   3.090  0.00  0.00    -0.263 NA
ATOM     37  C   UNL     1      -1.768   3.837   3.585  0.00  0.00    +0.115 A 
ENDBRANCH  31  32
ENDBRANCH   3  31
TORSDOF 8
