REMARK  Name = ZINC13432942
REMARK  14 active torsions:
REMARK  status: ('A' for Active; 'I' for Inactive)
REMARK    1  A    between atoms: C_1  and  C_2
REMARK    2  A    between atoms: C_4  and  O_31
REMARK    3  A    between atoms: C_5  and  C_11
REMARK    4  A    between atoms: C_6  and  O_10
REMARK    5  A    between atoms: C_7  and  C_8
REMARK    6  A    between atoms: C_11  and  C_12
REMARK    7  A    between atoms: C_13  and  C_14
REMARK    8  A    between atoms: C_13  and  C_15
REMARK    9  A    between atoms: C_15  and  C_17
REMARK   10  A    between atoms: C_15  and  O_30
REMARK   11  A    between atoms: C_17  and  C_18
REMARK   12  A    between atoms: C_18  and  C_29
REMARK   13  A    between atoms: C_19  and  C_28
REMARK   14  A    between atoms: C_25  and  C_27
REMARK                            x       y       z     vdW  Elec       q    Type
REMARK                         _______ _______ _______ _____ _____    ______ ____
ROOT
ATOM      1  C   UNL     1      -0.656   0.615   1.621  0.00  0.00    -0.021 C 
ATOM      2  C   UNL     1      -1.354  -0.485   1.764  0.00  0.00    -0.048 C 
ATOM      3  C   UNL     1      -1.355  -1.524   0.672  0.00  0.00    +0.041 C 
ENDROOT
BRANCH   1   4
ATOM      4  C   UNL     1       0.158   0.834   0.372  0.00  0.00    +0.069 C 
BRANCH   4   9
ATOM      5  C   UNL     1       5.662   1.938   1.820  0.00  0.00    +0.045 C 
ATOM      6  C   UNL     1       4.232   1.646   1.443  0.00  0.00    -0.033 A 
ATOM      7  C   UNL     1       3.337   2.668   1.320  0.00  0.00    +0.050 A 
ATOM      8  C   UNL     1       2.016   2.410   0.967  0.00  0.00    +0.124 A 
ATOM      9  C   UNL     1       1.591   1.107   0.747  0.00  0.00    +0.040 A 
ATOM     10  C   UNL     1       2.487   0.059   0.869  0.00  0.00    +0.134 A 
ATOM     11  C   UNL     1       3.823   0.324   1.220  0.00  0.00    +0.059 A 
BRANCH  11  12
ATOM     12  C   UNL     1       4.782  -0.776   1.352  0.00  0.00    +0.262 C 
ATOM     13  O   UNL     1       5.955  -0.537   1.553  0.00  0.00    -0.296 OA
ENDBRANCH  11  12
BRANCH  10  14
ATOM     14  O   UNL     1       2.079  -1.216   0.650  0.00  0.00    -0.506 OA
ATOM     15  H   UNL     1       2.170  -1.506  -0.269  0.00  0.00    +0.292 HD
ENDBRANCH  10  14
BRANCH   8  16
ATOM     16  O   UNL     1       1.137   3.436   0.842  0.00  0.00    -0.506 OA
ATOM     17  H   UNL     1       0.673   3.658   1.661  0.00  0.00    +0.292 HD
ENDBRANCH   8  16
ENDBRANCH   4   9
ENDBRANCH   1   4
BRANCH   2  18
ATOM     18  C   UNL     1      -2.155  -0.711   3.020  0.00  0.00    +0.141 C 
BRANCH  18  19
ATOM     19  O   UNL     1      -3.517  -0.972   2.675  0.00  0.00    -0.387 OA
ATOM     20  H   UNL     1      -3.639  -1.751   2.115  0.00  0.00    +0.210 HD
ENDBRANCH  18  19
BRANCH  18  21
ATOM     21  C   UNL     1      -1.583  -1.908   3.781  0.00  0.00    +0.043 C 
BRANCH  21  22
ATOM     22  C   UNL     1      -2.256  -2.010   5.151  0.00  0.00    -0.018 C 
ATOM     23  C   UNL     1      -2.143  -0.668   5.877  0.00  0.00    -0.007 C 
ATOM     24  C   UNL     1      -2.734  -0.787   7.282  0.00  0.00    +0.011 C 
ATOM     25  C   UNL     1      -4.231  -1.097   7.180  0.00  0.00    +0.075 C 
ATOM     26  C   UNL     1      -4.409  -2.331   6.323  0.00  0.00    +0.137 C 
ATOM     27  O   UNL     1      -5.072  -3.263   6.710  0.00  0.00    -0.297 OA
ATOM     28  C   UNL     1      -3.735  -2.367   4.969  0.00  0.00    +0.058 C 
ATOM     29  C   UNL     1      -3.856  -3.771   4.372  0.00  0.00    +0.016 C 
ATOM     30  C   UNL     1      -0.670  -0.267   5.977  0.00  0.00    +0.008 C 
ATOM     31  C   UNL     1      -1.567  -3.098   5.979  0.00  0.00    +0.012 C 
ENDBRANCH  21  22
ENDBRANCH  18  21
ENDBRANCH   2  18
TORSDOF 9
