REMARK  Name = ZINC63975159
REMARK  7 active torsions:
REMARK  status: ('A' for Active; 'I' for Inactive)
REMARK    1  A    between atoms: C_1  and  C_2
REMARK    2  A    between atoms: C_2  and  O_3
REMARK    3  A    between atoms: O_3  and  C_4
REMARK    4  A    between atoms: N_6  and  C_7
REMARK    5  A    between atoms: C_7  and  C_8
REMARK    6  A    between atoms: C_7  and  C_17
REMARK    7  A    between atoms: C_7  and  C_26
REMARK                            x       y       z     vdW  Elec       q    Type
REMARK                         _______ _______ _______ _____ _____    ______ ____
ROOT
ATOM      1  C   UNL     1       1.655  -3.758   2.583  0.00  0.00    +0.205 C 
ENDROOT
BRANCH   1   2
ATOM      2  C   UNL     1       0.393  -4.578   2.671  0.00  0.00    -0.003 C 
ATOM      3  C   UNL     1      -0.870  -4.154   2.438  0.00  0.00    +0.002 A 
ATOM      4  C   UNL     1      -1.426  -2.853   2.049  0.00  0.00    +0.010 A 
ATOM      5  C   UNL     1      -2.764  -2.733   1.887  0.00  0.00    +0.001 A 
ATOM      6  C   UNL     1      -3.630  -3.818   2.083  0.00  0.00    +0.002 A 
ATOM      7  C   UNL     1      -3.194  -5.044   2.441  0.00  0.00    +0.026 A 
ATOM      8  C   UNL     1      -1.806  -5.284   2.638  0.00  0.00    +0.043 A 
ATOM      9  N   UNL     1      -1.147  -6.364   2.981  0.00  0.00    -0.380 N 
ATOM     10  C   UNL     1       0.284  -6.043   3.032  0.00  0.00    +0.147 C 
ATOM     11  H   UNL     1      -1.539  -7.231   3.166  0.00  0.00    +0.160 HD
ENDBRANCH   1   2
BRANCH   1  12
ATOM     12  C   UNL     1       2.513  -4.026   3.792  0.00  0.00    +0.116 A 
ATOM     13  N   UNL     1       3.022  -5.161   4.173  0.00  0.00    -0.241 NA
ATOM     14  C   UNL     1       3.781  -5.272   5.283  0.00  0.00    +0.079 A 
ATOM     15  C   UNL     1       4.406  -6.406   5.842  0.00  0.00    +0.029 A 
ATOM     16  C   UNL     1       5.137  -6.300   6.986  0.00  0.00    +0.002 A 
ATOM     17  C   UNL     1       5.293  -5.085   7.639  0.00  0.00    +0.001 A 
ATOM     18  C   UNL     1       4.696  -3.951   7.121  0.00  0.00    +0.017 A 
ATOM     19  C   UNL     1       3.956  -4.048   5.967  0.00  0.00    +0.039 A 
ATOM     20  S   UNL     1       3.037  -2.923   4.950  0.00  0.00    -0.069 S 
ENDBRANCH   1  12
BRANCH   1  23
ATOM     21  C   UNL     1       0.671  -1.761   3.572  0.00  0.00    +0.401 C 
ATOM     22  O   UNL     1       0.301  -2.440   4.509  0.00  0.00    -0.226 OA
ATOM     23  N   UNL     1       1.310  -2.335   2.534  0.00  0.00    -0.258 N 
ATOM     24  H   UNL     1       1.542  -1.807   1.754  0.00  0.00    +0.154 HD
BRANCH  21  25
ATOM     25  O   UNL     1       0.443  -0.434   3.571  0.00  0.00    -0.451 OA
BRANCH  25  27
ATOM     26  C   UNL     1      -0.407   1.618   4.524  0.00  0.00    +0.048 C 
ATOM     27  C   UNL     1      -0.240   0.108   4.704  0.00  0.00    +0.230 C 
ENDBRANCH  25  27
ENDBRANCH  21  25
ENDBRANCH   1  23
BRANCH   1  28
ATOM     28  C   UNL     1       2.424  -4.141   1.316  0.00  0.00    +0.421 C 
ATOM     29  F   UNL     1       3.601  -3.388   1.240  0.00  0.00    -0.168 F 
ATOM     30  F   UNL     1       2.742  -5.502   1.357  0.00  0.00    -0.168 F 
ATOM     31  F   UNL     1       1.631  -3.881   0.193  0.00  0.00    -0.168 F 
ENDBRANCH   1  28
TORSDOF 6
