REMARK  Name = ZINC12201065
REMARK  7 active torsions:
REMARK  status: ('A' for Active; 'I' for Inactive)
REMARK    1  A    between atoms: C_1  and  C_2
REMARK    2  A    between atoms: C_2  and  C_4
REMARK    3  A    between atoms: C_7  and  C_10
REMARK    4  A    between atoms: C_15  and  C_18
REMARK    5  A    between atoms: C_18  and  C_25
REMARK    6  A    between atoms: C_25  and  C_26
REMARK    7  A    between atoms: C_26  and  C_27
REMARK                            x       y       z     vdW  Elec       q    Type
REMARK                         _______ _______ _______ _____ _____    ______ ____
ROOT
ATOM      1  C   UNL     1      -2.746   0.499  -2.146  0.00  0.00    +0.247 C 
ATOM      2  O   UNL     1      -3.927   0.781  -2.183  0.00  0.00    -0.270 OA
ATOM      3  N   UNL     1      -2.111   0.407  -0.961  0.00  0.00    -0.298 N 
ATOM      4  C   UNL     1      -0.719  -0.055  -0.890  0.00  0.00    +0.108 C 
ATOM      5  C   UNL     1      -0.634  -1.219   0.102  0.00  0.00    +0.025 C 
ATOM      6  C   UNL     1      -1.219  -0.782   1.447  0.00  0.00    +0.024 C 
ATOM      7  C   UNL     1      -2.693  -0.407   1.266  0.00  0.00    +0.025 C 
ATOM      8  C   UNL     1      -2.800   0.767   0.287  0.00  0.00    +0.108 C 
ENDROOT
BRANCH   6   9
ATOM      9  C   UNL     1      -1.105  -1.932   2.450  0.00  0.00    +0.115 C 
ATOM     10  C   UNL     1      -1.645  -3.216   1.853  0.00  0.00    +0.244 C 
ATOM     11  O   UNL     1      -2.777  -3.428   1.474  0.00  0.00    -0.273 OA
ATOM     12  N   UNL     1      -0.606  -4.074   1.832  0.00  0.00    -0.238 N 
ATOM     13  C   UNL     1       0.504  -3.516   2.327  0.00  0.00    +0.307 C 
ATOM     14  O   UNL     1       1.571  -4.093   2.412  0.00  0.00    -0.252 OA
ATOM     15  N   UNL     1       0.309  -2.244   2.721  0.00  0.00    -0.285 N 
ATOM     16  H   UNL     1      -0.657  -4.983   1.498  0.00  0.00    +0.159 HD
ATOM     17  H   UNL     1       0.970  -1.649   3.108  0.00  0.00    +0.151 HD
BRANCH   9  18
ATOM     18  C   UNL     1      -1.839  -1.587   3.747  0.00  0.00    +0.040 C 
BRANCH  18  19
ATOM     19  C   UNL     1      -1.605  -2.695   4.776  0.00  0.00    +0.038 C 
BRANCH  19  20
ATOM     20  C   UNL     1      -2.327  -2.356   6.054  0.00  0.00    -0.047 A 
ATOM     21  C   UNL     1      -1.684  -1.631   7.040  0.00  0.00    +0.003 A 
ATOM     22  C   UNL     1      -2.348  -1.315   8.210  0.00  0.00    +0.000 A 
ATOM     23  C   UNL     1      -3.653  -1.733   8.399  0.00  0.00    +0.000 A 
ATOM     24  C   UNL     1      -4.294  -2.462   7.415  0.00  0.00    +0.000 A 
ATOM     25  C   UNL     1      -3.631  -2.773   6.242  0.00  0.00    +0.003 A 
ENDBRANCH  19  20
ENDBRANCH  18  19
ENDBRANCH   9  18
ENDBRANCH   6   9
BRANCH   1  29
ATOM     26  C   UNL     1      -0.611  -0.198  -5.761  0.00  0.00    +0.017 A 
ATOM     27  C   UNL     1      -1.949  -0.589  -5.652  0.00  0.00    +0.012 A 
ATOM     28  C   UNL     1      -2.639  -0.362  -4.481  0.00  0.00    +0.014 A 
ATOM     29  C   UNL     1      -2.003   0.257  -3.404  0.00  0.00    +0.037 A 
ATOM     30  C   UNL     1      -0.669   0.652  -3.513  0.00  0.00    +0.014 A 
ATOM     31  C   UNL     1       0.025   0.422  -4.681  0.00  0.00    +0.012 A 
BRANCH  26  33
ATOM     32  C   UNL     1       1.602  -0.133  -7.088  0.00  0.00    +0.091 C 
ATOM     33  C   UNL     1       0.129  -0.440  -7.012  0.00  0.00    +0.160 C 
ATOM     34  O   UNL     1      -0.448  -0.886  -7.981  0.00  0.00    -0.292 OA
ENDBRANCH  26  33
ENDBRANCH   1  29
TORSDOF 6
