REMARK  Name = ZINC16022072
REMARK  7 active torsions:
REMARK  status: ('A' for Active; 'I' for Inactive)
REMARK    1  A    between atoms: C_1  and  C_2
REMARK    2  A    between atoms: C_2  and  C_3
REMARK    3  A    between atoms: C_2  and  C_4
REMARK    4  A    between atoms: C_4  and  C_5
REMARK    5  A    between atoms: N_13  and  C_16
REMARK    6  A    between atoms: C_16  and  C_17
REMARK    7  A    between atoms: C_17  and  C_18
REMARK                            x       y       z     vdW  Elec       q    Type
REMARK                         _______ _______ _______ _____ _____    ______ ____
ROOT
ATOM      1  C   UNL     1      -2.135  -0.131  -1.286  0.00  0.00    -0.057 C 
ATOM      2  C   UNL     1      -3.611  -0.580  -1.259  0.00  0.00    +0.073 C 
ATOM      3  C   UNL     1      -3.916  -1.037  -2.713  0.00  0.00    +0.088 C 
ATOM      4  C   UNL     1      -4.187  -2.517  -2.562  0.00  0.00    +0.225 C 
ATOM      5  O   UNL     1      -4.478  -3.272  -3.465  0.00  0.00    -0.275 OA
ATOM      6  N   UNL     1      -4.056  -2.865  -1.276  0.00  0.00    -0.241 N 
ATOM      7  C   UNL     1      -3.735  -1.847  -0.445  0.00  0.00    +0.224 C 
ATOM      8  O   UNL     1      -3.569  -1.929   0.753  0.00  0.00    -0.275 OA
ATOM      9  C   UNL     1      -2.602  -0.814  -3.471  0.00  0.00    +0.050 C 
ATOM     10  N   UNL     1      -1.536  -0.850  -2.442  0.00  0.00    +0.394 N 
ATOM     11  C   UNL     1      -2.378  -1.871  -4.514  0.00  0.00    -0.028 A 
ATOM     12  C   UNL     1      -2.266  -3.242  -4.467  0.00  0.00    +0.004 A 
ATOM     13  C   UNL     1      -2.055  -3.961  -5.630  0.00  0.00    +0.000 A 
ATOM     14  C   UNL     1      -1.958  -3.299  -6.840  0.00  0.00    +0.002 A 
ATOM     15  C   UNL     1      -2.070  -1.925  -6.893  0.00  0.00    +0.023 A 
ATOM     16  C   UNL     1      -2.282  -1.194  -5.727  0.00  0.00    +0.036 A 
ATOM     17  N   UNL     1      -2.428   0.180  -5.525  0.00  0.00    -0.286 N 
ATOM     18  C   UNL     1      -2.619   0.486  -4.228  0.00  0.00    +0.211 C 
ATOM     19  O   UNL     1      -2.774   1.595  -3.760  0.00  0.00    -0.277 OA
ATOM     20  H   UNL     1      -0.715  -0.365  -2.771  0.00  0.00    -0.083 HD
ATOM     21  H   UNL     1      -2.395   0.838  -6.237  0.00  0.00    +0.155 HD
ATOM     22  H   UNL     1      -1.309  -1.800  -2.188  0.00  0.00    -0.083 HD
ENDROOT
BRANCH   1  23
ATOM     23  C   UNL     1      -1.433  -0.534   0.013  0.00  0.00    -0.012 C 
BRANCH  23  25
ATOM     24  C   UNL     1      -0.019   1.526   0.010  0.00  0.00    +0.007 C 
ATOM     25  C   UNL     1       0.002  -0.004   0.002  0.00  0.00    -0.019 C 
ATOM     26  C   UNL     1       0.742  -0.511   1.242  0.00  0.00    +0.007 C 
ENDBRANCH  23  25
ENDBRANCH   1  23
BRANCH   6  27
ATOM     27  C   UNL     1      -4.252  -4.237  -0.803  0.00  0.00    +0.121 C 
BRANCH  27  28
ATOM     28  C   UNL     1      -2.920  -4.989  -0.855  0.00  0.00    +0.054 C 
BRANCH  28  29
ATOM     29  C   UNL     1      -3.121  -6.401  -0.367  0.00  0.00    -0.046 A 
ATOM     30  C   UNL     1      -2.977  -6.696   0.976  0.00  0.00    +0.004 A 
ATOM     31  C   UNL     1      -3.162  -7.991   1.423  0.00  0.00    +0.000 A 
ATOM     32  C   UNL     1      -3.491  -8.991   0.527  0.00  0.00    +0.000 A 
ATOM     33  C   UNL     1      -3.636  -8.696  -0.816  0.00  0.00    +0.000 A 
ATOM     34  C   UNL     1      -3.455  -7.400  -1.262  0.00  0.00    +0.004 A 
ENDBRANCH  28  29
ENDBRANCH  27  28
ENDBRANCH   6  27
TORSDOF 5
