REMARK  Name = ZINC58007528
REMARK  2 active torsions:
REMARK  status: ('A' for Active; 'I' for Inactive)
REMARK    1  A    between atoms: C_6  and  C_7
REMARK    2  A    between atoms: C_11  and  O_16
REMARK                            x       y       z     vdW  Elec       q    Type
REMARK                         _______ _______ _______ _____ _____    ______ ____
ROOT
ATOM      1  C   UNL     1      -1.266  -0.763   0.011  0.00  0.00    +0.228 A 
ATOM      2  N   UNL     1      -1.359  -2.068   0.010  0.00  0.00    -0.209 NA
ATOM      3  C   UNL     1      -2.673  -2.412   0.019  0.00  0.00    +0.113 A 
ATOM      4  C   UNL     1      -3.349  -3.635   0.023  0.00  0.00    +0.077 A 
ATOM      5  C   UNL     1      -4.730  -3.653   0.033  0.00  0.00    +0.119 A 
ATOM      6  C   UNL     1      -5.448  -2.461   0.040  0.00  0.00    +0.049 A 
ATOM      7  C   UNL     1      -4.790  -1.249   0.037  0.00  0.00    +0.052 A 
ATOM      8  C   UNL     1      -3.404  -1.213   0.027  0.00  0.00    +0.156 A 
ATOM      9  O   UNL     1      -2.494  -0.212   0.026  0.00  0.00    -0.435 OA
ENDROOT
BRANCH   1  15
ATOM     10  C   UNL     1      -0.017   1.392   0.010  0.00  0.00    +0.016 A 
ATOM     11  C   UNL     1       1.169   2.096   0.002  0.00  0.00    +0.042 A 
ATOM     12  C   UNL     1       2.379   1.421  -0.013  0.00  0.00    +0.158 A 
ATOM     13  C   UNL     1       2.405   0.033  -0.021  0.00  0.00    +0.159 A 
ATOM     14  C   UNL     1       1.223  -0.681  -0.013  0.00  0.00    +0.054 A 
ATOM     15  C   UNL     1       0.002  -0.004   0.002  0.00  0.00    +0.040 A 
ATOM     16  F   UNL     1       3.587  -0.620  -0.037  0.00  0.00    -0.202 F 
ATOM     17  F   UNL     1       3.537   2.116  -0.022  0.00  0.00    -0.202 F 
ENDBRANCH   1  15
BRANCH   5  18
ATOM     18  O   UNL     1      -5.391  -4.841   0.036  0.00  0.00    -0.507 OA
ATOM     19  H   UNL     1      -5.576  -5.186   0.920  0.00  0.00    +0.292 HD
ENDBRANCH   5  18
TORSDOF 2
