REMARK  Name = ZINC39711485
REMARK  11 active torsions:
REMARK  status: ('A' for Active; 'I' for Inactive)
REMARK    1  A    between atoms: C_1  and  C_2
REMARK    2  A    between atoms: C_2  and  O_3
REMARK    3  A    between atoms: O_3  and  C_4
REMARK    4  A    between atoms: C_11  and  C_16
REMARK    5  A    between atoms: C_16  and  C_18
REMARK    6  A    between atoms: C_16  and  N_28
REMARK    7  A    between atoms: N_23  and  C_24
REMARK    8  A    between atoms: C_24  and  C_25
REMARK    9  A    between atoms: C_24  and  C_26
REMARK   10  A    between atoms: C_24  and  C_27
REMARK   11  A    between atoms: N_31  and  C_34
REMARK                            x       y       z     vdW  Elec       q    Type
REMARK                         _______ _______ _______ _____ _____    ______ ____
ROOT
ATOM      1  C   UNL     1       3.734  -6.243   3.748  0.00  0.00    -0.009 C 
ENDROOT
BRANCH   1   9
ATOM      2  C   UNL     1      -0.481  -5.025   7.599  0.00  0.00    +0.121 A 
ATOM      3  C   UNL     1      -0.568  -3.701   7.155  0.00  0.00    +0.047 A 
ATOM      4  C   UNL     1       0.025  -3.272   6.011  0.00  0.00    +0.027 A 
ATOM      5  C   UNL     1       0.765  -4.163   5.211  0.00  0.00    +0.041 A 
ATOM      6  N   UNL     1       1.341  -3.729   4.091  0.00  0.00    -0.285 N 
ATOM      7  C   UNL     1       2.050  -4.510   3.293  0.00  0.00    +0.223 C 
ATOM      8  O   UNL     1       2.553  -4.056   2.283  0.00  0.00    -0.275 OA
ATOM      9  C   UNL     1       2.232  -5.970   3.642  0.00  0.00    +0.088 C 
ATOM     10  C   UNL     1       1.579  -6.469   4.915  0.00  0.00    -0.006 C 
ATOM     11  C   UNL     1       0.874  -5.564   5.653  0.00  0.00    -0.004 A 
ATOM     12  C   UNL     1       0.217  -5.962   6.898  0.00  0.00    +0.055 A 
ATOM     13  H   UNL     1       1.236  -2.795   3.849  0.00  0.00    +0.155 HD
BRANCH   2  14
ATOM     14  O   UNL     1      -1.100  -5.383   8.755  0.00  0.00    -0.492 OA
BRANCH  14  16
ATOM     15  C   UNL     1      -2.443  -4.948  10.717  0.00  0.00    +0.048 C 
ATOM     16  C   UNL     1      -1.818  -4.361   9.450  0.00  0.00    +0.225 C 
ENDBRANCH  14  16
ENDBRANCH   2  14
ENDBRANCH   1   9
BRANCH   1  17
ATOM     17  N   UNL     1       3.954  -7.667   4.034  0.00  0.00    +0.387 N 
ATOM     18  C   UNL     1       3.354  -8.477   2.967  0.00  0.00    -0.059 C 
ATOM     19  C   UNL     1       3.482  -9.963   3.321  0.00  0.00    +0.086 C 
ATOM     20  N   UNL     1       4.898 -10.259   3.585  0.00  0.00    -0.331 N 
ATOM     21  C   UNL     1       5.625  -9.390   4.524  0.00  0.00    +0.086 C 
ATOM     22  C   UNL     1       5.396  -7.932   4.113  0.00  0.00    -0.059 C 
ATOM     23  H   UNL     1       3.521  -7.902   4.915  0.00  0.00    -0.081 HD
BRANCH  20  24
ATOM     24  C   UNL     1       5.536 -11.335   2.961  0.00  0.00    +0.065 A 
ATOM     25  C   UNL     1       6.178 -11.153   1.744  0.00  0.00    +0.026 A 
ATOM     26  C   UNL     1       6.808 -12.219   1.130  0.00  0.00    +0.002 A 
ATOM     27  C   UNL     1       6.800 -13.466   1.726  0.00  0.00    +0.003 A 
ATOM     28  C   UNL     1       6.162 -13.653   2.938  0.00  0.00    +0.040 A 
ATOM     29  C   UNL     1       5.534 -12.590   3.561  0.00  0.00    +0.144 A 
ATOM     30  F   UNL     1       4.916 -12.771   4.749  0.00  0.00    -0.204 F 
ENDBRANCH  20  24
ENDBRANCH   1  17
BRANCH   1  31
ATOM     31  C   UNL     1       4.328  -5.398   4.877  0.00  0.00    +0.205 C 
ATOM     32  N   UNL     1       3.625  -5.664   6.140  0.00  0.00    -0.152 NA
ATOM     33  N   UNL     1       3.103  -4.619   6.533  0.00  0.00    -0.070 NA
ATOM     34  N   UNL     1       3.337  -3.541   5.680  0.00  0.00    -0.179 N 
ATOM     35  N   UNL     1       4.101  -3.961   4.619  0.00  0.00    -0.183 NA
ATOM     36  H   UNL     1       3.011  -2.637   5.814  0.00  0.00    +0.191 HD
BRANCH  35  37
ATOM     37  C   UNL     1       5.374  -3.229   4.562  0.00  0.00    +0.035 C 
ATOM     38  C   UNL     1       6.240  -3.799   3.437  0.00  0.00    +0.029 C 
ATOM     39  C   UNL     1       5.099  -1.748   4.295  0.00  0.00    +0.029 C 
ATOM     40  C   UNL     1       6.108  -3.379   5.896  0.00  0.00    +0.029 C 
ENDBRANCH  35  37
ENDBRANCH   1  31
TORSDOF 7
