REMARK  Name = ZINC40779401
REMARK  5 active torsions:
REMARK  status: ('A' for Active; 'I' for Inactive)
REMARK    1  A    between atoms: C_1  and  C_2
REMARK    2  A    between atoms: C_5  and  C_8
REMARK    3  A    between atoms: C_8  and  N_9
REMARK    4  A    between atoms: C_11  and  N_24
REMARK    5  A    between atoms: C_12  and  N_16
REMARK                            x       y       z     vdW  Elec       q    Type
REMARK                         _______ _______ _______ _____ _____    ______ ____
ROOT
ATOM      1  N   UNL     1       1.448  -4.745  -0.014  0.00  0.00    -0.323 N 
ATOM      2  C   UNL     1       1.719  -6.108  -0.028  0.00  0.00    +0.145 A 
ATOM      3  C   UNL     1       3.037  -6.569  -0.036  0.00  0.00    +0.105 A 
ATOM      4  C   UNL     1       3.253  -7.947  -0.049  0.00  0.00    +0.150 A 
ATOM      5  N   UNL     1       2.203  -8.765  -0.055  0.00  0.00    -0.219 NA
ATOM      6  C   UNL     1       0.975  -8.289  -0.047  0.00  0.00    +0.225 A 
ATOM      7  N   UNL     1       0.727  -6.994  -0.029  0.00  0.00    -0.219 NA
ATOM      8  H   UNL     1       2.177  -4.106  -0.013  0.00  0.00    +0.148 HD
ENDROOT
BRANCH   4   9
ATOM      9  N   UNL     1       4.547  -8.459  -0.058  0.00  0.00    -0.283 N 
ATOM     10  C   UNL     1       4.752  -9.833   0.039  0.00  0.00    +0.124 A 
ATOM     11  C   UNL     1       6.048 -10.330   0.139  0.00  0.00    +0.045 A 
ATOM     12  C   UNL     1       6.238 -11.697   0.235  0.00  0.00    +0.025 A 
ATOM     13  C   UNL     1       5.121 -12.524   0.227  0.00  0.00    +0.059 A 
ATOM     14  C   UNL     1       3.864 -11.961   0.125  0.00  0.00    +0.132 A 
ATOM     15  N   UNL     1       3.713 -10.653   0.040  0.00  0.00    -0.239 NA
ATOM     16 CL   UNL     1       5.304 -14.246   0.345  0.00  0.00    -0.082 Cl
ATOM     17  H   UNL     1       5.306  -7.859  -0.131  0.00  0.00    +0.155 HD
ENDBRANCH   4   9
BRANCH   3  18
ATOM     18  N   UNL     1       4.116  -5.670  -0.030  0.00  0.00    -0.353 N 
ATOM     19  H   UNL     1       3.950  -4.714  -0.021  0.00  0.00    +0.143 HD
ATOM     20  H   UNL     1       5.026  -6.004  -0.035  0.00  0.00    +0.143 HD
ENDBRANCH   3  18
BRANCH   1  21
ATOM     21  C   UNL     1       0.060  -4.274   0.000  0.00  0.00    +0.138 C 
BRANCH  21  26
ATOM     22  C   UNL     1      -0.016   1.504   0.053  0.00  0.00    +0.044 C 
ATOM     23  C   UNL     1       0.004  -0.003   0.039  0.00  0.00    -0.050 A 
ATOM     24  C   UNL     1       0.006  -0.684  -1.165  0.00  0.00    +0.003 A 
ATOM     25  C   UNL     1       0.024  -2.066  -1.177  0.00  0.00    +0.005 A 
ATOM     26  C   UNL     1       0.042  -2.768   0.014  0.00  0.00    -0.030 A 
ATOM     27  C   UNL     1       0.041  -2.087   1.217  0.00  0.00    +0.005 A 
ATOM     28  C   UNL     1       0.027  -0.705   1.230  0.00  0.00    +0.003 A 
ENDBRANCH  21  26
ENDBRANCH   1  21
TORSDOF 4
