REMARK  Name = ZINC67290832
REMARK  7 active torsions:
REMARK  status: ('A' for Active; 'I' for Inactive)
REMARK    1  A    between atoms: C_1  and  C_2
REMARK    2  A    between atoms: C_3  and  S_22
REMARK    3  A    between atoms: C_8  and  C_10
REMARK    4  A    between atoms: C_13  and  N_17
REMARK    5  A    between atoms: C_15  and  O_16
REMARK    6  A    between atoms: S_22  and  C_23
REMARK    7  A    between atoms: C_23  and  C_24
REMARK                            x       y       z     vdW  Elec       q    Type
REMARK                         _______ _______ _______ _____ _____    ______ ____
ROOT
ATOM      1  C   UNL     1      -0.018   1.503   0.010  0.00  0.00    +0.067 C 
ATOM      2  C   UNL     1       0.002  -0.004   0.002  0.00  0.00    +0.061 A 
ATOM      3  C   UNL     1       0.005  -0.683  -1.179  0.00  0.00    +0.070 A 
ATOM      4  S   UNL     1       0.031  -2.371  -0.590  0.00  0.00    -0.045 S 
ATOM      5  C   UNL     1       0.035  -1.994   1.158  0.00  0.00    +0.166 A 
ATOM      6  N   UNL     1       0.022  -0.674   1.139  0.00  0.00    -0.229 NA
ATOM      7  N   UNL     1       0.052  -2.860   2.246  0.00  0.00    -0.261 N 
ATOM      8  C   UNL     1       0.069  -4.193   2.047  0.00  0.00    +0.253 C 
ATOM      9  O   UNL     1       0.070  -4.639   0.915  0.00  0.00    -0.270 OA
ATOM     10  H   UNL     1       0.051  -2.505   3.149  0.00  0.00    +0.157 HD
ENDROOT
BRANCH   8  11
ATOM     11  C   UNL     1       0.087  -5.110   3.199  0.00  0.00    +0.079 A 
ATOM     12  C   UNL     1       0.081  -4.601   4.502  0.00  0.00    +0.019 A 
ATOM     13  C   UNL     1       0.097  -5.460   5.576  0.00  0.00    +0.027 A 
ATOM     14  C   UNL     1       0.121  -6.838   5.371  0.00  0.00    +0.049 A 
ATOM     15  C   UNL     1       0.128  -7.353   4.083  0.00  0.00    +0.072 A 
ATOM     16  C   UNL     1       0.105  -6.498   2.994  0.00  0.00    +0.131 A 
BRANCH  14  17
ATOM     17  N   UNL     1       0.139  -7.704   6.468  0.00  0.00    -0.323 N 
ATOM     18  C   UNL     1       0.169  -9.069   6.406  0.00  0.00    +0.091 A 
ATOM     19  C   UNL     1       0.179  -9.548   7.666  0.00  0.00    +0.019 A 
ATOM     20  C   UNL     1       0.154  -8.442   8.540  0.00  0.00    +0.019 A 
ATOM     21  C   UNL     1       0.136  -7.327   7.782  0.00  0.00    +0.091 A 
ENDBRANCH  14  17
BRANCH  16  22
ATOM     22  O   UNL     1       0.105  -7.000   1.734  0.00  0.00    -0.506 OA
ATOM     23  H   UNL     1       0.989  -7.134   1.364  0.00  0.00    +0.292 HD
ENDBRANCH  16  22
ENDBRANCH   8  11
BRANCH   3  24
ATOM     24  S   UNL     1      -0.011  -0.068  -2.830  0.00  0.00    -0.107 S 
BRANCH  24  25
ATOM     25  C   UNL     1       0.004  -1.564  -3.856  0.00  0.00    +0.170 C 
BRANCH  25  26
ATOM     26  C   UNL     1      -0.009  -1.175  -5.312  0.00  0.00    +0.221 C 
ATOM     27  O   UNL     1      -0.027  -0.004  -5.627  0.00  0.00    -0.275 OA
ATOM     28  N   UNL     1      -0.001  -2.129  -6.264  0.00  0.00    -0.329 N 
ATOM     29  H   UNL     1       0.013  -3.065  -6.013  0.00  0.00    +0.145 HD
ATOM     30  H   UNL     1      -0.009  -1.878  -7.201  0.00  0.00    +0.145 HD
ENDBRANCH  25  26
ENDBRANCH  24  25
ENDBRANCH   3  24
TORSDOF 6
