REMARK  Name = ZINC03079091
REMARK  6 active torsions:
REMARK  status: ('A' for Active; 'I' for Inactive)
REMARK    1  A    between atoms: C_4  and  C_7
REMARK    2  A    between atoms: C_8  and  C_9
REMARK    3  A    between atoms: N_11  and  C_12
REMARK    4  A    between atoms: C_12  and  N_14
REMARK    5  A    between atoms: N_14  and  C_15
REMARK    6  A    between atoms: C_16  and  C_24
REMARK                            x       y       z     vdW  Elec       q    Type
REMARK                         _______ _______ _______ _____ _____    ______ ____
ROOT
ATOM      1  N   UNL     1      -1.288   1.179   4.957  0.00  0.00    -0.291 N 
ATOM      2  H   UNL     1      -0.734   0.443   5.257  0.00  0.00    +0.154 HD
ENDROOT
BRANCH   1   3
ATOM      3  C   UNL     1      -1.283   1.552   3.622  0.00  0.00    +0.084 A 
ATOM      4  C   UNL     1      -0.558   0.998   2.575  0.00  0.00    +0.068 A 
ATOM      5  C   UNL     1      -0.732   1.580   1.257  0.00  0.00    -0.023 A 
ATOM      6  C   UNL     1      -1.601   2.615   1.194  0.00  0.00    -0.004 A 
ATOM      7  S   UNL     1      -2.178   2.821   2.855  0.00  0.00    -0.077 S 
ATOM      8  C   UNL     1      -1.979   3.405  -0.021  0.00  0.00    +0.043 C 
ATOM      9  C   UNL     1      -0.956   3.111  -1.127  0.00  0.00    +0.005 C 
ATOM     10  C   UNL     1      -0.758   1.595  -1.227  0.00  0.00    +0.005 C 
ATOM     11  C   UNL     1      -0.013   1.086   0.008  0.00  0.00    +0.037 C 
BRANCH   4  12
ATOM     12  C   UNL     1       0.351  -0.130   2.793  0.00  0.00    +0.244 C 
ATOM     13  O   UNL     1      -0.061  -1.272   2.694  0.00  0.00    -0.270 OA
ATOM     14  N   UNL     1       1.643   0.095   3.104  0.00  0.00    -0.325 N 
ATOM     15  H   UNL     1       1.971   1.004   3.184  0.00  0.00    +0.145 HD
ATOM     16  H   UNL     1       2.245  -0.652   3.248  0.00  0.00    +0.145 HD
ENDBRANCH   4  12
ENDBRANCH   1   3
BRANCH   1  17
ATOM     17  C   UNL     1      -2.065   1.841   5.838  0.00  0.00    +0.141 C 
ATOM     18  S   UNL     1      -3.044   3.141   5.308  0.00  0.00    -0.018 S 
BRANCH  17  21
ATOM     19  C   UNL     1      -2.847   2.140   8.017  0.00  0.00    +0.242 C 
ATOM     20  O   UNL     1      -3.543   3.064   7.640  0.00  0.00    -0.270 OA
ATOM     21  N   UNL     1      -2.071   1.479   7.136  0.00  0.00    -0.264 N 
ATOM     22  H   UNL     1      -1.516   0.742   7.436  0.00  0.00    +0.157 HD
BRANCH  19  24
ATOM     23  C   UNL     1      -3.630   2.409  10.307  0.00  0.00    +0.013 C 
ATOM     24  C   UNL     1      -2.853   1.747   9.426  0.00  0.00    +0.068 C 
BRANCH  23  28
ATOM     25  C   UNL     1      -3.649   1.268  14.393  0.00  0.00    +0.000 A 
ATOM     26  C   UNL     1      -4.441   2.320  13.969  0.00  0.00    +0.001 A 
ATOM     27  C   UNL     1      -4.441   2.697  12.642  0.00  0.00    +0.008 A 
ATOM     28  C   UNL     1      -3.636   2.013  11.725  0.00  0.00    -0.025 A 
ATOM     29  C   UNL     1      -2.842   0.948  12.161  0.00  0.00    +0.008 A 
ATOM     30  C   UNL     1      -2.850   0.586  13.492  0.00  0.00    +0.001 A 
ENDBRANCH  23  28
ENDBRANCH  19  24
ENDBRANCH  17  21
ENDBRANCH   1  17
TORSDOF 6
