REMARK  Name = ZINC06763689
REMARK  8 active torsions:
REMARK  status: ('A' for Active; 'I' for Inactive)
REMARK    1  A    between atoms: C_1  and  C_2
REMARK    2  A    between atoms: C_4  and  C_13
REMARK    3  A    between atoms: C_14  and  C_15
REMARK    4  A    between atoms: C_14  and  N_21
REMARK    5  A    between atoms: N_17  and  C_18
REMARK    6  A    between atoms: C_18  and  C_19
REMARK    7  A    between atoms: C_18  and  C_20
REMARK    8  A    between atoms: C_22  and  C_24
REMARK                            x       y       z     vdW  Elec       q    Type
REMARK                         _______ _______ _______ _____ _____    ______ ____
ROOT
ATOM      1  C   UNL     1      -2.252   0.324  -0.671  0.00  0.00    +0.035 C 
ATOM      2  C   UNL     1      -1.869   1.456  -1.324  0.00  0.00    +0.097 C 
ENDROOT
BRANCH   1   5
ATOM      3  C   UNL     1      -1.746  -2.157  -1.877  0.00  0.00    +0.057 C 
ATOM      4  C   UNL     1      -1.218  -1.973  -0.453  0.00  0.00    +0.201 C 
ATOM      5  C   UNL     1      -1.282  -0.514  -0.084  0.00  0.00    -0.005 C 
ATOM      6  C   UNL     1      -0.398  -0.009   0.819  0.00  0.00    +0.018 C 
ATOM      7  C   UNL     1       0.605  -0.924   1.383  0.00  0.00    +0.017 A 
ATOM      8  C   UNL     1       1.323  -0.598   2.534  0.00  0.00    +0.011 A 
ATOM      9  C   UNL     1       2.255  -1.486   3.028  0.00  0.00    +0.001 A 
ATOM     10  C   UNL     1       2.478  -2.695   2.388  0.00  0.00    +0.004 A 
ATOM     11  C   UNL     1       1.772  -3.029   1.246  0.00  0.00    +0.046 A 
ATOM     12  C   UNL     1       0.834  -2.151   0.736  0.00  0.00    +0.128 A 
ATOM     13  O   UNL     1       0.128  -2.444  -0.384  0.00  0.00    -0.484 OA
ENDBRANCH   1   5
BRANCH   2  14
ATOM     14  C   UNL     1      -2.881   2.386  -1.834  0.00  0.00    +0.258 C 
ATOM     15  O   UNL     1      -2.539   3.440  -2.339  0.00  0.00    -0.269 OA
ATOM     16  N   UNL     1      -4.189   2.075  -1.744  0.00  0.00    -0.308 N 
ATOM     17  H   UNL     1      -4.461   1.235  -1.341  0.00  0.00    +0.149 HD
BRANCH  16  18
ATOM     18  C   UNL     1      -5.200   3.004  -2.253  0.00  0.00    +0.067 C 
ATOM     19  C   UNL     1      -6.469   2.230  -2.613  0.00  0.00    +0.027 C 
ATOM     20  C   UNL     1      -5.524   4.045  -1.179  0.00  0.00    +0.027 C 
ENDBRANCH  16  18
ENDBRANCH   2  14
BRANCH   2  21
ATOM     21  N   UNL     1      -0.510   1.731  -1.508  0.00  0.00    -0.277 N 
ATOM     22  C   UNL     1       0.020   2.867  -1.013  0.00  0.00    +0.248 C 
ATOM     23  O   UNL     1      -0.657   3.605  -0.324  0.00  0.00    -0.270 OA
ATOM     24  H   UNL     1       0.050   1.104  -1.991  0.00  0.00    +0.155 HD
BRANCH  22  25
ATOM     25  C   UNL     1       1.425   3.216  -1.309  0.00  0.00    +0.037 A 
ATOM     26  C   UNL     1       2.171   2.432  -2.191  0.00  0.00    +0.014 A 
ATOM     27  C   UNL     1       3.482   2.763  -2.463  0.00  0.00    +0.021 A 
ATOM     28  C   UNL     1       4.058   3.870  -1.863  0.00  0.00    +0.041 A 
ATOM     29  C   UNL     1       3.324   4.652  -0.987  0.00  0.00    +0.021 A 
ATOM     30  C   UNL     1       2.010   4.335  -0.712  0.00  0.00    +0.014 A 
ATOM     31 CL   UNL     1       5.709   4.280  -2.211  0.00  0.00    -0.084 Cl
ENDBRANCH  22  25
ENDBRANCH   2  21
TORSDOF 5
