REMARK  Name = ZINC39464281
REMARK  6 active torsions:
REMARK  status: ('A' for Active; 'I' for Inactive)
REMARK    1  A    between atoms: C_1  and  O_2
REMARK    2  A    between atoms: O_2  and  C_3
REMARK    3  A    between atoms: C_8  and  C_9
REMARK    4  A    between atoms: C_14  and  O_15
REMARK    5  A    between atoms: P_23  and  C_26
REMARK    6  A    between atoms: C_31  and  O_32
REMARK                            x       y       z     vdW  Elec       q    Type
REMARK                         _______ _______ _______ _____ _____    ______ ____
ROOT
ATOM      1  C   UNL     1      -1.200  -0.637   0.010  0.00  0.00    +0.128 A 
ATOM      2  C   UNL     1      -2.372   0.097   0.019  0.00  0.00    +0.051 A 
ATOM      3  C   UNL     1      -3.604  -0.542   0.029  0.00  0.00    -0.020 A 
ATOM      4  C   UNL     1      -3.663  -1.921   0.028  0.00  0.00    -0.041 A 
ATOM      5  C   UNL     1      -2.497  -2.667   0.018  0.00  0.00    +0.016 A 
ATOM      6  C   UNL     1      -1.258  -2.034   0.003  0.00  0.00    +0.028 A 
ATOM      7  C   UNL     1      -4.982  -2.652   0.034  0.00  0.00    +0.052 C 
ATOM      8  C   UNL     1      -6.090  -1.709   0.505  0.00  0.00    +0.108 C 
ATOM      9  N   UNL     1      -6.032  -0.476  -0.295  0.00  0.00    -0.225 NA
ATOM     10  C   UNL     1      -4.846   0.311   0.042  0.00  0.00    +0.130 C 
ATOM     11  C   UNL     1      -4.662   1.474  -0.937  0.00  0.00    +0.194 C 
ATOM     12  O   UNL     1      -5.802   2.350  -0.832  0.00  0.00    -0.311 OA
ATOM     13  P   UNL     1      -7.288   1.694  -0.915  0.00  0.00    +0.318 P 
ATOM     14  O   UNL     1      -7.667   1.461  -2.326  0.00  0.00    -0.266 OA
ATOM     15  N   UNL     1      -7.185   0.255  -0.106  0.00  0.00    -0.175 NA
ATOM     16  H   UNL     1      -7.899  -0.058   0.471  0.00  0.00    +0.151 HD
ENDROOT
BRANCH   6  17
ATOM     17  C   UNL     1      -0.010  -2.834  -0.014  0.00  0.00    +0.027 A 
ATOM     18  C   UNL     1       0.296  -3.630  -1.116  0.00  0.00    +0.012 A 
ATOM     19  C   UNL     1       1.459  -4.373  -1.127  0.00  0.00    +0.001 A 
ATOM     20  C   UNL     1       2.324  -4.330  -0.048  0.00  0.00    +0.004 A 
ATOM     21  C   UNL     1       2.030  -3.544   1.050  0.00  0.00    +0.046 A 
ATOM     22  C   UNL     1       0.868  -2.789   1.073  0.00  0.00    +0.125 A 
BRANCH  22  23
ATOM     23  O   UNL     1       0.581  -2.012   2.150  0.00  0.00    -0.506 OA
ATOM     24  H   UNL     1       0.070  -2.463   2.835  0.00  0.00    +0.292 HD
ENDBRANCH  22  23
ENDBRANCH   6  17
BRANCH  13  25
ATOM     25  C   UNL     1      -8.499   2.781  -0.113  0.00  0.00    +0.094 A 
ATOM     26  C   UNL     1      -8.768   2.642   1.235  0.00  0.00    +0.018 A 
ATOM     27  C   UNL     1      -9.691   3.470   1.846  0.00  0.00    +0.001 A 
ATOM     28  C   UNL     1     -10.347   4.439   1.110  0.00  0.00    +0.004 A 
ATOM     29  C   UNL     1     -10.082   4.583  -0.237  0.00  0.00    +0.046 A 
ATOM     30  C   UNL     1      -9.152   3.756  -0.852  0.00  0.00    +0.131 A 
BRANCH  30  31
ATOM     31  O   UNL     1      -8.885   3.900  -2.177  0.00  0.00    -0.506 OA
ATOM     32  H   UNL     1      -9.450   3.366  -2.752  0.00  0.00    +0.292 HD
ENDBRANCH  30  31
ENDBRANCH  13  25
BRANCH   1  34
ATOM     33  C   UNL     1      -0.017   1.425   0.010  0.00  0.00    +0.277 C 
ATOM     34  O   UNL     1       0.002  -0.004   0.002  0.00  0.00    -0.494 OA
ENDBRANCH   1  34
TORSDOF 5
