REMARK  Name = ZINC01425729
REMARK  11 active torsions:
REMARK  status: ('A' for Active; 'I' for Inactive)
REMARK    1  A    between atoms: C_1  and  C_2
REMARK    2  A    between atoms: C_2  and  O_3
REMARK    3  A    between atoms: O_3  and  C_4
REMARK    4  A    between atoms: C_4  and  C_6
REMARK    5  A    between atoms: C_7  and  C_23
REMARK    6  A    between atoms: C_12  and  C_14
REMARK    7  A    between atoms: C_23  and  S_24
REMARK    8  A    between atoms: S_24  and  C_25
REMARK    9  A    between atoms: C_26  and  C_33
REMARK   10  A    between atoms: C_27  and  C_32
REMARK   11  A    between atoms: C_29  and  C_31
REMARK                            x       y       z     vdW  Elec       q    Type
REMARK                         _______ _______ _______ _____ _____    ______ ____
ROOT
ATOM      1  C   UNL     1       1.350   4.011  -1.451  0.00  0.00    +0.079 C 
ATOM      2  C   UNL     1       2.409   4.801  -1.729  0.00  0.00    +0.034 C 
ATOM      3  N   UNL     1       3.239   5.241  -0.738  0.00  0.00    -0.272 N 
ATOM      4  C   UNL     1       3.077   4.936   0.556  0.00  0.00    +0.304 C 
ATOM      5  O   UNL     1       3.868   5.376   1.367  0.00  0.00    -0.252 OA
ATOM      6  N   UNL     1       2.066   4.157   0.988  0.00  0.00    -0.288 N 
ATOM      7  C   UNL     1       1.114   3.630  -0.004  0.00  0.00    +0.144 C 
ATOM      8  H   UNL     1       3.987   5.807  -0.985  0.00  0.00    +0.156 HD
ATOM      9  H   UNL     1       1.968   3.949   1.930  0.00  0.00    +0.151 HD
ENDROOT
BRANCH   7  10
ATOM     10  C   UNL     1       1.130   2.126   0.090  0.00  0.00    -0.019 A 
ATOM     11  C   UNL     1       2.334   1.455   0.201  0.00  0.00    +0.009 A 
ATOM     12  C   UNL     1       2.355   0.076   0.286  0.00  0.00    +0.050 A 
ATOM     13  C   UNL     1       1.167  -0.638   0.261  0.00  0.00    +0.166 A 
ATOM     14  C   UNL     1      -0.045   0.038   0.150  0.00  0.00    +0.167 A 
ATOM     15  C   UNL     1      -0.058   1.420   0.065  0.00  0.00    +0.055 A 
ATOM     16  O   UNL     1      -1.057  -0.879   0.148  0.00  0.00    -0.453 OA
ATOM     17  C   UNL     1      -0.432  -2.141  -0.153  0.00  0.00    +0.466 C 
ATOM     18  O   UNL     1       0.916  -1.978   0.328  0.00  0.00    -0.453 OA
ENDBRANCH   7  10
BRANCH   1  19
ATOM     19  C   UNL     1       0.491   3.553  -2.478  0.00  0.00    +0.339 C 
ATOM     20  O   UNL     1      -0.583   4.096  -2.659  0.00  0.00    -0.245 OA
BRANCH  19  21
ATOM     21  O   UNL     1       0.863   2.515  -3.256  0.00  0.00    -0.462 OA
BRANCH  21  23
ATOM     22  C   UNL     1       0.536   0.925  -5.046  0.00  0.00    +0.048 C 
ATOM     23  C   UNL     1      -0.054   2.106  -4.273  0.00  0.00    +0.229 C 
ENDBRANCH  21  23
ENDBRANCH  19  21
ENDBRANCH   1  19
BRANCH   2  24
ATOM     24  C   UNL     1       2.679   5.204  -3.156  0.00  0.00    +0.127 C 
BRANCH  24  25
ATOM     25  S   UNL     1       2.185   6.928  -3.401  0.00  0.00    -0.099 S 
BRANCH  25  26
ATOM     26  C   UNL     1       2.600   7.126  -5.102  0.00  0.00    +0.115 A 
ATOM     27  C   UNL     1       2.375   8.361  -5.737  0.00  0.00    +0.086 A 
ATOM     28  C   UNL     1       2.713   8.494  -7.088  0.00  0.00    -0.029 A 
ATOM     29  C   UNL     1       3.255   7.401  -7.742  0.00  0.00    +0.027 A 
ATOM     30  C   UNL     1       3.446   6.219  -7.049  0.00  0.00    +0.040 A 
ATOM     31  N   UNL     1       3.126   6.114  -5.774  0.00  0.00    -0.244 NA
ATOM     32  C   UNL     1       4.035   5.030  -7.764  0.00  0.00    +0.065 C 
ATOM     33  C   UNL     1       2.493   9.796  -7.814  0.00  0.00    +0.045 C 
BRANCH  27  34
ATOM     34  C   UNL     1       1.812   9.461  -5.014  0.00  0.00    +0.102 C 
ATOM     35  N   UNL     1       1.365  10.334  -4.441  0.00  0.00    -0.191 NA
ENDBRANCH  27  34
ENDBRANCH  25  26
ENDBRANCH  24  25
ENDBRANCH   2  24
TORSDOF 8
