REMARK  Name = ZINC33494959
REMARK  9 active torsions:
REMARK  status: ('A' for Active; 'I' for Inactive)
REMARK    1  A    between atoms: C_1  and  C_2
REMARK    2  A    between atoms: C_4  and  C_15
REMARK    3  A    between atoms: C_5  and  N_9
REMARK    4  A    between atoms: N_9  and  C_10
REMARK    5  A    between atoms: C_10  and  C_11
REMARK    6  A    between atoms: C_11  and  C_12
REMARK    7  A    between atoms: C_12  and  C_13
REMARK    8  A    between atoms: C_12  and  C_14
REMARK    9  A    between atoms: N_17  and  N_18
REMARK                            x       y       z     vdW  Elec       q    Type
REMARK                         _______ _______ _______ _____ _____    ______ ____
ROOT
ATOM      1  C   UNL     1       0.365  -6.141  -1.346  0.00  0.00    +0.044 C 
ATOM      2  C   UNL     1       0.460  -4.637  -1.312  0.00  0.00    -0.049 A 
ATOM      3  C   UNL     1       1.694  -4.030  -1.241  0.00  0.00    +0.018 A 
ATOM      4  C   UNL     1       1.785  -2.636  -1.214  0.00  0.00    +0.060 A 
ATOM      5  C   UNL     1       0.614  -1.864  -1.249  0.00  0.00    +0.054 A 
ATOM      6  C   UNL     1      -0.623  -2.495  -1.321  0.00  0.00    +0.040 A 
ATOM      7  C   UNL     1      -0.696  -3.873  -1.352  0.00  0.00    +0.020 A 
ATOM      8 BR   UNL     1      -2.207  -1.464  -1.376  0.00  0.00    -0.048 Br
ENDROOT
BRANCH   4   9
ATOM      9  C   UNL     1       3.104  -1.980  -1.144  0.00  0.00    +0.259 C 
ATOM     10  O   UNL     1       3.177  -0.773  -1.020  0.00  0.00    -0.269 OA
ATOM     11  N   UNL     1       4.229  -2.719  -1.218  0.00  0.00    -0.250 N 
ATOM     12  H   UNL     1       4.163  -3.811  -1.330  0.00  0.00    +0.169 HD
BRANCH  11  13
ATOM     13  N   UNL     1       5.451  -2.112  -1.153  0.00  0.00    -0.254 NA
ATOM     14  H   UNL     1       6.242  -2.871  -1.229  0.00  0.00    +0.140 HD
ATOM     15  H   UNL     1       5.548  -1.395  -1.982  0.00  0.00    +0.140 HD
ENDBRANCH  11  13
ENDBRANCH   4   9
BRANCH   5  16
ATOM     16  N   UNL     1       0.690  -0.478  -1.218  0.00  0.00    -0.342 N 
ATOM     17  H   UNL     1       0.764   0.192  -0.348  0.00  0.00    +0.146 HD
BRANCH  16  18
ATOM     18  C   UNL     1       0.661   0.082  -2.576  0.00  0.00    +0.102 C 
BRANCH  18  19
ATOM     19  C   UNL     1       0.623   1.610  -2.497  0.00  0.00    +0.021 C 
BRANCH  19  20
ATOM     20  C   UNL     1       0.593   2.193  -3.911  0.00  0.00    -0.016 C 
ATOM     21  C   UNL     1       0.429   3.712  -3.833  0.00  0.00    +0.007 C 
ATOM     22  C   UNL     1       1.902   1.857  -4.629  0.00  0.00    +0.007 C 
ENDBRANCH  19  20
ENDBRANCH  18  19
ENDBRANCH  16  18
ENDBRANCH   5  16
TORSDOF 6
