REMARK  Name = ZINC42433924
REMARK  6 active torsions:
REMARK  status: ('A' for Active; 'I' for Inactive)
REMARK    1  A    between atoms: C_3  and  N_12
REMARK    2  A    between atoms: C_4  and  N_11
REMARK    3  A    between atoms: C_6  and  S_7
REMARK    4  A    between atoms: S_7  and  N_10
REMARK    5  A    between atoms: C_16  and  C_18
REMARK    6  A    between atoms: C_18  and  O_19
REMARK                            x       y       z     vdW  Elec       q    Type
REMARK                         _______ _______ _______ _____ _____    ______ ____
ROOT
ATOM      1  C   UNL     1      -0.017   1.378   0.010  0.00  0.00    +0.030 A 
ATOM      2  C   UNL     1       1.169   2.090   0.002  0.00  0.00    +0.027 A 
ATOM      3  C   UNL     1       2.381   1.417  -0.013  0.00  0.00    +0.051 A 
ATOM      4  C   UNL     1       2.400   0.022  -0.021  0.00  0.00    +0.048 A 
ATOM      5  C   UNL     1       1.207  -0.683  -0.013  0.00  0.00    +0.053 A 
ATOM      6  C   UNL     1       0.002  -0.004   0.002  0.00  0.00    +0.107 A 
ENDROOT
BRANCH   3   7
ATOM      7  N   UNL     1       3.583   2.136  -0.021  0.00  0.00    -0.323 N 
ATOM      8  C   UNL     1       4.305   2.588  -1.224  0.00  0.00    +0.105 C 
ATOM      9  C   UNL     1       5.148   3.798  -0.749  0.00  0.00    +0.021 C 
ATOM     10  C   UNL     1       5.569   3.345   0.674  0.00  0.00    +0.026 C 
ATOM     11  C   UNL     1       4.330   2.569   1.169  0.00  0.00    +0.099 C 
BRANCH  11  12
ATOM     12  C   UNL     1       4.772   1.349   1.979  0.00  0.00    +0.178 C 
BRANCH  12  13
ATOM     13  O   UNL     1       5.702   0.581   1.213  0.00  0.00    -0.393 OA
ATOM     14  H   UNL     1       6.026  -0.210   1.666  0.00  0.00    +0.209 HD
ENDBRANCH  12  13
ENDBRANCH  11  12
ENDBRANCH   3   7
BRANCH   6  15
ATOM     15  S   UNL     1      -1.513  -0.903   0.012  0.00  0.00    +0.056 S 
ATOM     16  O   UNL     1      -1.222  -2.184   0.553  0.00  0.00    -0.153 OA
ATOM     17  O   UNL     1      -2.492  -0.042   0.578  0.00  0.00    -0.153 OA
BRANCH  15  18
ATOM     18  N   UNL     1      -1.950  -1.145  -1.567  0.00  0.00    -0.204 NA
ATOM     19  H   UNL     1      -1.390  -0.804  -2.282  0.00  0.00    +0.144 HD
ATOM     20  H   UNL     1      -2.766  -1.626  -1.776  0.00  0.00    +0.144 HD
ENDBRANCH  15  18
ENDBRANCH   6  15
BRANCH   4  21
ATOM     21  N   UNL     1       3.621  -0.663  -0.037  0.00  0.00    -0.356 N 
ATOM     22  H   UNL     1       4.455  -0.169  -0.042  0.00  0.00    +0.142 HD
ATOM     23  H   UNL     1       3.632  -1.633  -0.042  0.00  0.00    +0.142 HD
ENDBRANCH   4  21
TORSDOF 6
