REMARK  Name = ZINC42428359
REMARK  7 active torsions:
REMARK  status: ('A' for Active; 'I' for Inactive)
REMARK    1  A    between atoms: C_1  and  C_2
REMARK    2  A    between atoms: C_2  and  C_3
REMARK    3  A    between atoms: C_2  and  N_4
REMARK    4  A    between atoms: N_4  and  C_5
REMARK    5  A    between atoms: N_4  and  C_9
REMARK    6  A    between atoms: C_5  and  C_6
REMARK    7  A    between atoms: C_14  and  N_15
REMARK                            x       y       z     vdW  Elec       q    Type
REMARK                         _______ _______ _______ _____ _____    ______ ____
ROOT
ATOM      1  C   UNL     1      -2.223  -0.185   1.000  0.00  0.00    +0.052 A 
ATOM      2  C   UNL     1      -3.077   0.898   0.855  0.00  0.00    +0.030 A 
ATOM      3  C   UNL     1      -3.917   1.262   1.891  0.00  0.00    -0.024 A 
ATOM      4  C   UNL     1      -3.909   0.543   3.079  0.00  0.00    +0.038 A 
ATOM      5  C   UNL     1      -3.057  -0.542   3.230  0.00  0.00    +0.048 A 
ATOM      6  C   UNL     1      -2.218  -0.912   2.190  0.00  0.00    +0.048 A 
ATOM      7  N   UNL     1      -4.762   0.916   4.126  0.00  0.00    -0.285 N 
ATOM      8  C   UNL     1      -5.831   1.698   3.889  0.00  0.00    +0.218 C 
ATOM      9  O   UNL     1      -6.551   2.024   4.808  0.00  0.00    -0.275 OA
ATOM     10  C   UNL     1      -6.142   2.174   2.495  0.00  0.00    +0.101 C 
ATOM     11  C   UNL     1      -4.843   2.439   1.733  0.00  0.00    +0.046 C 
ATOM     12  H   UNL     1      -4.581   0.609   5.028  0.00  0.00    +0.155 HD
ENDROOT
BRANCH   6  13
ATOM     13  N   UNL     1      -1.361  -2.010   2.337  0.00  0.00    -0.356 N 
ATOM     14  H   UNL     1      -0.811  -2.298   1.593  0.00  0.00    +0.142 HD
ATOM     15  H   UNL     1      -1.319  -2.482   3.183  0.00  0.00    +0.142 HD
ENDBRANCH   6  13
BRANCH   1  16
ATOM     16  N   UNL     1      -1.371  -0.553  -0.051  0.00  0.00    -0.317 N 
BRANCH  16  18
ATOM     17  C   UNL     1      -2.340  -2.741  -0.555  0.00  0.00    +0.027 C 
ATOM     18  C   UNL     1      -1.869  -1.405  -1.133  0.00  0.00    +0.068 C 
ATOM     19  C   UNL     1      -3.040  -0.712  -1.832  0.00  0.00    +0.027 C 
ENDBRANCH  16  18
BRANCH  16  20
ATOM     20  C   UNL     1       0.017  -0.084  -0.067  0.00  0.00    +0.200 C 
BRANCH  20  21
ATOM     21  C   UNL     1       0.115   1.167  -0.901  0.00  0.00    +0.228 C 
ATOM     22  O   UNL     1      -0.890   1.679  -1.347  0.00  0.00    -0.274 OA
ATOM     23  N   UNL     1       1.320   1.716  -1.153  0.00  0.00    -0.328 N 
ATOM     24  H   UNL     1       2.123   1.307  -0.797  0.00  0.00    +0.145 HD
ATOM     25  H   UNL     1       1.383   2.522  -1.690  0.00  0.00    +0.145 HD
ENDBRANCH  20  21
ENDBRANCH  16  20
ENDBRANCH   1  16
TORSDOF 5
