REMARK  Name = ZINC16354583
REMARK  16 active torsions:
REMARK  status: ('A' for Active; 'I' for Inactive)
REMARK    1  A    between atoms: C_1  and  N_59
REMARK    2  A    between atoms: C_2  and  C_3
REMARK    3  A    between atoms: C_2  and  N_59
REMARK    4  A    between atoms: C_6  and  O_11
REMARK    5  A    between atoms: C_7  and  O_9
REMARK    6  A    between atoms: O_9  and  C_10
REMARK    7  A    between atoms: O_11  and  C_12
REMARK    8  A    between atoms: C_15  and  N_16
REMARK    9  A    between atoms: C_15  and  N_59
REMARK   10  A    between atoms: C_20  and  C_22
REMARK   11  A    between atoms: C_24  and  O_32
REMARK   12  A    between atoms: C_25  and  O_30
REMARK   13  A    between atoms: C_26  and  O_28
REMARK   14  A    between atoms: O_28  and  C_29
REMARK   15  A    between atoms: O_30  and  C_31
REMARK   16  A    between atoms: O_32  and  C_33
REMARK                            x       y       z     vdW  Elec       q    Type
REMARK                         _______ _______ _______ _____ _____    ______ ____
ROOT
ATOM      1  N   UNL     1       0.002  -0.004   0.002  0.00  0.00    -0.240 N 
ATOM      2  C   UNL     1       1.299  -0.378  -0.012  0.00  0.00    +0.265 A 
ATOM      3  S   UNL     1       1.890  -1.985  -0.027  0.00  0.00    +0.011 S 
ATOM      4  O   UNL     1       2.042   0.743  -0.013  0.00  0.00    -0.412 OA
ATOM      5  C   UNL     1       1.217   1.813   0.000  0.00  0.00    +0.247 A 
ATOM      6  N   UNL     1      -0.017   1.399   0.010  0.00  0.00    -0.131 NA
ENDROOT
BRANCH   5   7
ATOM      7  C   UNL     1       1.648   3.227   0.003  0.00  0.00    +0.046 A 
ATOM      8  C   UNL     1       0.695   4.247   0.011  0.00  0.00    +0.063 A 
ATOM      9  C   UNL     1       1.101   5.570   0.019  0.00  0.00    +0.166 A 
ATOM     10  C   UNL     1       2.456   5.884   0.008  0.00  0.00    +0.204 A 
ATOM     11  C   UNL     1       3.407   4.869  -0.006  0.00  0.00    +0.166 A 
ATOM     12  C   UNL     1       3.007   3.544  -0.008  0.00  0.00    +0.063 A 
BRANCH  11  13
ATOM     13  O   UNL     1       4.731   5.178  -0.017  0.00  0.00    -0.491 OA
ATOM     14  C   UNL     1       5.653   4.086  -0.030  0.00  0.00    +0.277 C 
ENDBRANCH  11  13
BRANCH  10  15
ATOM     15  O   UNL     1       2.852   7.185   0.010  0.00  0.00    -0.488 OA
ATOM     16  C   UNL     1       3.029   7.812  -1.262  0.00  0.00    +0.277 C 
ENDBRANCH  10  15
BRANCH   9  17
ATOM     17  O   UNL     1       0.173   6.565   0.032  0.00  0.00    -0.491 OA
ATOM     18  C   UNL     1      -1.200   6.171   0.044  0.00  0.00    +0.277 C 
ENDBRANCH   9  17
ENDBRANCH   5   7
BRANCH   1  19
ATOM     19  C   UNL     1      -1.163  -0.893   0.008  0.00  0.00    +0.073 C 
BRANCH  19  21
ATOM     20  C   UNL     1      -2.053   0.029  -2.046  0.00  0.00    -0.093 C 
ATOM     21  N   UNL     1      -1.541  -1.192  -1.389  0.00  0.00    +0.394 N 
ATOM     22  H   UNL     1      -0.712  -1.521  -1.896  0.00  0.00    -0.079 HD
BRANCH  21  23
ATOM     23  C   UNL     1      -2.572  -2.251  -1.417  0.00  0.00    -0.041 C 
BRANCH  23  24
ATOM     24  C   UNL     1      -2.779  -2.690  -2.843  0.00  0.00    -0.060 A 
ATOM     25  C   UNL     1      -3.742  -2.075  -3.622  0.00  0.00    +0.005 A 
ATOM     26  C   UNL     1      -3.932  -2.470  -4.933  0.00  0.00    +0.050 A 
ATOM     27  C   UNL     1      -3.164  -3.493  -5.466  0.00  0.00    +0.168 A 
ATOM     28  C   UNL     1      -2.199  -4.117  -4.681  0.00  0.00    +0.162 A 
ATOM     29  C   UNL     1      -2.010  -3.712  -3.369  0.00  0.00    +0.051 A 
BRANCH  28  30
ATOM     30  O   UNL     1      -1.443  -5.121  -5.199  0.00  0.00    -0.491 OA
ATOM     31  C   UNL     1      -0.471  -5.714  -4.335  0.00  0.00    +0.277 C 
ENDBRANCH  28  30
BRANCH  27  32
ATOM     32  O   UNL     1      -3.353  -3.887  -6.754  0.00  0.00    -0.431 OA
BRANCH  32  33
ATOM     33  C   UNL     1      -4.361  -3.203  -7.500  0.00  0.00    +0.541 C 
ATOM     34  F   UNL     1      -5.600  -3.367  -6.871  0.00  0.00    -0.166 F 
ATOM     35  F   UNL     1      -4.049  -1.840  -7.565  0.00  0.00    -0.166 F 
ENDBRANCH  32  33
ENDBRANCH  27  32
ENDBRANCH  23  24
ENDBRANCH  21  23
ENDBRANCH  19  21
ENDBRANCH   1  19
TORSDOF 11
