REMARK  Name = ZINC12183187
REMARK  8 active torsions:
REMARK  status: ('A' for Active; 'I' for Inactive)
REMARK    1  A    between atoms: C_1  and  C_2
REMARK    2  A    between atoms: C_4  and  C_26
REMARK    3  A    between atoms: C_11  and  C_13
REMARK    4  A    between atoms: C_13  and  C_14
REMARK    5  A    between atoms: C_17  and  C_22
REMARK    6  A    between atoms: C_19  and  C_20
REMARK    7  A    between atoms: C_19  and  C_21
REMARK    8  A    between atoms: C_22  and  C_24
REMARK                            x       y       z     vdW  Elec       q    Type
REMARK                         _______ _______ _______ _____ _____    ______ ____
ROOT
ATOM      1  C   UNL     1      -1.846  -1.373  -5.494  0.00  0.00    +0.065 C 
ATOM      2  C   UNL     1      -0.573  -1.607  -4.723  0.00  0.00    +0.041 A 
ATOM      3  C   UNL     1       0.476  -2.279  -5.333  0.00  0.00    +0.036 A 
ATOM      4  C   UNL     1       1.645  -2.495  -4.630  0.00  0.00    +0.070 A 
ATOM      5  C   UNL     1       1.721  -2.020  -3.318  0.00  0.00    +0.072 A 
ATOM      6  C   UNL     1       2.754  -2.049  -2.279  0.00  0.00    +0.149 A 
ATOM      7  N   UNL     1       2.276  -1.437  -1.228  0.00  0.00    -0.147 NA
ATOM      8  N   UNL     1       0.973  -0.998  -1.480  0.00  0.00    -0.180 N 
ATOM      9  C   UNL     1       0.617  -1.346  -2.764  0.00  0.00    +0.169 A 
ATOM     10  N   UNL     1      -0.481  -1.167  -3.485  0.00  0.00    -0.232 NA
ATOM     11  C   UNL     1       0.190  -0.335  -0.606  0.00  0.00    +0.250 C 
ATOM     12  O   UNL     1      -0.928   0.005  -0.930  0.00  0.00    -0.271 OA
ATOM     13  N   UNL     1       4.019  -2.619  -2.393  0.00  0.00    -0.341 N 
ATOM     14  H   UNL     1       4.285  -3.050  -3.221  0.00  0.00    +0.144 HD
ATOM     15  H   UNL     1       4.636  -2.587  -1.644  0.00  0.00    +0.144 HD
ENDROOT
BRANCH   4  16
ATOM     16  C   UNL     1       2.806  -3.221  -5.259  0.00  0.00    +0.418 C 
ATOM     17  F   UNL     1       2.472  -3.588  -6.567  0.00  0.00    -0.166 F 
ATOM     18  F   UNL     1       3.925  -2.382  -5.281  0.00  0.00    -0.166 F 
ATOM     19  F   UNL     1       3.097  -4.369  -4.514  0.00  0.00    -0.166 F 
ENDBRANCH   4  16
BRANCH  11  20
ATOM     20  C   UNL     1       0.704  -0.016   0.774  0.00  0.00    +0.105 C 
BRANCH  20  21
ATOM     21  C   UNL     1      -0.373   0.736   1.559  0.00  0.00    +0.005 C 
ATOM     22  C   UNL     1      -0.335   2.259   1.353  0.00  0.00    +0.016 C 
ATOM     23  C   UNL     1      -0.635   2.390   2.856  0.00  0.00    +0.061 C 
ATOM     24  C   UNL     1       0.006   1.003   3.025  0.00  0.00    -0.022 C 
ATOM     25  C   UNL     1      -0.730   0.105   4.022  0.00  0.00    +0.012 C 
ATOM     26  C   UNL     1       1.516   1.049   3.269  0.00  0.00    +0.012 C 
BRANCH  23  27
ATOM     27  C   UNL     1      -2.107   2.418   3.177  0.00  0.00    +0.134 C 
ATOM     28  O   UNL     1      -2.817   1.503   2.836  0.00  0.00    -0.297 OA
ATOM     29  C   UNL     1      -2.694   3.588   3.924  0.00  0.00    +0.086 C 
ENDBRANCH  23  27
ENDBRANCH  20  21
ENDBRANCH  11  20
TORSDOF 4
