REMARK  Name = ZINC11118104
REMARK  6 active torsions:
REMARK  status: ('A' for Active; 'I' for Inactive)
REMARK    1  A    between atoms: C_6  and  C_7
REMARK    2  A    between atoms: C_10  and  C_12
REMARK    3  A    between atoms: C_12  and  N_13
REMARK    4  A    between atoms: C_14  and  C_16
REMARK    5  A    between atoms: C_16  and  N_17
REMARK    6  A    between atoms: C_18  and  C_20
REMARK                            x       y       z     vdW  Elec       q    Type
REMARK                         _______ _______ _______ _____ _____    ______ ____
ROOT
ATOM      1  N   UNL     1       0.002  -0.004   0.002  0.00  0.00    -0.307 N 
ATOM      2  C   UNL     1      -0.016   1.344   0.009  0.00  0.00    +0.231 C 
ATOM      3  O   UNL     1      -1.075   1.936   0.018  0.00  0.00    -0.274 OA
ATOM      4  H   UNL     1       0.849  -0.478  -0.009  0.00  0.00    +0.149 HD
ENDROOT
BRANCH   1   5
ATOM      5  C   UNL     1      -1.256  -0.754   0.010  0.00  0.00    +0.178 C 
BRANCH   5   9
ATOM      6  C   UNL     1      -0.561  -4.263  -0.730  0.00  0.00    +0.135 A 
ATOM      7  C   UNL     1      -0.539  -4.315   0.628  0.00  0.00    +0.050 A 
ATOM      8  C   UNL     1      -0.797  -3.008   1.088  0.00  0.00    +0.047 A 
ATOM      9  C   UNL     1      -0.961  -2.232  -0.001  0.00  0.00    +0.123 A 
ATOM     10  O   UNL     1      -0.824  -2.995  -1.097  0.00  0.00    -0.458 OA
BRANCH   6  16
ATOM     11  C   UNL     1      -0.077  -6.674  -1.130  0.00  0.00    +0.012 A 
ATOM     12  C   UNL     1       0.123  -7.735  -1.989  0.00  0.00    +0.016 A 
ATOM     13  C   UNL     1       0.072  -7.539  -3.358  0.00  0.00    +0.018 A 
ATOM     14  C   UNL     1      -0.184  -6.281  -3.875  0.00  0.00    +0.016 A 
ATOM     15  C   UNL     1      -0.391  -5.213  -3.026  0.00  0.00    +0.012 A 
ATOM     16  C   UNL     1      -0.341  -5.403  -1.645  0.00  0.00    +0.017 A 
ATOM     17 BR   UNL     1       0.354  -8.998  -4.529  0.00  0.00    -0.050 Br
ENDBRANCH   6  16
ENDBRANCH   5   9
ENDBRANCH   1   5
BRANCH   2  18
ATOM     18  C   UNL     1       1.278   2.115   0.001  0.00  0.00    +0.200 C 
BRANCH  18  19
ATOM     19  N   UNL     1       0.991   3.551   0.012  0.00  0.00    -0.303 N 
ATOM     20  C   UNL     1       2.004   4.441   0.007  0.00  0.00    +0.247 C 
ATOM     21  O   UNL     1       3.155   4.051  -0.006  0.00  0.00    -0.270 OA
ATOM     22  H   UNL     1       0.072   3.862   0.022  0.00  0.00    +0.150 HD
BRANCH  20  23
ATOM     23  C   UNL     1       1.714   5.888   0.017  0.00  0.00    +0.072 A 
ATOM     24  C   UNL     1       0.392   6.339   0.032  0.00  0.00    +0.019 A 
ATOM     25  C   UNL     1       0.128   7.691   0.043  0.00  0.00    +0.039 A 
ATOM     26  C   UNL     1       1.171   8.606   0.038  0.00  0.00    +0.126 A 
ATOM     27  C   UNL     1       2.484   8.168   0.024  0.00  0.00    +0.077 A 
ATOM     28  C   UNL     1       2.763   6.814   0.018  0.00  0.00    +0.138 A 
ATOM     29  F   UNL     1       4.045   6.386   0.009  0.00  0.00    -0.205 F 
ATOM     30  F   UNL     1       0.903   9.930   0.049  0.00  0.00    -0.205 F 
ENDBRANCH  20  23
ENDBRANCH  18  19
ENDBRANCH   2  18
TORSDOF 6
