REMARK  Name = ZINC37319393
REMARK  6 active torsions:
REMARK  status: ('A' for Active; 'I' for Inactive)
REMARK    1  A    between atoms: C_1  and  O_2
REMARK    2  A    between atoms: O_2  and  C_3
REMARK    3  A    between atoms: C_6  and  C_10
REMARK    4  A    between atoms: C_10  and  N_11
REMARK    5  A    between atoms: N_11  and  C_12
REMARK    6  A    between atoms: C_15  and  C_18
REMARK                            x       y       z     vdW  Elec       q    Type
REMARK                         _______ _______ _______ _____ _____    ______ ____
ROOT
ATOM      1  N   UNL     1      -6.061  -1.632   0.044  0.00  0.00    +0.384 N 
ATOM      2  H   UNL     1      -5.979  -1.056   0.868  0.00  0.00    -0.085 HD
ATOM      3  H   UNL     1      -5.991  -1.054  -0.779  0.00  0.00    -0.085 HD
ENDROOT
BRANCH   1   4
ATOM      4  C   UNL     1      -7.361  -2.317   0.053  0.00  0.00    -0.071 C 
ATOM      5  C   UNL     1      -7.538  -3.092  -1.254  0.00  0.00    -0.015 C 
ATOM      6  C   UNL     1      -8.891  -3.806  -1.245  0.00  0.00    +0.011 C 
ATOM      7  C   UNL     1     -10.011  -2.772  -1.109  0.00  0.00    +0.075 C 
ATOM      8  C   UNL     1      -9.835  -1.996   0.197  0.00  0.00    +0.011 C 
ATOM      9  C   UNL     1      -8.481  -1.283   0.188  0.00  0.00    -0.015 C 
BRANCH   7  10
ATOM     10  C   UNL     1      -9.955  -1.816  -2.273  0.00  0.00    +0.214 C 
ATOM     11  O   UNL     1      -9.103  -1.948  -3.126  0.00  0.00    -0.276 OA
ATOM     12  N   UNL     1     -10.852  -0.814  -2.365  0.00  0.00    -0.329 N 
ATOM     13  H   UNL     1     -11.533  -0.708  -1.683  0.00  0.00    +0.145 HD
ATOM     14  H   UNL     1     -10.816  -0.198  -3.114  0.00  0.00    +0.145 HD
ENDBRANCH   7  10
ENDBRANCH   1   4
BRANCH   1  15
ATOM     15  C   UNL     1      -4.983  -2.629   0.035  0.00  0.00    -0.046 C 
BRANCH  15  19
ATOM     16  C   UNL     1      -1.201  -0.638   0.010  0.00  0.00    +0.148 A 
ATOM     17  C   UNL     1      -1.807  -0.963   1.215  0.00  0.00    +0.061 A 
ATOM     18  C   UNL     1      -3.030  -1.607   1.220  0.00  0.00    +0.020 A 
ATOM     19  C   UNL     1      -3.649  -1.927   0.027  0.00  0.00    -0.062 A 
ATOM     20  C   UNL     1      -3.047  -1.605  -1.176  0.00  0.00    +0.020 A 
ATOM     21  C   UNL     1      -1.827  -0.955  -1.187  0.00  0.00    +0.061 A 
ATOM     22 BR   UNL     1      -1.008  -0.507  -2.832  0.00  0.00    -0.046 Br
ATOM     23 BR   UNL     1      -0.960  -0.526   2.849  0.00  0.00    -0.046 Br
BRANCH  16  25
ATOM     24  C   UNL     1      -0.017   1.425   0.010  0.00  0.00    +0.277 C 
ATOM     25  O   UNL     1       0.002  -0.004   0.002  0.00  0.00    -0.493 OA
ENDBRANCH  16  25
ENDBRANCH  15  19
ENDBRANCH   1  15
TORSDOF 5
