REMARK  Name = ZINC67193200
REMARK  9 active torsions:
REMARK  status: ('A' for Active; 'I' for Inactive)
REMARK    1  A    between atoms: C_1  and  C_2
REMARK    2  A    between atoms: C_2  and  C_4
REMARK    3  A    between atoms: C_2  and  N_17
REMARK    4  A    between atoms: C_4  and  C_5
REMARK    5  A    between atoms: N_7  and  N_8
REMARK    6  A    between atoms: N_8  and  C_9
REMARK    7  A    between atoms: C_9  and  N_11
REMARK    8  A    between atoms: N_11  and  C_12
REMARK    9  A    between atoms: C_18  and  C_20
REMARK                            x       y       z     vdW  Elec       q    Type
REMARK                         _______ _______ _______ _____ _____    ______ ____
ROOT
ATOM      1  C   UNL     1       0.632  -2.000  -1.327  0.00  0.00    +0.231 C 
ATOM      2  O   UNL     1       0.054  -2.616  -0.457  0.00  0.00    -0.274 OA
ATOM      3  N   UNL     1       1.196  -2.660  -2.358  0.00  0.00    -0.235 N 
ATOM      4  H   UNL     1       1.658  -2.168  -3.055  0.00  0.00    +0.173 HD
ENDROOT
BRANCH   3   5
ATOM      5  N   UNL     1       1.116  -4.057  -2.424  0.00  0.00    -0.246 N 
ATOM      6  H   UNL     1       0.654  -4.550  -1.728  0.00  0.00    +0.172 HD
BRANCH   5   7
ATOM      7  C   UNL     1       1.680  -4.717  -3.455  0.00  0.00    +0.147 C 
ATOM      8  S   UNL     1       1.582  -6.424  -3.535  0.00  0.00    -0.017 S 
BRANCH   7   9
ATOM      9  N   UNL     1       2.322  -4.033  -4.423  0.00  0.00    -0.323 N 
ATOM     10  H   UNL     1       2.378  -3.065  -4.377  0.00  0.00    +0.148 HD
BRANCH   9  11
ATOM     11  C   UNL     1       2.936  -4.750  -5.543  0.00  0.00    +0.072 C 
ATOM     12  C   UNL     1       4.377  -5.162  -5.180  0.00  0.00    +0.022 C 
ATOM     13  C   UNL     1       5.166  -4.987  -6.502  0.00  0.00    +0.002 C 
ATOM     14  C   UNL     1       4.538  -3.707  -7.107  0.00  0.00    +0.002 C 
ATOM     15  C   UNL     1       3.038  -3.825  -6.768  0.00  0.00    +0.022 C 
ENDBRANCH   9  11
ENDBRANCH   7   9
ENDBRANCH   5   7
ENDBRANCH   3   5
BRANCH   1  16
ATOM     16  C   UNL     1       0.718  -0.497  -1.257  0.00  0.00    +0.119 C 
BRANCH  16  18
ATOM     17  C   UNL     1      -0.019   1.526   0.010  0.00  0.00    +0.028 C 
ATOM     18  C   UNL     1       0.002  -0.004   0.002  0.00  0.00    +0.079 C 
BRANCH  18  19
ATOM     19  N   UNL     1       0.711  -0.489   1.189  0.00  0.00    -0.312 N 
ATOM     20  C   UNL     1       0.051  -0.633   2.355  0.00  0.00    +0.216 C 
ATOM     21  O   UNL     1      -1.129  -0.361   2.423  0.00  0.00    -0.276 OA
ATOM     22  H   UNL     1       1.654  -0.707   1.135  0.00  0.00    +0.149 HD
BRANCH  20  23
ATOM     23  C   UNL     1       0.780  -1.133   3.576  0.00  0.00    +0.075 C 
ATOM     24  C   UNL     1       1.347  -2.526   3.298  0.00  0.00    +0.013 C 
ATOM     25  C   UNL     1       2.087  -3.033   4.537  0.00  0.00    +0.001 C 
ATOM     26  C   UNL     1       1.116  -3.104   5.717  0.00  0.00    +0.000 C 
ATOM     27  C   UNL     1       0.549  -1.711   5.996  0.00  0.00    +0.001 C 
ATOM     28  C   UNL     1      -0.191  -1.204   4.756  0.00  0.00    +0.013 C 
ENDBRANCH  20  23
ENDBRANCH  18  19
ENDBRANCH  16  18
ENDBRANCH   1  16
TORSDOF 8
