REMARK  Name = ZINC61997761
REMARK  2 active torsions:
REMARK  status: ('A' for Active; 'I' for Inactive)
REMARK    1  A    between atoms: C_8  and  C_27
REMARK    2  A    between atoms: C_27  and  C_29
REMARK                            x       y       z     vdW  Elec       q    Type
REMARK                         _______ _______ _______ _____ _____    ______ ____
ROOT
ATOM      1  C   UNL     1      -0.151   1.287   0.188  0.00  0.00    +0.000 A 
ATOM      2  C   UNL     1       1.023   2.016   0.253  0.00  0.00    +0.002 A 
ATOM      3  C   UNL     1       2.243   1.373   0.242  0.00  0.00    +0.023 A 
ATOM      4  C   UNL     1       2.303  -0.016   0.165  0.00  0.00    +0.038 A 
ATOM      5  C   UNL     1       1.116  -0.739   0.101  0.00  0.00    -0.008 A 
ATOM      6  C   UNL     1      -0.100  -0.094   0.111  0.00  0.00    +0.006 A 
ATOM      7  C   UNL     1       1.518  -2.186   0.030  0.00  0.00    +0.116 C 
ATOM      8  C   UNL     1       0.997  -2.844  -1.259  0.00  0.00    +0.102 C 
ATOM      9  C   UNL     1       0.612  -4.268  -0.791  0.00  0.00    +0.070 C 
ATOM     10  C   UNL     1      -0.586  -4.764  -1.620  0.00  0.00    +0.021 C 
ATOM     11  C   UNL     1      -1.840  -4.315  -0.844  0.00  0.00    +0.017 C 
ATOM     12  C   UNL     1      -1.303  -3.549   0.381  0.00  0.00    +0.086 C 
ATOM     13  N   UNL     1       0.089  -4.057   0.594  0.00  0.00    -0.281 NA
ATOM     14  C   UNL     1       0.930  -2.996   1.178  0.00  0.00    +0.145 C 
ATOM     15  C   UNL     1       2.009  -3.586   2.047  0.00  0.00    +0.006 A 
ATOM     16  C   UNL     1       3.052  -4.451   1.800  0.00  0.00    +0.008 A 
ATOM     17  C   UNL     1       3.901  -4.822   2.828  0.00  0.00    +0.002 A 
ATOM     18  C   UNL     1       3.700  -4.322   4.102  0.00  0.00    +0.022 A 
ATOM     19  C   UNL     1       2.657  -3.454   4.353  0.00  0.00    +0.062 A 
ATOM     20  C   UNL     1       1.797  -3.076   3.323  0.00  0.00    +0.057 A 
ATOM     21  N   UNL     1       0.688  -2.226   3.325  0.00  0.00    -0.282 N 
ATOM     22  C   UNL     1       0.123  -2.125   2.107  0.00  0.00    +0.244 C 
ATOM     23  O   UNL     1      -0.848  -1.461   1.814  0.00  0.00    -0.273 OA
ATOM     24 CL   UNL     1       2.414  -2.834   5.956  0.00  0.00    -0.082 Cl
ATOM     25  C   UNL     1       3.023  -2.174   0.062  0.00  0.00    +0.231 C 
ATOM     26  O   UNL     1       3.755  -3.140   0.025  0.00  0.00    -0.274 OA
ATOM     27  N   UNL     1       3.398  -0.883   0.139  0.00  0.00    -0.284 N 
ATOM     28  H   UNL     1       0.363  -1.762   4.112  0.00  0.00    +0.155 HD
ATOM     29  H   UNL     1       4.322  -0.589   0.173  0.00  0.00    +0.155 HD
ENDROOT
BRANCH   8  30
ATOM     30  C   UNL     1      -0.208  -2.107  -1.785  0.00  0.00    +0.204 C 
ATOM     31  O   UNL     1      -1.323  -2.446  -1.445  0.00  0.00    -0.288 OA
BRANCH  30  32
ATOM     32  C   UNL     1      -0.040  -1.020  -2.673  0.00  0.00    +0.170 A 
ATOM     33  C   UNL     1      -1.049  -0.257  -3.224  0.00  0.00    +0.053 A 
ATOM     34  C   UNL     1      -0.426   0.700  -4.037  0.00  0.00    +0.042 A 
ATOM     35  C   UNL     1       0.908   0.489  -3.954  0.00  0.00    +0.196 A 
ATOM     36  O   UNL     1       1.137  -0.540  -3.129  0.00  0.00    -0.460 OA
ENDBRANCH  30  32
ENDBRANCH   8  30
TORSDOF 2
