REMARK  Name = ZINC63328944
REMARK  9 active torsions:
REMARK  status: ('A' for Active; 'I' for Inactive)
REMARK    1  A    between atoms: C_1  and  C_2
REMARK    2  A    between atoms: C_2  and  C_4
REMARK    3  A    between atoms: C_2  and  N_18
REMARK    4  A    between atoms: N_6  and  C_7
REMARK    5  A    between atoms: C_7  and  C_8
REMARK    6  A    between atoms: C_8  and  C_9
REMARK    7  A    between atoms: C_19  and  C_21
REMARK    8  A    between atoms: C_21  and  C_23
REMARK    9  A    between atoms: C_21  and  N_24
REMARK                            x       y       z     vdW  Elec       q    Type
REMARK                         _______ _______ _______ _____ _____    ______ ____
ROOT
ATOM      1  C   UNL     1      -0.019   1.526   0.010  0.00  0.00    +0.038 C 
ATOM      2  C   UNL     1       0.002  -0.004   0.002  0.00  0.00    +0.156 C 
ENDROOT
BRANCH   2   3
ATOM      3  C   UNL     1       0.731  -0.503   1.223  0.00  0.00    +0.233 C 
ATOM      4  O   UNL     1       1.725  -1.187   1.099  0.00  0.00    -0.274 OA
ATOM      5  N   UNL     1       0.278  -0.191   2.453  0.00  0.00    -0.313 N 
ATOM      6  H   UNL     1      -0.517   0.356   2.553  0.00  0.00    +0.149 HD
BRANCH   5   7
ATOM      7  C   UNL     1       0.986  -0.676   3.640  0.00  0.00    +0.108 C 
BRANCH   7   8
ATOM      8  C   UNL     1       0.270  -0.182   4.899  0.00  0.00    +0.052 C 
BRANCH   8   9
ATOM      9  C   UNL     1       0.999  -0.682   6.120  0.00  0.00    -0.040 C 
ATOM     10  C   UNL     1       1.935  -0.018   6.836  0.00  0.00    -0.001 A 
ATOM     11  C   UNL     1       2.533   1.315   6.697  0.00  0.00    +0.010 A 
ATOM     12  C   UNL     1       3.470   1.710   7.589  0.00  0.00    +0.001 A 
ATOM     13  C   UNL     1       3.884   0.880   8.639  0.00  0.00    +0.002 A 
ATOM     14  C   UNL     1       3.381  -0.358   8.832  0.00  0.00    +0.026 A 
ATOM     15  C   UNL     1       2.389  -0.876   7.954  0.00  0.00    +0.043 A 
ATOM     16  N   UNL     1       1.758  -2.025   7.930  0.00  0.00    -0.380 N 
ATOM     17  C   UNL     1       0.827  -2.023   6.796  0.00  0.00    +0.144 C 
ATOM     18  H   UNL     1       1.883  -2.752   8.559  0.00  0.00    +0.160 HD
ENDBRANCH   8   9
ENDBRANCH   7   8
ENDBRANCH   5   7
ENDBRANCH   2   3
BRANCH   2  19
ATOM     19  N   UNL     1       0.688  -0.476  -1.203  0.00  0.00    -0.303 N 
ATOM     20  C   UNL     1       0.006  -0.608  -2.358  0.00  0.00    +0.234 C 
ATOM     21  O   UNL     1      -1.175  -0.336  -2.400  0.00  0.00    -0.274 OA
ATOM     22  H   UNL     1       1.632  -0.695  -1.170  0.00  0.00    +0.149 HD
BRANCH  20  23
ATOM     23  C   UNL     1       0.712  -1.094  -3.598  0.00  0.00    +0.161 C 
ATOM     24  C   UNL     1       1.849  -0.133  -3.948  0.00  0.00    +0.038 C 
BRANCH  23  25
ATOM     25  N   UNL     1      -0.240  -1.150  -4.711  0.00  0.00    -0.271 N 
ATOM     26  C   UNL     1      -0.498  -2.430  -5.372  0.00  0.00    +0.214 C 
ATOM     27  N   UNL     1      -1.888  -2.491  -5.838  0.00  0.00    -0.328 N 
ATOM     28  C   UNL     1      -2.436  -1.374  -6.458  0.00  0.00    +0.040 A 
ATOM     29  C   UNL     1      -3.438  -1.486  -7.407  0.00  0.00    +0.024 A 
ATOM     30  C   UNL     1      -3.960  -0.347  -7.989  0.00  0.00    +0.002 A 
ATOM     31  C   UNL     1      -3.489   0.906  -7.630  0.00  0.00    +0.001 A 
ATOM     32  C   UNL     1      -2.488   1.035  -6.690  0.00  0.00    +0.015 A 
ATOM     33  C   UNL     1      -1.949  -0.106  -6.099  0.00  0.00    +0.058 A 
ATOM     34  C   UNL     1      -0.866  -0.023  -5.105  0.00  0.00    +0.250 C 
ATOM     35  O   UNL     1      -0.536   1.054  -4.645  0.00  0.00    -0.270 OA
ATOM     36  H   UNL     1      -2.415  -3.296  -5.715  0.00  0.00    +0.148 HD
ENDBRANCH  23  25
ENDBRANCH  20  23
ENDBRANCH   2  19
TORSDOF 7
