REMARK  Name = ZINC04453432
REMARK  7 active torsions:
REMARK  status: ('A' for Active; 'I' for Inactive)
REMARK    1  A    between atoms: C_1  and  C_2
REMARK    2  A    between atoms: C_5  and  C_7
REMARK    3  A    between atoms: C_15  and  C_23
REMARK    4  A    between atoms: C_17  and  C_18
REMARK    5  A    between atoms: C_17  and  C_20
REMARK    6  A    between atoms: C_25  and  C_26
REMARK    7  A    between atoms: C_25  and  N_51
REMARK                            x       y       z     vdW  Elec       q    Type
REMARK                         _______ _______ _______ _____ _____    ______ ____
ROOT
ATOM      1  C   UNL     1      -4.052   6.709  -3.218  0.00  0.00    +0.100 C 
ATOM      2  C   UNL     1      -4.577   5.342  -2.775  0.00  0.00    +0.013 C 
ATOM      3  C   UNL     1      -4.155   5.008  -1.361  0.00  0.00    -0.069 C 
ATOM      4  C   UNL     1      -3.308   2.850  -2.020  0.00  0.00    -0.051 C 
ATOM      5  C   UNL     1      -3.591   3.172  -3.466  0.00  0.00    -0.044 C 
ATOM      6  C   UNL     1      -4.148   4.324  -3.792  0.00  0.00    -0.051 C 
ATOM      7  C   UNL     1      -4.322   4.681  -5.222  0.00  0.00    +0.163 C 
ATOM      8  C   UNL     1      -4.566   5.973  -5.558  0.00  0.00    +0.065 C 
ATOM      9  C   UNL     1      -4.697   7.078  -4.554  0.00  0.00    +0.191 C 
ATOM     10  N   UNL     1      -4.700   6.283  -6.883  0.00  0.00    -0.304 NA
ATOM     11  H   UNL     1      -4.875   7.198  -7.151  0.00  0.00    +0.186 HD
ATOM     12  N   UNL     1      -2.978   4.125  -1.347  0.00  0.00    +0.385 N 
ATOM     13  H   UNL     1      -2.209   4.582  -1.851  0.00  0.00    -0.081 HD
ENDROOT
BRANCH   1  18
ATOM     14  C   UNL     1       0.514   5.343  -4.870  0.00  0.00    +0.086 C 
ATOM     15  C   UNL     1      -0.570   6.052  -4.099  0.00  0.00    +0.102 A 
ATOM     16  C   UNL     1      -0.379   7.007  -3.172  0.00  0.00    +0.044 A 
ATOM     17  C   UNL     1      -1.659   7.390  -2.708  0.00  0.00    +0.045 A 
ATOM     18  C   UNL     1      -2.555   6.646  -3.381  0.00  0.00    +0.112 A 
ATOM     19  O   UNL     1      -1.890   5.833  -4.218  0.00  0.00    -0.464 OA
ENDBRANCH   1  18
BRANCH   9  20
ATOM     20  C   UNL     1      -6.125   7.362  -4.336  0.00  0.00    +0.091 C 
ATOM     21  N   UNL     1      -7.227   7.580  -4.167  0.00  0.00    -0.195 NA
ENDBRANCH   9  20
BRANCH   9  22
ATOM     22  C   UNL     1      -4.045   8.287  -5.084  0.00  0.00    +0.091 C 
ATOM     23  N   UNL     1      -3.542   9.220  -5.492  0.00  0.00    -0.195 NA
ENDBRANCH   9  22
BRANCH   7  24
ATOM     24  C   UNL     1      -4.234   3.673  -6.236  0.00  0.00    +0.076 C 
ATOM     25  N   UNL     1      -4.163   2.874  -7.040  0.00  0.00    -0.196 NA
ENDBRANCH   7  24
BRANCH  12  26
ATOM     26  C   UNL     1      -2.553   3.869   0.047  0.00  0.00    -0.043 C 
BRANCH  26  27
ATOM     27  C   UNL     1      -1.238   3.133   0.030  0.00  0.00    -0.064 A 
ATOM     28  C   UNL     1      -1.219   1.751   0.017  0.00  0.00    +0.002 A 
ATOM     29  C   UNL     1      -0.012   1.076   0.008  0.00  0.00    +0.000 A 
ATOM     30  C   UNL     1       1.175   1.784   0.001  0.00  0.00    +0.000 A 
ATOM     31  C   UNL     1       1.156   3.166   0.008  0.00  0.00    +0.000 A 
ATOM     32  C   UNL     1      -0.050   3.841   0.022  0.00  0.00    +0.002 A 
ENDBRANCH  26  27
ENDBRANCH  12  26
TORSDOF 6
