REMARK  Name = ZINC03382518
REMARK  7 active torsions:
REMARK  status: ('A' for Active; 'I' for Inactive)
REMARK    1  A    between atoms: C_1  and  C_2
REMARK    2  A    between atoms: C_2  and  C_4
REMARK    3  A    between atoms: C_2  and  O_20
REMARK    4  A    between atoms: N_6  and  C_7
REMARK    5  A    between atoms: C_7  and  C_8
REMARK    6  A    between atoms: N_10  and  C_11
REMARK    7  A    between atoms: O_20  and  C_21
REMARK                            x       y       z     vdW  Elec       q    Type
REMARK                         _______ _______ _______ _____ _____    ______ ____
ROOT
ATOM      1  C   UNL     1       3.893   7.509   0.422  0.00  0.00    +0.254 C 
ATOM      2  O   UNL     1       2.961   8.285   0.446  0.00  0.00    -0.272 OA
ATOM      3  N   UNL     1       3.665   6.186   0.309  0.00  0.00    -0.304 N 
ATOM      4  H   UNL     1       4.410   5.565   0.290  0.00  0.00    +0.149 HD
ENDROOT
BRANCH   1   6
ATOM      5  C   UNL     1       6.047   7.730  -0.786  0.00  0.00    +0.062 C 
ATOM      6  C   UNL     1       5.306   8.024   0.520  0.00  0.00    +0.256 C 
BRANCH   6   7
ATOM      7  O   UNL     1       5.284   9.435   0.748  0.00  0.00    -0.478 OA
BRANCH   7   8
ATOM      8  C   UNL     1       6.370   9.978   1.359  0.00  0.00    +0.140 A 
ATOM      9  C   UNL     1       7.389   9.159   1.821  0.00  0.00    +0.048 A 
ATOM     10  C   UNL     1       8.494   9.713   2.438  0.00  0.00    +0.023 A 
ATOM     11  C   UNL     1       8.580  11.085   2.604  0.00  0.00    +0.043 A 
ATOM     12  C   UNL     1       7.562  11.904   2.149  0.00  0.00    +0.043 A 
ATOM     13  C   UNL     1       6.457  11.354   1.527  0.00  0.00    +0.084 A 
ATOM     14 CL   UNL     1       5.180  12.381   0.956  0.00  0.00    -0.080 Cl
ATOM     15 CL   UNL     1       9.967  11.778   3.386  0.00  0.00    -0.083 Cl
ENDBRANCH   7   8
ENDBRANCH   6   7
ENDBRANCH   1   6
BRANCH   3  16
ATOM     16  C   UNL     1       2.291   5.685   0.214  0.00  0.00    +0.200 C 
BRANCH  16  17
ATOM     17  C   UNL     1       2.311   4.183   0.097  0.00  0.00    +0.234 C 
ATOM     18  O   UNL     1       3.369   3.589   0.093  0.00  0.00    -0.274 OA
ATOM     19  N   UNL     1       1.154   3.499  -0.003  0.00  0.00    -0.282 N 
ATOM     20  H   UNL     1       0.314   3.977  -0.082  0.00  0.00    +0.155 HD
BRANCH  19  21
ATOM     21  C   UNL     1       1.165   2.098   0.006  0.00  0.00    +0.072 A 
ATOM     22  C   UNL     1       2.212   1.415   0.611  0.00  0.00    +0.029 A 
ATOM     23  C   UNL     1       2.222   0.033   0.620  0.00  0.00    +0.043 A 
ATOM     24  C   UNL     1       1.190  -0.673   0.026  0.00  0.00    +0.161 A 
ATOM     25  C   UNL     1       0.143   0.005  -0.579  0.00  0.00    +0.195 A 
ATOM     26  C   UNL     1       0.129   1.389  -0.590  0.00  0.00    +0.182 A 
ATOM     27  F   UNL     1      -0.888   2.051  -1.185  0.00  0.00    -0.200 F 
ATOM     28  F   UNL     1      -0.863  -0.686  -1.159  0.00  0.00    -0.199 F 
ATOM     29  F   UNL     1       1.204  -2.024   0.036  0.00  0.00    -0.202 F 
ENDBRANCH  19  21
ENDBRANCH  16  17
ENDBRANCH   3  16
TORSDOF 6
