REMARK  Name = ZINC14606497
REMARK  7 active torsions:
REMARK  status: ('A' for Active; 'I' for Inactive)
REMARK    1  A    between atoms: C_1  and  C_2
REMARK    2  A    between atoms: C_2  and  C_34
REMARK    3  A    between atoms: C_6  and  C_26
REMARK    4  A    between atoms: N_8  and  C_16
REMARK    5  A    between atoms: C_16  and  C_17
REMARK    6  A    between atoms: N_19  and  C_20
REMARK    7  A    between atoms: C_20  and  C_21
REMARK                            x       y       z     vdW  Elec       q    Type
REMARK                         _______ _______ _______ _____ _____    ______ ____
ROOT
ATOM      1  C   UNL     1       8.720   8.203   3.814  0.00  0.00    +0.011 C 
ATOM      2  C   UNL     1       8.299   9.537   4.433  0.00  0.00    -0.023 C 
ATOM      3  C   UNL     1       7.269  10.222   3.535  0.00  0.00    +0.058 C 
ATOM      4  C   UNL     1       6.041   9.344   3.391  0.00  0.00    +0.017 C 
ATOM      5  C   UNL     1       5.658   8.521   4.382  0.00  0.00    +0.037 C 
ATOM      6  C   UNL     1       4.485   7.569   4.352  0.00  0.00    +0.146 C 
ATOM      7  N   UNL     1       3.893   7.365   3.050  0.00  0.00    -0.308 N 
ATOM      8  C   UNL     1       3.243   8.480   2.535  0.00  0.00    +0.052 A 
ATOM      9  C   UNL     1       1.858   8.507   2.425  0.00  0.00    +0.025 A 
ATOM     10  C   UNL     1       1.238   9.637   1.924  0.00  0.00    +0.002 A 
ATOM     11  C   UNL     1       1.985  10.734   1.537  0.00  0.00    +0.002 A 
ATOM     12  C   UNL     1       3.365  10.708   1.639  0.00  0.00    +0.025 A 
ATOM     13  C   UNL     1       3.986   9.571   2.132  0.00  0.00    +0.052 A 
ATOM     14  N   UNL     1       5.371   9.470   2.215  0.00  0.00    -0.316 N 
ATOM     15  C   UNL     1       6.400   8.474   5.587  0.00  0.00    +0.163 C 
ATOM     16  O   UNL     1       6.020   7.745   6.482  0.00  0.00    -0.292 OA
ATOM     17  C   UNL     1       7.639   9.292   5.795  0.00  0.00    +0.086 C 
ATOM     18  C   UNL     1       9.522  10.440   4.604  0.00  0.00    +0.011 C 
ATOM     19  H   UNL     1       5.885   9.492   1.393  0.00  0.00    +0.152 HD
ENDROOT
BRANCH   6  20
ATOM     20  C   UNL     1       4.944   6.234   4.879  0.00  0.00    +0.015 A 
ATOM     21  C   UNL     1       4.867   5.741   6.139  0.00  0.00    +0.013 A 
ATOM     22  C   UNL     1       5.358   4.475   6.396  0.00  0.00    +0.008 A 
ATOM     23  C   UNL     1       5.902   3.763   5.379  0.00  0.00    +0.045 A 
ATOM     24  S   UNL     1       5.724   4.888   4.004  0.00  0.00    -0.099 S 
ENDBRANCH   6  20
BRANCH   7  25
ATOM     25  C   UNL     1       3.007   6.194   3.053  0.00  0.00    +0.201 C 
BRANCH  25  26
ATOM     26  C   UNL     1       2.690   5.800   1.633  0.00  0.00    +0.231 C 
ATOM     27  O   UNL     1       3.157   6.433   0.710  0.00  0.00    -0.274 OA
ATOM     28  N   UNL     1       1.888   4.744   1.389  0.00  0.00    -0.307 N 
ATOM     29  H   UNL     1       1.515   4.238   2.128  0.00  0.00    +0.149 HD
BRANCH  28  30
ATOM     30  C   UNL     1       1.581   4.361   0.009  0.00  0.00    +0.178 C 
BRANCH  30  31
ATOM     31  C   UNL     1       0.671   3.160   0.012  0.00  0.00    +0.122 A 
ATOM     32  C   UNL     1      -0.673   3.191   0.025  0.00  0.00    +0.046 A 
ATOM     33  C   UNL     1      -1.114   1.848   0.017  0.00  0.00    +0.041 A 
ATOM     34  C   UNL     1      -0.013   1.076   0.008  0.00  0.00    +0.195 A 
ATOM     35  O   UNL     1       1.066   1.876   0.002  0.00  0.00    -0.466 OA
ENDBRANCH  30  31
ENDBRANCH  28  30
ENDBRANCH  25  26
ENDBRANCH   7  25
TORSDOF 5
