REMARK  Name = ZINC63258829
REMARK  10 active torsions:
REMARK  status: ('A' for Active; 'I' for Inactive)
REMARK    1  A    between atoms: C_7  and  C_10
REMARK    2  A    between atoms: C_10  and  C_11
REMARK    3  A    between atoms: C_11  and  C_13
REMARK    4  A    between atoms: C_11  and  N_28
REMARK    5  A    between atoms: C_13  and  O_15
REMARK    6  A    between atoms: O_15  and  C_16
REMARK    7  A    between atoms: C_16  and  C_17
REMARK    8  A    between atoms: C_17  and  C_19
REMARK    9  A    between atoms: C_22  and  N_25
REMARK   10  A    between atoms: C_29  and  C_31
REMARK                            x       y       z     vdW  Elec       q    Type
REMARK                         _______ _______ _______ _____ _____    ______ ____
ROOT
ATOM      1  C   UNL     1       0.457  -3.653  -1.462  0.00  0.00    +0.186 C 
ENDROOT
BRANCH   1   2
ATOM      2  N   UNL     1      -0.238  -2.603  -2.210  0.00  0.00    -0.298 N 
ATOM      3  C   UNL     1      -1.451  -2.176  -1.805  0.00  0.00    +0.246 C 
ATOM      4  O   UNL     1      -1.968  -2.663  -0.819  0.00  0.00    -0.270 OA
ATOM      5  H   UNL     1       0.175  -2.214  -2.997  0.00  0.00    +0.150 HD
BRANCH   3   6
ATOM      6  C   UNL     1      -2.151  -1.117  -2.560  0.00  0.00    +0.055 A 
ATOM      7  C   UNL     1      -1.563  -0.559  -3.697  0.00  0.00    +0.014 A 
ATOM      8  C   UNL     1      -2.222   0.429  -4.397  0.00  0.00    +0.001 A 
ATOM      9  C   UNL     1      -3.465   0.869  -3.975  0.00  0.00    +0.001 A 
ATOM     10  C   UNL     1      -4.055   0.323  -2.851  0.00  0.00    +0.021 A 
ATOM     11  C   UNL     1      -3.409  -0.672  -2.143  0.00  0.00    +0.053 A 
ATOM     12 CL   UNL     1      -4.153  -1.363  -0.735  0.00  0.00    -0.083 Cl
ENDBRANCH   3   6
ENDBRANCH   1   2
BRANCH   1  13
ATOM     13  C   UNL     1      -0.385  -4.904  -1.452  0.00  0.00    +0.328 C 
ATOM     14  O   UNL     1      -1.570  -4.836  -1.678  0.00  0.00    -0.249 OA
BRANCH  13  15
ATOM     15  O   UNL     1       0.182  -6.092  -1.194  0.00  0.00    -0.455 OA
BRANCH  15  16
ATOM     16  C   UNL     1      -0.675  -7.236  -1.201  0.00  0.00    +0.311 C 
BRANCH  16  17
ATOM     17  C   UNL     1       0.132  -8.470  -0.892  0.00  0.00    +0.200 C 
ATOM     18  O   UNL     1       1.323  -8.380  -0.686  0.00  0.00    -0.288 OA
BRANCH  17  19
ATOM     19  C   UNL     1      -0.526  -9.786  -0.841  0.00  0.00    +0.021 A 
ATOM     20  C   UNL     1      -1.899  -9.895  -1.084  0.00  0.00    +0.014 A 
ATOM     21  C   UNL     1      -2.509 -11.130  -1.034  0.00  0.00    +0.033 A 
ATOM     22  C   UNL     1      -1.765 -12.261  -0.745  0.00  0.00    +0.126 A 
ATOM     23  C   UNL     1      -0.406 -12.162  -0.503  0.00  0.00    +0.033 A 
ATOM     24  C   UNL     1       0.219 -10.934  -0.555  0.00  0.00    +0.014 A 
BRANCH  22  25
ATOM     25  N   UNL     1      -2.427 -13.584  -0.692  0.00  0.00    +0.056 N 
ATOM     26  O   UNL     1      -3.615 -13.675  -0.902  0.00  0.00    -0.126 OA
ATOM     27  O   UNL     1      -1.781 -14.574  -0.439  0.00  0.00    -0.126 OA
ENDBRANCH  22  25
ENDBRANCH  17  19
ENDBRANCH  16  17
ENDBRANCH  15  16
ENDBRANCH  13  15
ENDBRANCH   1  13
BRANCH   1  28
ATOM     28  C   UNL     1       0.691  -3.186  -0.024  0.00  0.00    +0.067 C 
BRANCH  28  35
ATOM     29  C   UNL     1      -0.016   1.348   0.009  0.00  0.00    +0.001 A 
ATOM     30  C   UNL     1       1.166   2.101   0.002  0.00  0.00    +0.002 A 
ATOM     31  C   UNL     1       2.391   1.535  -0.013  0.00  0.00    +0.026 A 
ATOM     32  C   UNL     1       2.529   0.120  -0.022  0.00  0.00    +0.043 A 
ATOM     33  N   UNL     1       3.587  -0.654  -0.037  0.00  0.00    -0.380 N 
ATOM     34  C   UNL     1       3.143  -2.053  -0.041  0.00  0.00    +0.144 C 
ATOM     35  C   UNL     1       1.631  -2.008  -0.025  0.00  0.00    -0.039 C 
ATOM     36  C   UNL     1       1.295  -0.698  -0.014  0.00  0.00    -0.001 A 
ATOM     37  C   UNL     1       0.002  -0.004   0.002  0.00  0.00    +0.010 A 
ATOM     38  H   UNL     1       4.509  -0.353  -0.045  0.00  0.00    +0.160 HD
ENDBRANCH  28  35
ENDBRANCH   1  28
TORSDOF 10
