REMARK  Name = ZINC38737405
REMARK  9 active torsions:
REMARK  status: ('A' for Active; 'I' for Inactive)
REMARK    1  A    between atoms: C_1  and  C_2
REMARK    2  A    between atoms: C_2  and  O_3
REMARK    3  A    between atoms: O_3  and  C_4
REMARK    4  A    between atoms: C_4  and  C_6
REMARK    5  A    between atoms: C_12  and  N_14
REMARK    6  A    between atoms: C_15  and  C_17
REMARK    7  A    between atoms: C_20  and  N_23
REMARK    8  A    between atoms: C_24  and  N_35
REMARK    9  A    between atoms: C_26  and  C_28
REMARK                            x       y       z     vdW  Elec       q    Type
REMARK                         _______ _______ _______ _____ _____    ______ ____
ROOT
ATOM      1  C   UNL     1      -1.628  -6.024  -1.880  0.00  0.00    +0.037 A 
ATOM      2  C   UNL     1      -2.648  -5.236  -2.418  0.00  0.00    +0.015 A 
ATOM      3  C   UNL     1      -3.951  -5.681  -2.387  0.00  0.00    +0.028 A 
ATOM      4  C   UNL     1      -4.252  -6.915  -1.820  0.00  0.00    +0.067 A 
ATOM      5  C   UNL     1      -3.239  -7.703  -1.283  0.00  0.00    +0.028 A 
ATOM      6  C   UNL     1      -1.934  -7.266  -1.316  0.00  0.00    +0.015 A 
ENDROOT
BRANCH   4   7
ATOM      7  N   UNL     1      -5.574  -7.363  -1.789  0.00  0.00    -0.218 N 
ATOM      8  C   UNL     1      -5.985  -8.657  -1.914  0.00  0.00    +0.120 A 
ATOM      9  C   UNL     1      -7.341  -8.669  -1.830  0.00  0.00    +0.073 A 
ATOM     10  C   UNL     1      -7.773  -7.341  -1.648  0.00  0.00    +0.095 A 
ATOM     11  N   UNL     1      -6.711  -6.563  -1.617  0.00  0.00    -0.165 NA
BRANCH  10  12
ATOM     12  C   UNL     1      -9.182  -6.896  -1.507  0.00  0.00    +0.004 A 
ATOM     13  C   UNL     1     -10.217  -7.828  -1.545  0.00  0.00    +0.010 A 
ATOM     14  C   UNL     1     -11.525  -7.409  -1.413  0.00  0.00    +0.002 A 
ATOM     15  C   UNL     1     -11.811  -6.066  -1.244  0.00  0.00    +0.020 A 
ATOM     16  C   UNL     1     -10.787  -5.136  -1.206  0.00  0.00    +0.042 A 
ATOM     17  C   UNL     1      -9.473  -5.545  -1.331  0.00  0.00    +0.030 A 
ATOM     18 CL   UNL     1     -11.154  -3.452  -0.994  0.00  0.00    -0.084 Cl
ENDBRANCH  10  12
BRANCH   8  19
ATOM     19  N   UNL     1      -5.163  -9.765  -2.095  0.00  0.00    -0.343 N 
ATOM     20  H   UNL     1      -4.201  -9.653  -2.143  0.00  0.00    +0.144 HD
ATOM     21  H   UNL     1      -5.553 -10.650  -2.174  0.00  0.00    +0.144 HD
ENDBRANCH   8  19
ENDBRANCH   4   7
BRANCH   1  23
ATOM     22  N   UNL     1       0.062  -4.353  -2.457  0.00  0.00    -0.308 N 
ATOM     23  C   UNL     1      -0.231  -5.550  -1.912  0.00  0.00    +0.244 C 
ATOM     24  O   UNL     1       0.656  -6.240  -1.448  0.00  0.00    -0.270 OA
ATOM     25  H   UNL     1      -0.645  -3.802  -2.827  0.00  0.00    +0.149 HD
BRANCH  22  31
ATOM     26  C   UNL     1       1.468  -2.353  -2.550  0.00  0.00    +0.118 C 
ATOM     27  C   UNL     1       0.741  -1.885  -3.812  0.00  0.00    +0.016 C 
ATOM     28  C   UNL     1       1.444  -2.453  -5.046  0.00  0.00    +0.001 C 
ATOM     29  C   UNL     1       1.425  -3.982  -4.985  0.00  0.00    +0.002 C 
ATOM     30  C   UNL     1       2.152  -4.451  -3.723  0.00  0.00    +0.023 C 
ATOM     31  C   UNL     1       1.449  -3.882  -2.489  0.00  0.00    +0.087 C 
BRANCH  26  32
ATOM     32  C   UNL     1       0.775  -1.794  -1.334  0.00  0.00    +0.312 C 
ATOM     33  O   UNL     1       0.314  -2.540  -0.504  0.00  0.00    -0.250 OA
BRANCH  32  34
ATOM     34  O   UNL     1       0.671  -0.465  -1.174  0.00  0.00    -0.465 OA
BRANCH  34  36
ATOM     35  C   UNL     1      -0.019   1.526   0.010  0.00  0.00    +0.048 C 
ATOM     36  C   UNL     1       0.002  -0.004   0.002  0.00  0.00    +0.229 C 
ENDBRANCH  34  36
ENDBRANCH  32  34
ENDBRANCH  26  32
ENDBRANCH  22  31
ENDBRANCH   1  23
TORSDOF 8
