REMARK  Name = ZINC40592669
REMARK  9 active torsions:
REMARK  status: ('A' for Active; 'I' for Inactive)
REMARK    1  A    between atoms: C_1  and  C_2
REMARK    2  A    between atoms: C_7  and  N_8
REMARK    3  A    between atoms: C_10  and  N_26
REMARK    4  A    between atoms: C_11  and  N_15
REMARK    5  A    between atoms: N_15  and  C_16
REMARK    6  A    between atoms: C_18  and  C_24
REMARK    7  A    between atoms: C_18  and  C_25
REMARK    8  A    between atoms: C_20  and  C_22
REMARK    9  A    between atoms: C_20  and  C_23
REMARK                            x       y       z     vdW  Elec       q    Type
REMARK                         _______ _______ _______ _____ _____    ______ ____
ROOT
ATOM      1  N   UNL     1       0.789  -0.337   2.978  0.00  0.00    -0.297 N 
ATOM      2  C   UNL     1       0.509  -1.022   4.151  0.00  0.00    +0.159 A 
ATOM      3  C   UNL     1       0.306  -0.331   5.342  0.00  0.00    +0.205 A 
ATOM      4  C   UNL     1       0.028  -1.065   6.491  0.00  0.00    +0.155 A 
ATOM      5  N   UNL     1      -0.033  -2.393   6.410  0.00  0.00    -0.218 NA
ATOM      6  C   UNL     1       0.165  -3.010   5.264  0.00  0.00    +0.225 A 
ATOM      7  N   UNL     1       0.425  -2.351   4.153  0.00  0.00    -0.218 NA
ATOM      8  H   UNL     1       0.757   0.633   2.963  0.00  0.00    +0.154 HD
ENDROOT
BRANCH   1  15
ATOM      9  C   UNL     1       0.166   0.845   0.466  0.00  0.00    +0.045 C 
ATOM     10  C   UNL     1       0.831  -0.503   0.570  0.00  0.00    -0.029 A 
ATOM     11  C   UNL     1       1.161  -1.200  -0.576  0.00  0.00    +0.006 A 
ATOM     12  C   UNL     1       1.771  -2.437  -0.483  0.00  0.00    +0.020 A 
ATOM     13  C   UNL     1       2.054  -2.981   0.759  0.00  0.00    +0.043 A 
ATOM     14  C   UNL     1       1.725  -2.288   1.909  0.00  0.00    +0.043 A 
ATOM     15  C   UNL     1       1.117  -1.043   1.817  0.00  0.00    +0.037 A 
ATOM     16 CL   UNL     1       2.820  -4.535   0.871  0.00  0.00    -0.083 Cl
ENDBRANCH   1  15
BRANCH   3  17
ATOM     17  N   UNL     1       0.384   1.147   5.385  0.00  0.00    +0.063 N 
ATOM     18  O   UNL     1      -0.608   1.811   5.192  0.00  0.00    -0.126 OA
ATOM     19  O   UNL     1       1.440   1.690   5.612  0.00  0.00    -0.126 OA
ENDBRANCH   3  17
BRANCH   4  20
ATOM     20  N   UNL     1      -0.181  -0.423   7.702  0.00  0.00    -0.324 N 
ATOM     21  H   UNL     1      -0.135   0.545   7.752  0.00  0.00    +0.148 HD
BRANCH  20  22
ATOM     22  C   UNL     1      -0.474  -1.208   8.908  0.00  0.00    +0.069 C 
ATOM     23  C   UNL     1      -1.980  -1.462   8.988  0.00  0.00    +0.009 C 
ATOM     24  C   UNL     1      -2.303  -2.268  10.246  0.00  0.00    -0.072 C 
ATOM     25  N   UNL     1      -1.778  -1.641  11.449  0.00  0.00    +0.386 N 
ATOM     26  C   UNL     1      -0.404  -1.167  11.419  0.00  0.00    -0.072 C 
ATOM     27  C   UNL     1      -0.056  -0.410  10.142  0.00  0.00    +0.009 C 
ATOM     28  C   UNL     1       0.594  -2.308  11.637  0.00  0.00    -0.010 C 
ATOM     29  C   UNL     1      -0.226  -0.181  12.599  0.00  0.00    -0.010 C 
ATOM     30  C   UNL     1      -1.817  -3.709  10.089  0.00  0.00    -0.010 C 
ATOM     31  C   UNL     1      -3.843  -2.316  10.377  0.00  0.00    -0.010 C 
ATOM     32  H   UNL     1      -2.385  -0.853  11.691  0.00  0.00    -0.084 HD
ATOM     33  H   UNL     1      -1.875  -2.301  12.224  0.00  0.00    -0.084 HD
ENDBRANCH  20  22
ENDBRANCH   4  20
TORSDOF 4
