REMARK  Name = ZINC39711536
REMARK  14 active torsions:
REMARK  status: ('A' for Active; 'I' for Inactive)
REMARK    1  A    between atoms: C_1  and  C_2
REMARK    2  A    between atoms: C_2  and  O_3
REMARK    3  A    between atoms: O_3  and  C_4
REMARK    4  A    between atoms: C_11  and  C_16
REMARK    5  A    between atoms: C_16  and  C_18
REMARK    6  A    between atoms: C_16  and  N_27
REMARK    7  A    between atoms: N_22  and  C_23
REMARK    8  A    between atoms: C_23  and  C_24
REMARK    9  A    between atoms: C_24  and  O_25
REMARK   10  A    between atoms: O_25  and  C_26
REMARK   11  A    between atoms: N_27  and  C_28
REMARK   12  A    between atoms: N_27  and  C_35
REMARK   13  A    between atoms: C_28  and  C_29
REMARK   14  A    between atoms: C_35  and  C_36
REMARK                            x       y       z     vdW  Elec       q    Type
REMARK                         _______ _______ _______ _____ _____    ______ ____
ROOT
ATOM      1  C   UNL     1       3.595  -6.606  -3.538  0.00  0.00    +0.019 C 
ENDROOT
BRANCH   1   9
ATOM      2  C   UNL     1      -1.561  -4.013  -2.652  0.00  0.00    +0.121 A 
ATOM      3  C   UNL     1      -2.026  -5.095  -1.894  0.00  0.00    +0.047 A 
ATOM      4  C   UNL     1      -1.381  -6.288  -1.850  0.00  0.00    +0.027 A 
ATOM      5  C   UNL     1      -0.194  -6.488  -2.579  0.00  0.00    +0.041 A 
ATOM      6  N   UNL     1       0.430  -7.665  -2.526  0.00  0.00    -0.285 N 
ATOM      7  C   UNL     1       1.547  -7.921  -3.185  0.00  0.00    +0.223 C 
ATOM      8  O   UNL     1       2.071  -9.016  -3.098  0.00  0.00    -0.275 OA
ATOM      9  C   UNL     1       2.172  -6.848  -4.047  0.00  0.00    +0.092 C 
ATOM     10  C   UNL     1       1.468  -5.507  -4.111  0.00  0.00    -0.006 C 
ATOM     11  C   UNL     1       0.322  -5.368  -3.386  0.00  0.00    -0.004 A 
ATOM     12  C   UNL     1      -0.424  -4.109  -3.396  0.00  0.00    +0.055 A 
ATOM     13  H   UNL     1       0.045  -8.367  -1.978  0.00  0.00    +0.155 HD
BRANCH   2  14
ATOM     14  O   UNL     1      -2.259  -2.847  -2.648  0.00  0.00    -0.492 OA
BRANCH  14  16
ATOM     15  C   UNL     1      -4.089  -1.421  -1.972  0.00  0.00    +0.048 C 
ATOM     16  C   UNL     1      -3.444  -2.803  -1.850  0.00  0.00    +0.225 C 
ENDBRANCH  14  16
ENDBRANCH   2  14
ENDBRANCH   1   9
BRANCH   1  17
ATOM     17  C   UNL     1       3.548  -6.217  -2.083  0.00  0.00    +0.139 A 
ATOM     18  N   UNL     1       3.290  -7.007  -1.069  0.00  0.00    -0.115 NA
ATOM     19  N   UNL     1       3.344  -6.303   0.008  0.00  0.00    -0.023 NA
ATOM     20  N   UNL     1       3.631  -5.084  -0.291  0.00  0.00    -0.044 NA
ATOM     21  N   UNL     1       3.770  -4.992  -1.571  0.00  0.00    -0.229 N 
BRANCH  21  22
ATOM     22  C   UNL     1       4.103  -3.781  -2.325  0.00  0.00    +0.175 C 
BRANCH  22  23
ATOM     23  C   UNL     1       2.830  -2.969  -2.573  0.00  0.00    +0.183 C 
BRANCH  23  24
ATOM     24  O   UNL     1       3.135  -1.847  -3.404  0.00  0.00    -0.381 OA
ATOM     25  C   UNL     1       2.009  -1.018  -3.698  0.00  0.00    +0.194 C 
ENDBRANCH  23  24
ENDBRANCH  22  23
ENDBRANCH  21  22
ENDBRANCH   1  17
BRANCH   1  26
ATOM     26  N   UNL     1       4.385  -7.834  -3.691  0.00  0.00    +0.394 N 
ATOM     27  H   UNL     1       4.034  -8.541  -3.062  0.00  0.00    -0.080 HD
BRANCH  26  28
ATOM     28  C   UNL     1       4.280  -8.315  -5.075  0.00  0.00    -0.041 C 
BRANCH  28  29
ATOM     29  C   UNL     1       5.050  -9.602  -5.220  0.00  0.00    -0.064 A 
ATOM     30  C   UNL     1       6.387  -9.572  -5.571  0.00  0.00    +0.002 A 
ATOM     31  C   UNL     1       7.093 -10.753  -5.704  0.00  0.00    +0.000 A 
ATOM     32  C   UNL     1       6.463 -11.963  -5.486  0.00  0.00    +0.000 A 
ATOM     33  C   UNL     1       5.127 -11.993  -5.134  0.00  0.00    +0.000 A 
ATOM     34  C   UNL     1       4.421 -10.812  -4.997  0.00  0.00    +0.002 A 
ENDBRANCH  28  29
ENDBRANCH  26  28
BRANCH  26  35
ATOM     35  C   UNL     1       5.793  -7.554  -3.376  0.00  0.00    -0.002 C 
BRANCH  35  36
ATOM     36  C   UNL     1       5.930  -7.267  -1.903  0.00  0.00    +0.089 A 
ATOM     37  C   UNL     1       6.012  -8.189  -0.926  0.00  0.00    +0.042 A 
ATOM     38  C   UNL     1       6.129  -7.484   0.293  0.00  0.00    +0.041 A 
ATOM     39  C   UNL     1       6.111  -6.173  -0.010  0.00  0.00    +0.195 A 
ATOM     40  O   UNL     1       5.996  -6.048  -1.343  0.00  0.00    -0.470 OA
ENDBRANCH  35  36
ENDBRANCH  26  35
ENDBRANCH   1  26
TORSDOF 12
