REMARK  Name = ZINC58997385
REMARK  9 active torsions:
REMARK  status: ('A' for Active; 'I' for Inactive)
REMARK    1  A    between atoms: C_1  and  C_2
REMARK    2  A    between atoms: C_7  and  N_8
REMARK    3  A    between atoms: C_9  and  C_11
REMARK    4  A    between atoms: C_11  and  S_12
REMARK    5  A    between atoms: S_12  and  C_13
REMARK    6  A    between atoms: N_18  and  N_19
REMARK    7  A    between atoms: C_20  and  C_21
REMARK    8  A    between atoms: C_23  and  N_28
REMARK    9  A    between atoms: C_26  and  O_27
REMARK                            x       y       z     vdW  Elec       q    Type
REMARK                         _______ _______ _______ _____ _____    ______ ____
ROOT
ATOM      1  C   UNL     1      -0.386  -0.116   7.687  0.00  0.00    +0.211 A 
ATOM      2  N   UNL     1      -0.472  -0.549   8.939  0.00  0.00    -0.186 NA
ATOM      3  C   UNL     1      -0.550   0.519   9.728  0.00  0.00    +0.232 A 
ATOM      4  N   UNL     1      -0.508   1.625   8.917  0.00  0.00    -0.245 N 
ATOM      5  N   UNL     1      -0.404   1.220   7.698  0.00  0.00    -0.144 NA
ATOM      6  N   UNL     1      -0.652   0.516  11.073  0.00  0.00    -0.205 N 
ATOM      7  H   UNL     1      -0.703   1.354  11.557  0.00  0.00    +0.177 HD
ATOM      8  H   UNL     1      -0.547   2.549   9.210  0.00  0.00    +0.192 HD
ENDROOT
BRANCH   6   9
ATOM      9  N   UNL     1      -0.680  -0.603  11.714  0.00  0.00    -0.187 NA
ATOM     10  C   UNL     1      -0.780  -0.606  13.041  0.00  0.00    +0.142 C 
BRANCH  10  11
ATOM     11  C   UNL     1      -0.812  -1.825  13.741  0.00  0.00    +0.038 A 
ATOM     12  C   UNL     1      -0.924  -1.844  15.149  0.00  0.00    +0.045 A 
ATOM     13  C   UNL     1      -0.953  -3.033  15.811  0.00  0.00    +0.127 A 
ATOM     14  C   UNL     1      -0.874  -4.242  15.126  0.00  0.00    +0.036 A 
ATOM     15  C   UNL     1      -0.763  -4.281  13.751  0.00  0.00    +0.048 A 
ATOM     16  C   UNL     1      -0.735  -3.100  13.023  0.00  0.00    +0.126 A 
BRANCH  13  17
ATOM     17  N   UNL     1      -1.070  -3.040  17.286  0.00  0.00    +0.056 N 
ATOM     18  O   UNL     1      -1.145  -1.903  17.947  0.00  0.00    -0.126 OA
ATOM     19  O   UNL     1      -1.099  -4.184  17.939  0.00  0.00    -0.126 OA
ENDBRANCH  13  17
BRANCH  16  20
ATOM     20  O   UNL     1      -0.632  -3.125  11.674  0.00  0.00    -0.506 OA
ATOM     21  H   UNL     1       0.279  -3.117  11.348  0.00  0.00    +0.292 HD
ENDBRANCH  16  20
ENDBRANCH  10  11
ENDBRANCH   6   9
BRANCH   1  22
ATOM     22  S   UNL     1      -0.260  -1.131   6.253  0.00  0.00    -0.075 S 
BRANCH  22  23
ATOM     23  C   UNL     1      -0.169   0.054   4.882  0.00  0.00    +0.173 C 
BRANCH  23  25
ATOM     24  N   UNL     1       0.025  -0.014   2.417  0.00  0.00    -0.285 N 
ATOM     25  C   UNL     1      -0.057  -0.693   3.578  0.00  0.00    +0.227 C 
ATOM     26  O   UNL     1      -0.040  -1.906   3.574  0.00  0.00    -0.275 OA
ATOM     27  H   UNL     1       0.077   0.955   2.425  0.00  0.00    +0.155 HD
BRANCH  24  34
ATOM     28  C   UNL     1      -1.265   1.183   0.181  0.00  0.00    +0.046 C 
ATOM     29  C   UNL     1      -0.584  -0.158   0.084  0.00  0.00    -0.028 A 
ATOM     30  C   UNL     1      -0.569  -0.841  -1.116  0.00  0.00    +0.025 A 
ATOM     31  C   UNL     1       0.056  -2.072  -1.206  0.00  0.00    +0.041 A 
ATOM     32  C   UNL     1       0.668  -2.623  -0.093  0.00  0.00    +0.022 A 
ATOM     33  C   UNL     1       0.656  -1.944   1.109  0.00  0.00    +0.025 A 
ATOM     34  C   UNL     1       0.034  -0.706   1.201  0.00  0.00    +0.036 A 
ATOM     35 CL   UNL     1       0.072  -2.928  -2.716  0.00  0.00    -0.084 Cl
ENDBRANCH  24  34
ENDBRANCH  23  25
ENDBRANCH  22  23
ENDBRANCH   1  22
TORSDOF 8
