REMARK  Name = ZINC62388751
REMARK  8 active torsions:
REMARK  status: ('A' for Active; 'I' for Inactive)
REMARK    1  A    between atoms: C_1  and  C_2
REMARK    2  A    between atoms: C_2  and  C_3
REMARK    3  A    between atoms: C_2  and  N_12
REMARK    4  A    between atoms: N_5  and  C_6
REMARK    5  A    between atoms: C_6  and  C_7
REMARK    6  A    between atoms: N_15  and  C_16
REMARK    7  A    between atoms: C_21  and  S_22
REMARK    8  A    between atoms: S_22  and  C_23
REMARK                            x       y       z     vdW  Elec       q    Type
REMARK                         _______ _______ _______ _____ _____    ______ ____
ROOT
ATOM      1  N   UNL     1      -1.366  -0.527   0.010  0.00  0.00    -0.288 N 
ATOM      2  C   UNL     1      -2.049  -0.649  -1.146  0.00  0.00    +0.304 C 
ATOM      3  O   UNL     1      -1.522  -0.343  -2.198  0.00  0.00    -0.252 OA
ATOM      4  N   UNL     1      -3.315  -1.109  -1.135  0.00  0.00    -0.268 N 
ATOM      5  H   UNL     1      -1.786  -0.771   0.849  0.00  0.00    +0.151 HD
ATOM      6  H   UNL     1      -3.713  -1.414  -0.305  0.00  0.00    +0.156 HD
ENDROOT
BRANCH   4   7
ATOM      7  C   UNL     1      -4.057  -1.148  -2.324  0.00  0.00    +0.048 A 
ATOM      8  C   UNL     1      -3.428  -1.425  -3.528  0.00  0.00    +0.024 A 
ATOM      9  C   UNL     1      -4.161  -1.462  -4.699  0.00  0.00    +0.002 A 
ATOM     10  C   UNL     1      -5.523  -1.223  -4.675  0.00  0.00    +0.001 A 
ATOM     11  C   UNL     1      -6.160  -0.946  -3.480  0.00  0.00    +0.016 A 
ATOM     12  C   UNL     1      -5.432  -0.913  -2.298  0.00  0.00    +0.029 A 
BRANCH  12  13
ATOM     13  S   UNL     1      -6.242  -0.568  -0.772  0.00  0.00    -0.120 S 
BRANCH  13  14
ATOM     14  C   UNL     1      -7.980  -0.340  -1.238  0.00  0.00    +0.051 C 
ATOM     15  C   UNL     1      -8.137   0.945  -2.077  0.00  0.00    +0.014 C 
ATOM     16  C   UNL     1      -9.493   1.536  -1.617  0.00  0.00    +0.001 C 
ATOM     17  C   UNL     1      -9.495   1.242  -0.096  0.00  0.00    +0.001 C 
ATOM     18  C   UNL     1      -8.843  -0.151   0.021  0.00  0.00    +0.014 C 
ENDBRANCH  13  14
ENDBRANCH  12  13
ENDBRANCH   4   7
BRANCH   1  20
ATOM     19  C   UNL     1      -0.003   1.503   0.015  0.00  0.00    +0.038 C 
ATOM     20  C   UNL     1       0.011  -0.026  -0.002  0.00  0.00    +0.157 C 
BRANCH  20  21
ATOM     21  C   UNL     1       0.741  -0.536   1.214  0.00  0.00    +0.233 C 
ATOM     22  O   UNL     1       0.168  -1.247   2.012  0.00  0.00    -0.274 OA
ATOM     23  N   UNL     1       2.031  -0.202   1.415  0.00  0.00    -0.307 N 
ATOM     24  H   UNL     1       2.489   0.367   0.777  0.00  0.00    +0.149 HD
BRANCH  23  25
ATOM     25  C   UNL     1       2.741  -0.697   2.597  0.00  0.00    +0.178 C 
BRANCH  25  26
ATOM     26  C   UNL     1       4.157  -0.182   2.585  0.00  0.00    +0.122 A 
ATOM     27  C   UNL     1       4.581   0.966   3.143  0.00  0.00    +0.046 A 
ATOM     28  C   UNL     1       5.971   1.053   2.895  0.00  0.00    +0.041 A 
ATOM     29  C   UNL     1       6.312  -0.047   2.200  0.00  0.00    +0.195 A 
ATOM     30  O   UNL     1       5.210  -0.795   2.021  0.00  0.00    -0.466 OA
ENDBRANCH  25  26
ENDBRANCH  23  25
ENDBRANCH  20  21
ENDBRANCH   1  20
TORSDOF 7
