REMARK  Name = ZINC21912593
REMARK  8 active torsions:
REMARK  status: ('A' for Active; 'I' for Inactive)
REMARK    1  A    between atoms: C_1  and  C_2
REMARK    2  A    between atoms: C_2  and  C_4
REMARK    3  A    between atoms: C_2  and  N_11
REMARK    4  A    between atoms: C_12  and  C_14
REMARK    5  A    between atoms: C_14  and  C_16
REMARK    6  A    between atoms: C_14  and  N_27
REMARK    7  A    between atoms: C_16  and  C_17
REMARK    8  A    between atoms: C_28  and  C_30
REMARK                            x       y       z     vdW  Elec       q    Type
REMARK                         _______ _______ _______ _____ _____    ______ ____
ROOT
ATOM      1  C   UNL     1      -5.450   1.590   2.398  0.00  0.00    +0.163 C 
ENDROOT
BRANCH   1   3
ATOM      2  N   UNL     1      -3.470   1.632   0.916  0.00  0.00    -0.307 N 
ATOM      3  C   UNL     1      -4.466   0.917   1.476  0.00  0.00    +0.234 C 
ATOM      4  O   UNL     1      -4.569  -0.268   1.240  0.00  0.00    -0.274 OA
ATOM      5  H   UNL     1      -3.377   2.707   1.131  0.00  0.00    +0.149 HD
BRANCH   2   7
ATOM      6  C   UNL     1      -3.087   0.940  -1.398  0.00  0.00    +0.033 C 
ATOM      7  C   UNL     1      -2.513   0.978   0.020  0.00  0.00    +0.100 C 
BRANCH   7   8
ATOM      8  C   UNL     1      -1.219   1.750   0.017  0.00  0.00    -0.027 A 
ATOM      9  C   UNL     1      -0.013   1.076   0.008  0.00  0.00    +0.008 A 
ATOM     10  C   UNL     1       1.175   1.783   0.000  0.00  0.00    +0.038 A 
ATOM     11  C   UNL     1       1.156   3.167   0.008  0.00  0.00    +0.123 A 
ATOM     12  C   UNL     1      -0.053   3.842   0.022  0.00  0.00    +0.038 A 
ATOM     13  C   UNL     1      -1.240   3.133   0.030  0.00  0.00    +0.008 A 
ATOM     14  F   UNL     1       2.316   3.859  -0.000  0.00  0.00    -0.205 F 
ENDBRANCH   7   8
ENDBRANCH   2   7
ENDBRANCH   1   3
BRANCH   1  15
ATOM     15  N   UNL     1      -6.665   0.776   2.493  0.00  0.00    -0.299 N 
ATOM     16  C   UNL     1      -6.595  -0.487   2.958  0.00  0.00    +0.251 C 
ATOM     17  O   UNL     1      -5.523  -0.952   3.298  0.00  0.00    -0.270 OA
ATOM     18  H   UNL     1      -7.634   1.196   2.186  0.00  0.00    +0.150 HD
BRANCH  16  19
ATOM     19  C   UNL     1      -7.810  -1.301   3.053  0.00  0.00    +0.074 A 
ATOM     20  C   UNL     1      -7.955  -2.606   3.498  0.00  0.00    +0.021 A 
ATOM     21  C   UNL     1      -9.221  -3.135   3.483  0.00  0.00    +0.008 A 
ATOM     22  C   UNL     1     -10.254  -2.370   3.042  0.00  0.00    +0.046 A 
ATOM     23  S   UNL     1      -9.489  -0.869   2.634  0.00  0.00    -0.092 S 
ENDBRANCH  16  19
ENDBRANCH   1  15
BRANCH   1  24
ATOM     24  C   UNL     1      -4.827   1.741   3.787  0.00  0.00    +0.069 C 
BRANCH  24  25
ATOM     25  C   UNL     1      -5.762   2.522   4.675  0.00  0.00    -0.020 A 
ATOM     26  C   UNL     1      -5.722   3.843   4.910  0.00  0.00    +0.087 A 
ATOM     27  N   UNL     1      -6.730   4.195   5.766  0.00  0.00    -0.360 N 
ATOM     28  H   UNL     1      -6.855   5.246   6.066  0.00  0.00    +0.165 HD
ATOM     29  C   UNL     1      -7.457   3.079   6.117  0.00  0.00    +0.047 A 
ATOM     30  C   UNL     1      -6.882   1.982   5.449  0.00  0.00    +0.003 A 
ATOM     31  C   UNL     1      -7.419   0.705   5.618  0.00  0.00    +0.010 A 
ATOM     32  C   UNL     1      -8.501   0.526   6.433  0.00  0.00    +0.001 A 
ATOM     33  C   UNL     1      -9.072   1.605   7.094  0.00  0.00    +0.002 A 
ATOM     34  C   UNL     1      -8.558   2.874   6.941  0.00  0.00    +0.026 A 
ENDBRANCH  24  25
ENDBRANCH   1  24
TORSDOF 7
