REMARK  Name = ZINC09447252
REMARK  7 active torsions:
REMARK  status: ('A' for Active; 'I' for Inactive)
REMARK    1  A    between atoms: C_2  and  C_3
REMARK    2  A    between atoms: C_3  and  N_4
REMARK    3  A    between atoms: C_5  and  C_27
REMARK    4  A    between atoms: C_8  and  S_9
REMARK    5  A    between atoms: S_9  and  C_10
REMARK    6  A    between atoms: C_10  and  C_11
REMARK    7  A    between atoms: N_16  and  C_17
REMARK                            x       y       z     vdW  Elec       q    Type
REMARK                         _______ _______ _______ _____ _____    ______ ____
ROOT
ATOM      1  C   UNL     1      -4.933  -2.805   1.034  0.00  0.00    +0.231 C 
ATOM      2  O   UNL     1      -4.617  -3.039  -0.113  0.00  0.00    -0.274 OA
ATOM      3  N   UNL     1      -5.777  -3.631   1.683  0.00  0.00    -0.239 N 
ATOM      4  C   UNL     1      -6.271  -4.718   1.056  0.00  0.00    +0.306 C 
ATOM      5  O   UNL     1      -5.955  -4.952  -0.094  0.00  0.00    -0.252 OA
ATOM      6  N   UNL     1      -7.115  -5.544   1.705  0.00  0.00    -0.294 N 
ATOM      7  H   UNL     1      -6.029  -3.444   2.600  0.00  0.00    +0.159 HD
ATOM      8  H   UNL     1      -7.367  -5.357   2.623  0.00  0.00    +0.151 HD
ENDROOT
BRANCH   6   9
ATOM      9  C   UNL     1      -7.652  -6.725   1.024  0.00  0.00    +0.037 C 
ATOM     10  C   UNL     1      -8.440  -6.287  -0.211  0.00  0.00    +0.029 C 
ATOM     11  C   UNL     1      -9.001  -7.520  -0.922  0.00  0.00    -0.008 C 
ATOM     12  C   UNL     1      -9.926  -8.281   0.030  0.00  0.00    +0.007 C 
ATOM     13  C   UNL     1      -9.137  -8.719   1.265  0.00  0.00    -0.008 C 
ATOM     14  C   UNL     1      -8.576  -7.486   1.976  0.00  0.00    +0.029 C 
ATOM     15  C   UNL     1      -7.984  -9.630   0.838  0.00  0.00    +0.007 C 
ATOM     16  C   UNL     1      -7.059  -8.869  -0.114  0.00  0.00    -0.008 C 
ATOM     17  C   UNL     1      -7.848  -8.431  -1.350  0.00  0.00    +0.007 C 
ATOM     18  C   UNL     1      -6.498  -7.636   0.597  0.00  0.00    +0.029 C 
ENDBRANCH   6   9
BRANCH   1  19
ATOM     19  C   UNL     1      -4.380  -1.590   1.734  0.00  0.00    +0.173 C 
BRANCH  19  20
ATOM     20  S   UNL     1      -3.286  -0.690   0.608  0.00  0.00    -0.077 S 
BRANCH  20  25
ATOM     21  N   UNL     1      -1.952   1.661   1.326  0.00  0.00    -0.298 N 
ATOM     22  C   UNL     1      -1.875   2.455   2.447  0.00  0.00    +0.165 A 
ATOM     23  N   UNL     1      -2.636   1.904   3.363  0.00  0.00    -0.128 NA
ATOM     24  N   UNL     1      -3.177   0.834   2.898  0.00  0.00    -0.122 NA
ATOM     25  C   UNL     1      -2.797   0.641   1.655  0.00  0.00    +0.193 A 
BRANCH  22  26
ATOM     26  C   UNL     1      -1.084   3.696   2.592  0.00  0.00    +0.019 A 
ATOM     27  C   UNL     1      -0.028   3.960   1.719  0.00  0.00    +0.011 A 
ATOM     28  C   UNL     1       0.703   5.122   1.857  0.00  0.00    +0.001 A 
ATOM     29  C   UNL     1       0.398   6.019   2.866  0.00  0.00    +0.000 A 
ATOM     30  C   UNL     1      -0.645   5.761   3.738  0.00  0.00    +0.001 A 
ATOM     31  C   UNL     1      -1.387   4.605   3.607  0.00  0.00    +0.011 A 
ENDBRANCH  22  26
BRANCH  21  32
ATOM     32  C   UNL     1      -1.273   1.871   0.045  0.00  0.00    +0.152 C 
BRANCH  32  34
ATOM     33  C   UNL     1       1.149   1.750  -0.239  0.00  0.00    +0.005 C 
ATOM     34  C   UNL     1       0.034   1.121   0.040  0.00  0.00    -0.013 C 
ENDBRANCH  32  34
ENDBRANCH  21  32
ENDBRANCH  20  25
ENDBRANCH  19  20
ENDBRANCH   1  19
TORSDOF 7
