REMARK  Name = ZINC47598236
REMARK  8 active torsions:
REMARK  status: ('A' for Active; 'I' for Inactive)
REMARK    1  A    between atoms: C_7  and  C_11
REMARK    2  A    between atoms: C_11  and  C_12
REMARK    3  A    between atoms: C_11  and  C_21
REMARK    4  A    between atoms: C_12  and  N_13
REMARK    5  A    between atoms: N_16  and  C_17
REMARK    6  A    between atoms: C_17  and  C_18
REMARK    7  A    between atoms: C_18  and  C_19
REMARK    8  A    between atoms: C_19  and  O_20
REMARK                            x       y       z     vdW  Elec       q    Type
REMARK                         _______ _______ _______ _____ _____    ______ ____
ROOT
ATOM      1  C   UNL     1       0.666  -3.275  -0.021  0.00  0.00    +0.075 C 
ENDROOT
BRANCH   1   8
ATOM      2  C   UNL     1      -0.017   1.362   0.009  0.00  0.00    +0.001 A 
ATOM      3  C   UNL     1       1.170   2.083   0.002  0.00  0.00    +0.002 A 
ATOM      4  C   UNL     1       2.386   1.436  -0.013  0.00  0.00    +0.026 A 
ATOM      5  C   UNL     1       2.428   0.046  -0.021  0.00  0.00    +0.047 A 
ATOM      6  C   UNL     1       1.223  -0.681  -0.013  0.00  0.00    +0.003 A 
ATOM      7  C   UNL     1       0.002  -0.004   0.002  0.00  0.00    +0.010 A 
ATOM      8  C   UNL     1       1.604  -2.095  -0.025  0.00  0.00    -0.013 A 
ATOM      9  C   UNL     1       2.945  -2.141  -0.038  0.00  0.00    +0.088 A 
ATOM     10  N   UNL     1       3.455  -0.871  -0.036  0.00  0.00    -0.360 N 
ATOM     11  H   UNL     1       4.399  -0.650  -0.044  0.00  0.00    +0.165 HD
ENDBRANCH   1   8
BRANCH   1  12
ATOM     12  C   UNL     1       0.898  -4.104  -1.258  0.00  0.00    -0.001 A 
ATOM     13  C   UNL     1       0.031  -4.410  -2.255  0.00  0.00    +0.012 A 
ATOM     14  C   UNL     1       0.468  -5.196  -3.305  0.00  0.00    +0.008 A 
ATOM     15  C   UNL     1       1.750  -5.636  -3.308  0.00  0.00    +0.045 A 
ATOM     16  S   UNL     1       2.386  -4.931  -1.796  0.00  0.00    -0.101 S 
ENDBRANCH   1  12
BRANCH   1  17
ATOM     17  C   UNL     1       0.927  -4.130   1.221  0.00  0.00    +0.119 C 
BRANCH  17  18
ATOM     18  N   UNL     1      -0.061  -5.209   1.287  0.00  0.00    -0.298 N 
ATOM     19  C   UNL     1      -0.027  -6.093   2.304  0.00  0.00    +0.300 C 
ATOM     20  O   UNL     1       0.824  -5.995   3.167  0.00  0.00    -0.253 OA
ATOM     21  N   UNL     1      -0.936  -7.086   2.365  0.00  0.00    -0.299 N 
ATOM     22  H   UNL     1      -0.741  -5.288   0.599  0.00  0.00    +0.150 HD
ATOM     23  H   UNL     1      -1.615  -7.165   1.677  0.00  0.00    +0.150 HD
BRANCH  21  24
ATOM     24  C   UNL     1      -0.899  -8.047   3.470  0.00  0.00    +0.108 C 
BRANCH  24  25
ATOM     25  C   UNL     1      -2.030  -9.062   3.302  0.00  0.00    +0.046 C 
BRANCH  25  26
ATOM     26  C   UNL     1      -1.991 -10.066   4.457  0.00  0.00    +0.157 C 
BRANCH  26  27
ATOM     27  O   UNL     1      -3.049 -11.014   4.299  0.00  0.00    -0.395 OA
ATOM     28  H   UNL     1      -3.084 -11.682   4.997  0.00  0.00    +0.209 HD
ENDBRANCH  26  27
ENDBRANCH  25  26
ENDBRANCH  24  25
ENDBRANCH  21  24
ENDBRANCH  17  18
ENDBRANCH   1  17
TORSDOF 8
