REMARK  Name = ZINC07660226
REMARK  12 active torsions:
REMARK  status: ('A' for Active; 'I' for Inactive)
REMARK    1  A    between atoms: C_1  and  C_2
REMARK    2  A    between atoms: C_2  and  C_4
REMARK    3  A    between atoms: C_2  and  N_12
REMARK    4  A    between atoms: C_13  and  C_15
REMARK    5  A    between atoms: C_15  and  N_16
REMARK    6  A    between atoms: N_16  and  C_17
REMARK    7  A    between atoms: N_16  and  C_18
REMARK    8  A    between atoms: C_18  and  C_19
REMARK    9  A    between atoms: N_21  and  C_22
REMARK   10  A    between atoms: C_22  and  C_23
REMARK   11  A    between atoms: C_22  and  C_24
REMARK   12  A    between atoms: C_22  and  C_25
REMARK                            x       y       z     vdW  Elec       q    Type
REMARK                         _______ _______ _______ _____ _____    ______ ____
ROOT
ATOM      1  N   UNL     1       0.711  -0.489   1.189  0.00  0.00    -0.310 N 
ATOM      2  C   UNL     1       2.054  -0.600   1.174  0.00  0.00    +0.197 C 
ATOM      3  O   UNL     1       2.676  -0.297   0.177  0.00  0.00    -0.278 OA
ATOM      4  H   UNL     1       0.213  -0.731   1.986  0.00  0.00    +0.149 HD
ENDROOT
BRANCH   1   6
ATOM      5  C   UNL     1      -0.019   1.526   0.010  0.00  0.00    +0.033 C 
ATOM      6  C   UNL     1       0.002  -0.004   0.002  0.00  0.00    +0.100 C 
BRANCH   6   7
ATOM      7  C   UNL     1      -1.412  -0.526   0.013  0.00  0.00    -0.026 A 
ATOM      8  C   UNL     1      -2.123  -0.571   1.198  0.00  0.00    +0.007 A 
ATOM      9  C   UNL     1      -3.419  -1.049   1.209  0.00  0.00    +0.022 A 
ATOM     10  C   UNL     1      -4.006  -1.483   0.034  0.00  0.00    +0.059 A 
ATOM     11  C   UNL     1      -3.295  -1.438  -1.153  0.00  0.00    +0.060 A 
ATOM     12  C   UNL     1      -1.999  -0.953  -1.163  0.00  0.00    +0.027 A 
ATOM     13 CL   UNL     1      -4.030  -1.982  -2.628  0.00  0.00    -0.082 Cl
ATOM     14 CL   UNL     1      -5.635  -2.085   0.048  0.00  0.00    -0.082 Cl
ENDBRANCH   6   7
ENDBRANCH   1   6
BRANCH   2  15
ATOM     15  C   UNL     1       2.783  -1.099   2.395  0.00  0.00    +0.019 C 
BRANCH  15  16
ATOM     16  N   UNL     1       4.226  -1.127   2.125  0.00  0.00    +0.389 N 
ATOM     17  C   UNL     1       4.713   0.243   1.916  0.00  0.00    -0.095 C 
ATOM     18  H   UNL     1       4.404  -1.677   1.298  0.00  0.00    -0.081 HD
BRANCH  16  19
ATOM     19  C   UNL     1       4.926  -1.726   3.270  0.00  0.00    +0.019 C 
BRANCH  19  20
ATOM     20  C   UNL     1       6.391  -1.867   2.945  0.00  0.00    +0.197 C 
ATOM     21  O   UNL     1       6.811  -1.506   1.866  0.00  0.00    -0.278 OA
ATOM     22  N   UNL     1       7.235  -2.396   3.854  0.00  0.00    -0.312 N 
ATOM     23  H   UNL     1       6.899  -2.685   4.717  0.00  0.00    +0.149 HD
BRANCH  22  24
ATOM     24  C   UNL     1       8.659  -2.534   3.538  0.00  0.00    +0.026 C 
ATOM     25  C   UNL     1       9.251  -1.155   3.242  0.00  0.00    +0.031 C 
ATOM     26  C   UNL     1       9.387  -3.157   4.730  0.00  0.00    +0.031 C 
ATOM     27  C   UNL     1       8.824  -3.434   2.312  0.00  0.00    +0.031 C 
ENDBRANCH  22  24
ENDBRANCH  19  20
ENDBRANCH  16  19
ENDBRANCH  15  16
ENDBRANCH   2  15
TORSDOF 7
