REMARK  Name = ZINC11264949
REMARK  7 active torsions:
REMARK  status: ('A' for Active; 'I' for Inactive)
REMARK    1  A    between atoms: C_1  and  C_2
REMARK    2  A    between atoms: N_13  and  C_29
REMARK    3  A    between atoms: C_14  and  S_16
REMARK    4  A    between atoms: S_16  and  C_17
REMARK    5  A    between atoms: C_17  and  C_19
REMARK    6  A    between atoms: C_17  and  C_20
REMARK    7  A    between atoms: N_25  and  C_26
REMARK                            x       y       z     vdW  Elec       q    Type
REMARK                         _______ _______ _______ _____ _____    ______ ____
ROOT
ATOM      1  C   UNL     1       1.508 -14.022   2.774  0.00  0.00    +0.008 C 
ATOM      2  C   UNL     1       2.067 -12.894   1.905  0.00  0.00    -0.009 C 
ATOM      3  C   UNL     1       3.259 -12.242   2.612  0.00  0.00    +0.008 C 
ATOM      4  C   UNL     1       3.975 -11.291   1.653  0.00  0.00    +0.037 C 
ATOM      5  C   UNL     1       2.952 -10.325   1.062  0.00  0.00    -0.023 A 
ATOM      6  C   UNL     1       1.635 -10.609   1.099  0.00  0.00    -0.004 A 
ATOM      7  S   UNL     1       0.844  -9.230   0.314  0.00  0.00    -0.073 S 
ATOM      8  C   UNL     1       2.291  -8.274  -0.064  0.00  0.00    +0.117 A 
ATOM      9  C   UNL     1       3.342  -9.061   0.434  0.00  0.00    +0.076 A 
ATOM     10  C   UNL     1       4.658  -8.526   0.264  0.00  0.00    +0.268 A 
ATOM     11  O   UNL     1       5.632  -9.140   0.665  0.00  0.00    -0.267 OA
ATOM     12  N   UNL     1       4.806  -7.335  -0.345  0.00  0.00    -0.255 N 
ATOM     13  C   UNL     1       3.725  -6.633  -0.800  0.00  0.00    +0.178 A 
ATOM     14  N   UNL     1       2.503  -7.102  -0.651  0.00  0.00    -0.215 NA
ATOM     15  C   UNL     1       0.985 -11.828   1.680  0.00  0.00    +0.046 C 
ENDROOT
BRANCH  12  16
ATOM     16  C   UNL     1       6.091  -6.804  -0.515  0.00  0.00    +0.052 A 
ATOM     17  C   UNL     1       6.819  -7.097  -1.661  0.00  0.00    +0.026 A 
ATOM     18  C   UNL     1       8.084  -6.569  -1.828  0.00  0.00    +0.002 A 
ATOM     19  C   UNL     1       8.631  -5.758  -0.850  0.00  0.00    +0.000 A 
ATOM     20  C   UNL     1       7.911  -5.469   0.294  0.00  0.00    +0.002 A 
ATOM     21  C   UNL     1       6.643  -5.989   0.465  0.00  0.00    +0.026 A 
ENDBRANCH  12  16
BRANCH  13  22
ATOM     22  S   UNL     1       3.969  -5.077  -1.590  0.00  0.00    -0.075 S 
BRANCH  22  23
ATOM     23  C   UNL     1       2.252  -4.639  -1.960  0.00  0.00    +0.137 C 
ATOM     24  C   UNL     1       1.485  -4.435  -0.652  0.00  0.00    +0.029 C 
BRANCH  23  25
ATOM     25  C   UNL     1       2.220  -3.366  -2.766  0.00  0.00    +0.233 C 
ATOM     26  O   UNL     1       3.176  -2.621  -2.759  0.00  0.00    -0.274 OA
ATOM     27  N   UNL     1       1.129  -3.056  -3.494  0.00  0.00    -0.239 N 
ATOM     28  C   UNL     1       1.101  -1.918  -4.214  0.00  0.00    +0.306 C 
ATOM     29  O   UNL     1       2.059  -1.170  -4.207  0.00  0.00    -0.252 OA
ATOM     30  N   UNL     1       0.010  -1.608  -4.942  0.00  0.00    -0.296 N 
ATOM     31  H   UNL     1       0.364  -3.653  -3.499  0.00  0.00    +0.159 HD
ATOM     32  H   UNL     1      -0.755  -2.204  -4.947  0.00  0.00    +0.151 HD
BRANCH  30  33
ATOM     33  C   UNL     1      -0.021  -0.370  -5.725  0.00  0.00    +0.075 C 
ATOM     34  C   UNL     1      -1.302   0.465  -5.676  0.00  0.00    +0.024 C 
ATOM     35  C   UNL     1      -0.952  -0.325  -6.939  0.00  0.00    +0.024 C 
ENDBRANCH  30  33
ENDBRANCH  23  25
ENDBRANCH  22  23
ENDBRANCH  13  22
TORSDOF 5
