REMARK  Name = ZINC63182481
REMARK  5 active torsions:
REMARK  status: ('A' for Active; 'I' for Inactive)
REMARK    1  A    between atoms: C_7  and  C_10
REMARK    2  A    between atoms: C_10  and  C_11
REMARK    3  A    between atoms: C_11  and  O_13
REMARK    4  A    between atoms: O_13  and  C_14
REMARK    5  A    between atoms: C_14  and  C_15
REMARK                            x       y       z     vdW  Elec       q    Type
REMARK                         _______ _______ _______ _____ _____    ______ ____
ROOT
ATOM      1  C   UNL     1      -1.453  -6.258  -3.297  0.00  0.00    +0.170 A 
ATOM      2  N   UNL     1      -0.956  -7.480  -3.232  0.00  0.00    -0.214 NA
ATOM      3  C   UNL     1      -1.729  -8.550  -3.129  0.00  0.00    +0.128 A 
ATOM      4  C   UNL     1      -3.141  -8.381  -3.086  0.00  0.00    +0.051 A 
ATOM      5  C   UNL     1      -4.181  -9.411  -2.975  0.00  0.00    -0.025 A 
ATOM      6  C   UNL     1      -5.458  -8.982  -2.961  0.00  0.00    -0.004 A 
ATOM      7  S   UNL     1      -5.358  -7.214  -3.081  0.00  0.00    -0.073 S 
ATOM      8  C   UNL     1      -3.594  -7.051  -3.160  0.00  0.00    +0.114 A 
ATOM      9  N   UNL     1      -2.753  -6.039  -3.257  0.00  0.00    -0.221 NA
ATOM     10  C   UNL     1      -6.704  -9.808  -2.875  0.00  0.00    +0.043 C 
ATOM     11  C   UNL     1      -6.566 -10.815  -1.725  0.00  0.00    +0.005 C 
ATOM     12  C   UNL     1      -5.936 -12.090  -2.275  0.00  0.00    +0.001 C 
ATOM     13  C   UNL     1      -4.959 -11.748  -3.398  0.00  0.00    +0.005 C 
ATOM     14  C   UNL     1      -3.817 -10.889  -2.869  0.00  0.00    +0.037 C 
ATOM     15  N   UNL     1      -1.171  -9.814  -3.063  0.00  0.00    -0.343 N 
ATOM     16  H   UNL     1      -1.647 -10.531  -2.617  0.00  0.00    +0.144 HD
ATOM     17  H   UNL     1      -0.303  -9.982  -3.463  0.00  0.00    +0.144 HD
ENDROOT
BRANCH   1  18
ATOM     18  C   UNL     1      -0.512  -5.086  -3.414  0.00  0.00    +0.308 C 
BRANCH  18  19
ATOM     19  O   UNL     1      -0.159  -4.627  -2.108  0.00  0.00    -0.456 OA
BRANCH  19  20
ATOM     20  C   UNL     1       0.679  -3.580  -2.036  0.00  0.00    +0.312 C 
ATOM     21  O   UNL     1       1.099  -3.071  -3.048  0.00  0.00    -0.250 OA
BRANCH  20  22
ATOM     22  C   UNL     1       1.097  -3.041  -0.692  0.00  0.00    +0.153 C 
BRANCH  22  29
ATOM     23  C   UNL     1       0.414   1.494  -0.832  0.00  0.00    +0.001 A 
ATOM     24  C   UNL     1       1.587   2.233  -1.040  0.00  0.00    +0.002 A 
ATOM     25  C   UNL     1       2.798   1.654  -1.183  0.00  0.00    +0.026 A 
ATOM     26  C   UNL     1       2.929   0.239  -1.127  0.00  0.00    +0.043 A 
ATOM     27  N   UNL     1       3.973  -0.546  -1.236  0.00  0.00    -0.380 N 
ATOM     28  C   UNL     1       3.529  -1.938  -1.099  0.00  0.00    +0.145 C 
ATOM     29  C   UNL     1       2.033  -1.876  -0.887  0.00  0.00    -0.031 C 
ATOM     30  C   UNL     1       1.704  -0.564  -0.909  0.00  0.00    -0.001 A 
ATOM     31  C   UNL     1       0.427   0.144  -0.762  0.00  0.00    +0.010 A 
ATOM     32  H   UNL     1       4.887  -0.255  -1.383  0.00  0.00    +0.160 HD
ENDBRANCH  22  29
ENDBRANCH  20  22
ENDBRANCH  19  20
ENDBRANCH  18  19
ENDBRANCH   1  18
TORSDOF 5
