REMARK  Name = ZINC14548539
REMARK  3 active torsions:
REMARK  status: ('A' for Active; 'I' for Inactive)
REMARK    1  A    between atoms: C_1  and  C_2
REMARK    2  A    between atoms: C_5  and  O_23
REMARK    3  A    between atoms: C_15  and  C_18
REMARK                            x       y       z     vdW  Elec       q    Type
REMARK                         _______ _______ _______ _____ _____    ______ ____
ROOT
ATOM      1  C   UNL     1      -1.589   5.660   1.732  0.00  0.00    +0.044 C 
ATOM      2  C   UNL     1      -1.711   4.922   0.424  0.00  0.00    -0.045 A 
ATOM      3  C   UNL     1      -2.521   5.428  -0.575  0.00  0.00    +0.007 A 
ATOM      4  C   UNL     1      -2.633   4.750  -1.774  0.00  0.00    +0.047 A 
ATOM      5  C   UNL     1      -1.944   3.569  -1.971  0.00  0.00    +0.138 A 
ATOM      6  C   UNL     1      -1.126   3.042  -0.966  0.00  0.00    +0.074 A 
ATOM      7  C   UNL     1      -1.014   3.746   0.234  0.00  0.00    -0.013 A 
ATOM      8  C   UNL     1      -0.122   3.195   1.278  0.00  0.00    +0.049 C 
ATOM      9  C   UNL     1      -0.362   3.402   2.727  0.00  0.00    -0.023 C 
ATOM     10  C   UNL     1       0.082   2.337   3.385  0.00  0.00    -0.030 C 
ATOM     11  C   UNL     1       0.629   1.304   2.397  0.00  0.00    +0.033 C 
ATOM     12  C   UNL     1      -0.184   1.641   1.148  0.00  0.00    +0.029 C 
ATOM     13  C   UNL     1       0.451   1.344  -0.195  0.00  0.00    +0.112 C 
ATOM     14  N   UNL     1      -0.473   1.837  -1.230  0.00  0.00    -0.333 N 
ATOM     15  H   UNL     1      -0.025   1.859  -2.133  0.00  0.00    +0.147 HD
ENDROOT
BRANCH  13  16
ATOM     16  C   UNL     1       1.774   2.056  -0.306  0.00  0.00    +0.010 A 
ATOM     17  C   UNL     1       3.015   1.606   0.002  0.00  0.00    +0.013 A 
ATOM     18  C   UNL     1       4.098   2.443  -0.187  0.00  0.00    +0.008 A 
ATOM     19  C   UNL     1       3.887   3.693  -0.665  0.00  0.00    +0.045 A 
ATOM     20  S   UNL     1       2.114   3.715  -0.872  0.00  0.00    -0.100 S 
ENDBRANCH  13  16
BRANCH   5  21
ATOM     21  O   UNL     1      -2.064   2.910  -3.155  0.00  0.00    -0.505 OA
ATOM     22  H   UNL     1      -2.785   2.266  -3.176  0.00  0.00    +0.292 HD
ENDBRANCH   5  21
TORSDOF 2
