REMARK  Name = ZINC33937044
REMARK  12 active torsions:
REMARK  status: ('A' for Active; 'I' for Inactive)
REMARK    1  A    between atoms: C_1  and  C_2
REMARK    2  A    between atoms: C_2  and  C_3
REMARK    3  A    between atoms: C_3  and  C_5
REMARK    4  A    between atoms: C_3  and  N_17
REMARK    5  A    between atoms: N_9  and  C_10
REMARK    6  A    between atoms: C_10  and  C_11
REMARK    7  A    between atoms: N_17  and  C_18
REMARK    8  A    between atoms: N_17  and  C_26
REMARK    9  A    between atoms: C_18  and  C_19
REMARK   10  A    between atoms: C_26  and  C_27
REMARK   11  A    between atoms: C_30  and  C_40
REMARK   12  A    between atoms: C_32  and  C_39
REMARK                            x       y       z     vdW  Elec       q    Type
REMARK                         _______ _______ _______ _____ _____    ______ ____
ROOT
ATOM      1  N   UNL     1      -0.584   0.138  -2.935  0.00  0.00    +0.392 N 
ATOM      2  H   UNL     1      -1.485  -0.296  -2.799  0.00  0.00    -0.080 HD
ENDROOT
BRANCH   1   3
ATOM      3  C   UNL     1       0.246  -0.072  -1.742  0.00  0.00    +0.003 C 
BRANCH   3   4
ATOM      4  C   UNL     1       1.579   0.605  -1.931  0.00  0.00    +0.138 A 
ATOM      5  N   UNL     1       2.312   0.600  -3.018  0.00  0.00    -0.115 NA
ATOM      6  N   UNL     1       3.375   1.289  -2.784  0.00  0.00    -0.023 NA
ATOM      7  N   UNL     1       3.339   1.734  -1.577  0.00  0.00    -0.044 NA
ATOM      8  N   UNL     1       2.245   1.338  -1.020  0.00  0.00    -0.228 N 
BRANCH   8   9
ATOM      9  C   UNL     1       1.810   1.629   0.349  0.00  0.00    +0.178 C 
BRANCH   9  10
ATOM     10  C   UNL     1       2.462   0.636   1.313  0.00  0.00    +0.140 C 
ATOM     11  C   UNL     1       2.088   0.981   2.776  0.00  0.00    +0.035 C 
ATOM     12  C   UNL     1       2.259  -0.403   3.459  0.00  0.00    +0.031 C 
ATOM     13  C   UNL     1       1.819  -1.375   2.344  0.00  0.00    +0.160 C 
ATOM     14  O   UNL     1       1.944  -0.686   1.093  0.00  0.00    -0.375 OA
ENDBRANCH   9  10
ENDBRANCH   8   9
ENDBRANCH   3   4
BRANCH   3  16
ATOM     15  C   UNL     1      -0.884  -2.249  -1.265  0.00  0.00    +0.002 C 
ATOM     16  C   UNL     1       0.462  -1.572  -1.529  0.00  0.00    -0.011 C 
ENDBRANCH   3  16
ENDBRANCH   1   3
BRANCH   1  17
ATOM     17  C   UNL     1      -0.764   1.579  -3.158  0.00  0.00    -0.042 C 
BRANCH  17  18
ATOM     18  C   UNL     1      -1.579   2.163  -2.032  0.00  0.00    -0.064 A 
ATOM     19  C   UNL     1      -2.959   2.088  -2.067  0.00  0.00    +0.004 A 
ATOM     20  C   UNL     1      -3.707   2.623  -1.035  0.00  0.00    +0.038 A 
ATOM     21  C   UNL     1      -3.074   3.235   0.033  0.00  0.00    +0.123 A 
ATOM     22  C   UNL     1      -1.692   3.311   0.066  0.00  0.00    +0.038 A 
ATOM     23  C   UNL     1      -0.946   2.770  -0.964  0.00  0.00    +0.004 A 
ATOM     24  F   UNL     1      -3.804   3.759   1.042  0.00  0.00    -0.205 F 
ENDBRANCH  17  18
ENDBRANCH   1  17
BRANCH   1  25
ATOM     25  C   UNL     1       0.076  -0.459  -4.103  0.00  0.00    -0.036 C 
BRANCH  25  26
ATOM     26  C   UNL     1      -0.841  -0.376  -5.296  0.00  0.00    +0.001 A 
ATOM     27  C   UNL     1      -0.708   0.644  -6.180  0.00  0.00    +0.017 A 
ATOM     28  C   UNL     1      -1.614   0.696  -7.329  0.00  0.00    +0.002 A 
ATOM     29  C   UNL     1      -1.525   1.723  -8.275  0.00  0.00    -0.041 A 
ATOM     30  C   UNL     1      -2.386   1.743  -9.335  0.00  0.00    +0.007 A 
ATOM     31  C   UNL     1      -3.348   0.753  -9.483  0.00  0.00    -0.048 A 
ATOM     32  C   UNL     1      -3.455  -0.267  -8.563  0.00  0.00    +0.029 A 
ATOM     33  C   UNL     1      -2.589  -0.309  -7.475  0.00  0.00    +0.050 A 
ATOM     34  N   UNL     1      -2.672  -1.319  -6.540  0.00  0.00    -0.322 N 
ATOM     35  H   UNL     1      -3.344  -2.011  -6.643  0.00  0.00    +0.169 HD
ATOM     36  C   UNL     1      -1.832  -1.362  -5.492  0.00  0.00    +0.251 A 
ATOM     37  O   UNL     1      -1.931  -2.272  -4.688  0.00  0.00    -0.268 OA
ATOM     38  C   UNL     1      -4.287   0.796 -10.661  0.00  0.00    +0.044 C 
ATOM     39  C   UNL     1      -0.485   2.803  -8.124  0.00  0.00    +0.044 C 
ENDBRANCH  25  26
ENDBRANCH   1  25
TORSDOF 9
