REMARK  Name = ZINC10029690
REMARK  4 active torsions:
REMARK  status: ('A' for Active; 'I' for Inactive)
REMARK    1  A    between atoms: C_3  and  C_7
REMARK    2  A    between atoms: N_13  and  C_14
REMARK    3  A    between atoms: C_16  and  S_21
REMARK    4  A    between atoms: S_21  and  N_24
REMARK                            x       y       z     vdW  Elec       q    Type
REMARK                         _______ _______ _______ _____ _____    ______ ____
ROOT
ATOM      1  C   UNL     1      -1.220   1.747  -0.003  0.00  0.00    +0.053 A 
ATOM      2  C   UNL     1      -0.013   1.060  -0.028  0.00  0.00    +0.053 A 
ATOM      3  C   UNL     1       1.178   1.760  -0.055  0.00  0.00    +0.107 A 
ATOM      4  C   UNL     1       1.169   3.143  -0.051  0.00  0.00    +0.030 A 
ATOM      5  C   UNL     1      -0.030   3.830  -0.020  0.00  0.00    +0.024 A 
ATOM      6  C   UNL     1      -1.225   3.137   0.008  0.00  0.00    +0.062 A 
ATOM      7 CL   UNL     1      -2.731   4.000   0.048  0.00  0.00    -0.082 Cl
ENDROOT
BRANCH   1  14
ATOM      8  C   UNL     1      -2.089  -2.945   1.270  0.00  0.00    +0.097 C 
ATOM      9  N   UNL     1      -1.328  -1.938   1.554  0.00  0.00    -0.149 NA
ATOM     10  N   UNL     1      -1.402  -0.762   1.077  0.00  0.00    -0.126 NA
ATOM     11  C   UNL     1      -2.466  -0.241   0.516  0.00  0.00    +0.180 C 
ATOM     12  S   UNL     1      -3.951  -1.191   0.407  0.00  0.00    -0.082 S 
ATOM     13  C   UNL     1      -3.205  -2.843   0.259  0.00  0.00    +0.136 C 
ATOM     14  N   UNL     1      -2.427   1.041   0.019  0.00  0.00    -0.291 N 
ATOM     15  H   UNL     1      -3.237   1.456  -0.316  0.00  0.00    +0.154 HD
BRANCH   8  18
ATOM     16  C   UNL     1      -1.028  -5.822   3.273  0.00  0.00    +0.019 A 
ATOM     17  C   UNL     1      -0.887  -4.480   2.892  0.00  0.00    +0.029 A 
ATOM     18  C   UNL     1      -1.860  -4.222   1.948  0.00  0.00    +0.063 A 
ATOM     19  N   UNL     1      -2.579  -5.379   1.765  0.00  0.00    -0.360 N 
ATOM     20  H   UNL     1      -3.329  -5.490   1.161  0.00  0.00    +0.165 HD
ATOM     21  C   UNL     1      -2.058  -6.347   2.573  0.00  0.00    +0.083 A 
ENDBRANCH   8  18
ENDBRANCH   1  14
BRANCH   3  22
ATOM     22  S   UNL     1       2.709   0.889  -0.094  0.00  0.00    +0.061 S 
ATOM     23  O   UNL     1       3.691   1.770   0.436  0.00  0.00    -0.153 OA
ATOM     24  O   UNL     1       2.460  -0.396   0.460  0.00  0.00    -0.153 OA
BRANCH  22  25
ATOM     25  N   UNL     1       3.096   0.651  -1.686  0.00  0.00    -0.172 NA
ATOM     26  C   UNL     1       2.655  -0.558  -2.400  0.00  0.00    +0.137 C 
ATOM     27  C   UNL     1       1.984  -0.121  -3.712  0.00  0.00    +0.177 C 
ATOM     28  O   UNL     1       2.868   0.750  -4.424  0.00  0.00    -0.377 OA
ATOM     29  C   UNL     1       3.170   1.966  -3.736  0.00  0.00    +0.177 C 
ATOM     30  C   UNL     1       3.897   1.639  -2.427  0.00  0.00    +0.137 C 
ENDBRANCH  22  25
ENDBRANCH   3  22
TORSDOF 4
