REMARK  Name = ZINC20374732
REMARK  2 active torsions:
REMARK  status: ('A' for Active; 'I' for Inactive)
REMARK    1  A    between atoms: C_6  and  N_22
REMARK    2  A    between atoms: C_7  and  C_11
REMARK                            x       y       z     vdW  Elec       q    Type
REMARK                         _______ _______ _______ _____ _____    ______ ____
ROOT
ATOM      1  C   UNL     1      -0.348   0.364  -0.273  0.00  0.00    +0.001 A 
ATOM      2  C   UNL     1       0.750  -0.485  -0.404  0.00  0.00    +0.001 A 
ATOM      3  C   UNL     1       2.021   0.000  -0.362  0.00  0.00    +0.008 A 
ATOM      4  C   UNL     1       2.235   1.378  -0.182  0.00  0.00    -0.016 A 
ATOM      5  C   UNL     1       3.536   1.907  -0.133  0.00  0.00    +0.032 A 
ATOM      6  C   UNL     1       3.721   3.248   0.042  0.00  0.00    +0.036 A 
ATOM      7  C   UNL     1       2.615   4.116   0.177  0.00  0.00    +0.038 A 
ATOM      8  C   UNL     1       1.324   3.618   0.133  0.00  0.00    +0.022 A 
ATOM      9  C   UNL     1       1.119   2.242  -0.048  0.00  0.00    -0.017 A 
ATOM     10  C   UNL     1      -0.180   1.704  -0.098  0.00  0.00    +0.008 A 
ENDROOT
BRANCH   7  11
ATOM     11  C   UNL     1       2.837   5.564   0.366  0.00  0.00    +0.141 A 
ATOM     12  N   UNL     1       1.858   6.482   0.638  0.00  0.00    -0.338 N 
ATOM     13  H   UNL     1       0.811   6.158   0.731  0.00  0.00    +0.167 HD
ATOM     14  C   UNL     1       2.473   7.715   0.743  0.00  0.00    +0.067 A 
ATOM     15  C   UNL     1       2.014   8.999   1.000  0.00  0.00    +0.029 A 
ATOM     16  C   UNL     1       2.905  10.052   1.040  0.00  0.00    +0.022 A 
ATOM     17  C   UNL     1       4.260   9.836   0.824  0.00  0.00    +0.043 A 
ATOM     18  C   UNL     1       4.733   8.569   0.566  0.00  0.00    +0.050 A 
ATOM     19  C   UNL     1       3.844   7.490   0.523  0.00  0.00    +0.091 A 
ATOM     20  N   UNL     1       4.002   6.162   0.305  0.00  0.00    -0.228 NA
ATOM     21 CL   UNL     1       5.364  11.174   0.878  0.00  0.00    -0.083 Cl
ENDBRANCH   7  11
BRANCH   6  22
ATOM     22  N   UNL     1       5.013   3.766   0.089  0.00  0.00    -0.357 N 
ATOM     23  H   UNL     1       5.168   4.845   0.230  0.00  0.00    +0.142 HD
ATOM     24  H   UNL     1       5.878   3.095  -0.016  0.00  0.00    +0.142 HD
ENDBRANCH   6  22
TORSDOF 2
