REMARK  Name = ZINC28827329
REMARK  4 active torsions:
REMARK  status: ('A' for Active; 'I' for Inactive)
REMARK    1  A    between atoms: C_4  and  C_7
REMARK    2  A    between atoms: C_7  and  C_8
REMARK    3  A    between atoms: C_12  and  N_18
REMARK    4  A    between atoms: C_24  and  N_27
REMARK                            x       y       z     vdW  Elec       q    Type
REMARK                         _______ _______ _______ _____ _____    ______ ____
ROOT
ATOM      1  N   UNL     1      -6.116   4.734  -4.616  0.00  0.00    -0.288 N 
ATOM      2  C   UNL     1      -7.010   3.879  -5.150  0.00  0.00    +0.303 C 
ATOM      3  O   UNL     1      -6.981   2.701  -4.848  0.00  0.00    -0.253 OA
ATOM      4  N   UNL     1      -7.937   4.329  -6.019  0.00  0.00    -0.285 N 
ATOM      5  C   UNL     1      -7.918   5.724  -6.477  0.00  0.00    +0.111 C 
ATOM      6  C   UNL     1      -7.915   5.735  -8.014  0.00  0.00    +0.044 C 
ATOM      7  C   UNL     1      -9.107   4.921  -8.525  0.00  0.00    +0.095 C 
ATOM      8  C   UNL     1      -8.977   3.471  -8.053  0.00  0.00    +0.044 C 
ATOM      9  C   UNL     1      -8.988   3.434  -6.522  0.00  0.00    +0.111 C 
ATOM     10  H   UNL     1      -6.089   5.782  -4.950  0.00  0.00    +0.151 HD
ENDROOT
BRANCH   7  11
ATOM     11  N   UNL     1      -9.129   4.958  -9.990  0.00  0.00    -0.288 N 
ATOM     12  C   UNL     1     -10.162   5.457 -10.778  0.00  0.00    +0.089 A 
ATOM     13  C   UNL     1     -11.393   6.029 -10.494  0.00  0.00    +0.031 A 
ATOM     14  C   UNL     1     -12.194   6.424 -11.555  0.00  0.00    +0.022 A 
ATOM     15  C   UNL     1     -11.744   6.236 -12.849  0.00  0.00    +0.113 A 
ATOM     16  N   UNL     1     -10.569   5.689 -13.091  0.00  0.00    -0.236 NA
ATOM     17  C   UNL     1      -9.771   5.297 -12.111  0.00  0.00    +0.159 A 
ATOM     18  N   UNL     1      -8.514   4.707 -12.088  0.00  0.00    -0.291 N 
ATOM     19  H   UNL     1      -7.998   4.477 -13.032  0.00  0.00    +0.172 HD
ATOM     20  C   UNL     1      -8.152   4.519 -10.806  0.00  0.00    +0.329 A 
ATOM     21  O   UNL     1      -7.101   4.027 -10.439  0.00  0.00    -0.246 OA
ENDBRANCH   7  11
BRANCH   1  25
ATOM     22  C   UNL     1      -3.016   4.124  -1.387  0.00  0.00    +0.010 C 
ATOM     23  C   UNL     1      -4.268   4.982  -1.365  0.00  0.00    +0.007 C 
ATOM     24  C   UNL     1      -4.713   5.452  -2.738  0.00  0.00    +0.032 C 
ATOM     25  C   UNL     1      -5.179   4.268  -3.590  0.00  0.00    +0.160 C 
ATOM     26  C   UNL     1      -3.968   3.646  -4.252  0.00  0.00    +0.233 C 
ATOM     27  O   UNL     1      -3.798   3.775  -5.446  0.00  0.00    -0.274 OA
ATOM     28  N   UNL     1      -3.087   2.956  -3.526  0.00  0.00    -0.314 N 
ATOM     29  C   UNL     1      -3.285   2.786  -2.078  0.00  0.00    +0.108 C 
ATOM     30  H   UNL     1      -2.209   2.512  -4.017  0.00  0.00    +0.149 HD
BRANCH  22  31
ATOM     31  C   UNL     1      -2.558   3.865   0.050  0.00  0.00    +0.040 C 
BRANCH  31  35
ATOM     32  C   UNL     1       1.175   1.790   0.003  0.00  0.00    +0.000 A 
ATOM     33  C   UNL     1      -0.011   1.079   0.007  0.00  0.00    +0.000 A 
ATOM     34  C   UNL     1      -1.219   1.751   0.018  0.00  0.00    +0.003 A 
ATOM     35  C   UNL     1      -1.241   3.133   0.034  0.00  0.00    -0.047 A 
ATOM     36  C   UNL     1      -0.056   3.844   0.030  0.00  0.00    +0.003 A 
ATOM     37  C   UNL     1       1.153   3.172   0.015  0.00  0.00    +0.000 A 
ENDBRANCH  31  35
ENDBRANCH  22  31
ENDBRANCH   1  25
TORSDOF 4
