REMARK  Name = ZINC21383826
REMARK  11 active torsions:
REMARK  status: ('A' for Active; 'I' for Inactive)
REMARK    1  A    between atoms: C_1  and  C_2
REMARK    2  A    between atoms: C_2  and  N_3
REMARK    3  A    between atoms: N_3  and  C_4
REMARK    4  A    between atoms: N_3  and  C_19
REMARK    5  A    between atoms: C_4  and  C_5
REMARK    6  A    between atoms: N_7  and  C_8
REMARK    7  A    between atoms: C_8  and  C_10
REMARK    8  A    between atoms: C_8  and  C_11
REMARK    9  A    between atoms: C_20  and  N_35
REMARK   10  A    between atoms: N_21  and  C_28
REMARK   11  A    between atoms: C_28  and  C_29
REMARK                            x       y       z     vdW  Elec       q    Type
REMARK                         _______ _______ _______ _____ _____    ______ ____
ROOT
ATOM      1  C   UNL     1       1.043   3.246  -0.122  0.00  0.00    +0.134 A 
ATOM      2  C   UNL     1      -0.044   4.076  -0.066  0.00  0.00    +0.127 A 
ATOM      3  N   UNL     1      -1.306   3.545  -0.209  0.00  0.00    -0.276 N 
ATOM      4  C   UNL     1      -1.471   2.224  -0.408  0.00  0.00    +0.331 A 
ATOM      5  O   UNL     1      -2.593   1.774  -0.538  0.00  0.00    -0.246 OA
ATOM      6  N   UNL     1      -0.414   1.394  -0.460  0.00  0.00    -0.273 N 
ATOM      7  H   UNL     1      -0.569   0.316  -0.614  0.00  0.00    +0.173 HD
ATOM      8  C   UNL     1       0.840   1.869  -0.325  0.00  0.00    +0.277 A 
ATOM      9  O   UNL     1       1.793   1.110  -0.378  0.00  0.00    -0.266 OA
ENDROOT
BRANCH   2  10
ATOM     10  N   UNL     1       0.123   5.427   0.131  0.00  0.00    -0.343 N 
ATOM     11  H   UNL     1      -0.755   6.089   0.175  0.00  0.00    +0.144 HD
ATOM     12  H   UNL     1       1.134   5.846   0.245  0.00  0.00    +0.144 HD
ENDBRANCH   2  10
BRANCH   1  13
ATOM     13  N   UNL     1       2.350   3.766   0.021  0.00  0.00    -0.315 N 
BRANCH  13  15
ATOM     14  C   UNL     1       2.424   3.933   2.463  0.00  0.00    +0.024 C 
ATOM     15  C   UNL     1       2.998   3.235   1.228  0.00  0.00    +0.102 C 
ENDBRANCH  13  15
BRANCH  13  16
ATOM     16  C   UNL     1       3.159   3.492  -1.174  0.00  0.00    +0.201 C 
BRANCH  16  17
ATOM     17  C   UNL     1       4.375   4.382  -1.172  0.00  0.00    +0.231 C 
ATOM     18  O   UNL     1       4.495   5.244  -0.327  0.00  0.00    -0.274 OA
ATOM     19  N   UNL     1       5.330   4.221  -2.109  0.00  0.00    -0.307 N 
ATOM     20  H   UNL     1       5.222   3.439  -2.876  0.00  0.00    +0.149 HD
BRANCH  19  21
ATOM     21  C   UNL     1       6.512   5.086  -2.107  0.00  0.00    +0.102 C 
ATOM     22  C   UNL     1       6.198   6.381  -2.860  0.00  0.00    +0.033 C 
BRANCH  21  23
ATOM     23  C   UNL     1       7.656   4.376  -2.784  0.00  0.00    -0.009 A 
ATOM     24  C   UNL     1       7.401   3.381  -3.709  0.00  0.00    +0.008 A 
ATOM     25  C   UNL     1       8.449   2.733  -4.335  0.00  0.00    +0.020 A 
ATOM     26  C   UNL     1       9.755   3.073  -4.028  0.00  0.00    +0.042 A 
ATOM     27  C   UNL     1      10.011   4.064  -3.098  0.00  0.00    +0.040 A 
ATOM     28  C   UNL     1       8.961   4.716  -2.476  0.00  0.00    +0.047 A 
ATOM     29 CL   UNL     1       9.281   5.961  -1.309  0.00  0.00    -0.083 Cl
ATOM     30 CL   UNL     1      11.072   2.255  -4.809  0.00  0.00    -0.083 Cl
ENDBRANCH  21  23
ENDBRANCH  19  21
ENDBRANCH  16  17
ENDBRANCH  13  16
ENDBRANCH   1  13
BRANCH   3  31
ATOM     31  C   UNL     1      -2.477   4.424  -0.151  0.00  0.00    +0.163 C 
BRANCH  31  32
ATOM     32  C   UNL     1      -2.801   4.921  -1.536  0.00  0.00    -0.028 A 
ATOM     33  C   UNL     1      -2.237   6.096  -1.999  0.00  0.00    +0.005 A 
ATOM     34  C   UNL     1      -2.531   6.549  -3.271  0.00  0.00    +0.000 A 
ATOM     35  C   UNL     1      -3.397   5.834  -4.077  0.00  0.00    +0.000 A 
ATOM     36  C   UNL     1      -3.965   4.662  -3.613  0.00  0.00    +0.000 A 
ATOM     37  C   UNL     1      -3.667   4.206  -2.342  0.00  0.00    +0.005 A 
ENDBRANCH  31  32
ENDBRANCH   3  31
TORSDOF 9
