REMARK  Name = ZINC28444926
REMARK  13 active torsions:
REMARK  status: ('A' for Active; 'I' for Inactive)
REMARK    1  A    between atoms: C_1  and  C_2
REMARK    2  A    between atoms: C_2  and  O_3
REMARK    3  A    between atoms: O_3  and  C_4
REMARK    4  A    between atoms: C_7  and  C_13
REMARK    5  A    between atoms: C_8  and  O_10
REMARK    6  A    between atoms: O_10  and  C_11
REMARK    7  A    between atoms: C_11  and  C_12
REMARK    8  A    between atoms: C_13  and  C_14
REMARK    9  A    between atoms: C_13  and  C_22
REMARK   10  A    between atoms: C_15  and  C_21
REMARK   11  A    between atoms: C_19  and  O_20
REMARK   12  A    between atoms: C_23  and  C_29
REMARK   13  A    between atoms: C_27  and  O_28
REMARK                            x       y       z     vdW  Elec       q    Type
REMARK                         _______ _______ _______ _____ _____    ______ ____
ROOT
ATOM      1  C   UNL     1      -2.011  -6.080  -0.008  0.00  0.00    +0.096 C 
ENDROOT
BRANCH   1   2
ATOM      2  C   UNL     1      -1.515  -6.219  -1.424  0.00  0.00    +0.048 A 
ATOM      3  C   UNL     1      -2.257  -6.684  -2.514  0.00  0.00    +0.068 A 
ATOM      4  N   UNL     1      -1.490  -6.660  -3.573  0.00  0.00    -0.176 NA
ATOM      5  N   UNL     1      -0.230  -6.179  -3.194  0.00  0.00    -0.247 N 
ATOM      6  H   UNL     1       0.534  -6.057  -3.779  0.00  0.00    +0.192 HD
ATOM      7  C   UNL     1      -0.269  -5.909  -1.870  0.00  0.00    +0.213 A 
ATOM      8  C   UNL     1      -3.695  -7.135  -2.476  0.00  0.00    +0.068 C 
BRANCH   7   9
ATOM      9  O   UNL     1       0.752  -5.420  -1.121  0.00  0.00    -0.492 OA
ATOM     10  H   UNL     1       1.272  -6.101  -0.673  0.00  0.00    +0.294 HD
ENDBRANCH   7   9
ENDBRANCH   1   2
BRANCH   1  11
ATOM     11  C   UNL     1      -1.056  -6.774   0.929  0.00  0.00    +0.048 A 
ATOM     12  C   UNL     1      -0.384  -7.921   0.676  0.00  0.00    +0.041 A 
ATOM     13  N   UNL     1       0.364  -8.210   1.761  0.00  0.00    -0.278 N 
ATOM     14  N   UNL     1       0.148  -7.208   2.716  0.00  0.00    -0.136 NA
ATOM     15  H   UNL     1       0.949  -8.977   1.862  0.00  0.00    +0.189 HD
ATOM     16  C   UNL     1      -0.700  -6.342   2.215  0.00  0.00    +0.236 A 
ATOM     17  C   UNL     1      -0.460  -8.733  -0.592  0.00  0.00    +0.065 C 
BRANCH  16  18
ATOM     18  O   UNL     1      -1.157  -5.222   2.836  0.00  0.00    -0.491 OA
ATOM     19  H   UNL     1      -1.915  -5.376   3.418  0.00  0.00    +0.294 HD
ENDBRANCH  16  18
ENDBRANCH   1  11
BRANCH   1  23
ATOM     20  C   UNL     1      -2.253  -1.935   1.016  0.00  0.00    +0.124 A 
ATOM     21  C   UNL     1      -1.018  -2.528   0.796  0.00  0.00    +0.046 A 
ATOM     22  C   UNL     1      -0.943  -3.867   0.466  0.00  0.00    +0.012 A 
ATOM     23  C   UNL     1      -2.096  -4.620   0.354  0.00  0.00    +0.007 A 
ATOM     24  C   UNL     1      -3.334  -4.032   0.573  0.00  0.00    +0.128 A 
ATOM     25  C   UNL     1      -3.412  -2.689   0.911  0.00  0.00    +0.091 A 
BRANCH  20  26
ATOM     26  O   UNL     1      -2.327  -0.617   1.341  0.00  0.00    -0.492 OA
BRANCH  26  28
ATOM     27  C   UNL     1      -1.375   1.555   1.805  0.00  0.00    +0.048 C 
ATOM     28  C   UNL     1      -1.093   0.098   1.433  0.00  0.00    +0.225 C 
ENDBRANCH  26  28
ENDBRANCH  20  26
BRANCH  24  29
ATOM     29  O   UNL     1      -4.468  -4.772   0.463  0.00  0.00    -0.492 OA
BRANCH  29  30
ATOM     30  C   UNL     1      -5.707  -4.101   0.702  0.00  0.00    +0.225 C 
ATOM     31  C   UNL     1      -6.863  -5.089   0.533  0.00  0.00    +0.048 C 
ENDBRANCH  29  30
ENDBRANCH  24  29
ENDBRANCH   1  23
TORSDOF 9
