REMARK  Name = ZINC63874920
REMARK  8 active torsions:
REMARK  status: ('A' for Active; 'I' for Inactive)
REMARK    1  A    between atoms: C_1  and  O_2
REMARK    2  A    between atoms: O_2  and  C_3
REMARK    3  A    between atoms: C_3  and  C_5
REMARK    4  A    between atoms: C_7  and  N_17
REMARK    5  A    between atoms: C_18  and  C_20
REMARK    6  A    between atoms: C_20  and  N_21
REMARK    7  A    between atoms: C_24  and  C_29
REMARK    8  A    between atoms: C_29  and  C_30
REMARK                            x       y       z     vdW  Elec       q    Type
REMARK                         _______ _______ _______ _____ _____    ______ ____
ROOT
ATOM      1  C   UNL     1       1.163  -1.065   3.596  0.00  0.00    +0.213 C 
ENDROOT
BRANCH   1   2
ATOM      2  N   UNL     1       0.845  -1.742   4.856  0.00  0.00    -0.216 N 
ATOM      3  C   UNL     1      -0.404  -1.900   5.336  0.00  0.00    +0.244 C 
ATOM      4  O   UNL     1      -1.437  -1.523   4.827  0.00  0.00    -0.273 OA
ATOM      5  C   UNL     1      -0.247  -2.648   6.646  0.00  0.00    +0.165 C 
ATOM      6  N   UNL     1       1.208  -2.843   6.761  0.00  0.00    -0.287 N 
ATOM      7  C   UNL     1       1.759  -2.285   5.668  0.00  0.00    +0.310 C 
ATOM      8  O   UNL     1       2.954  -2.272   5.446  0.00  0.00    -0.252 OA
ATOM      9  H   UNL     1       1.678  -3.289   7.484  0.00  0.00    +0.151 HD
BRANCH   5  10
ATOM     10  C   UNL     1      -0.776  -1.810   7.811  0.00  0.00    +0.065 C 
BRANCH  10  11
ATOM     11  C   UNL     1      -0.722  -2.622   9.079  0.00  0.00    -0.039 C 
ATOM     12  C   UNL     1       0.264  -2.620  10.005  0.00  0.00    -0.001 A 
ATOM     13  C   UNL     1       1.534  -1.890  10.103  0.00  0.00    +0.010 A 
ATOM     14  C   UNL     1       2.332  -2.104  11.174  0.00  0.00    +0.001 A 
ATOM     15  C   UNL     1       1.978  -3.004  12.189  0.00  0.00    +0.002 A 
ATOM     16  C   UNL     1       0.828  -3.711  12.169  0.00  0.00    +0.026 A 
ATOM     17  C   UNL     1      -0.087  -3.564  11.090  0.00  0.00    +0.043 A 
ATOM     18  N   UNL     1      -1.245  -4.127  10.845  0.00  0.00    -0.380 N 
ATOM     19  C   UNL     1      -1.763  -3.599   9.578  0.00  0.00    +0.144 C 
ATOM     20  H   UNL     1      -1.688  -4.780  11.409  0.00  0.00    +0.160 HD
ENDBRANCH  10  11
ENDBRANCH   5  10
ENDBRANCH   1   2
BRANCH   1  22
ATOM     21  N   UNL     1       1.422  -1.669   1.212  0.00  0.00    -0.301 N 
ATOM     22  C   UNL     1       1.155  -2.067   2.471  0.00  0.00    +0.232 C 
ATOM     23  O   UNL     1       0.909  -3.233   2.699  0.00  0.00    -0.274 OA
ATOM     24  H   UNL     1       1.619  -0.737   1.029  0.00  0.00    +0.150 HD
BRANCH  21  26
ATOM     25  C   UNL     1       0.657  -2.104  -1.120  0.00  0.00    +0.155 C 
ATOM     26  C   UNL     1       1.415  -2.644   0.118  0.00  0.00    +0.153 C 
ATOM     27  S   UNL     1       3.087  -2.829  -0.636  0.00  0.00    -0.106 S 
ATOM     28  C   UNL     1       2.584  -2.908  -2.337  0.00  0.00    -0.013 C 
ATOM     29  C   UNL     1       1.340  -2.505  -2.407  0.00  0.00    -0.044 C 
ATOM     30  C   UNL     1       0.601  -2.397  -3.747  0.00  0.00    +0.032 C 
ATOM     31  C   UNL     1       1.316  -1.343  -4.590  0.00  0.00    +0.004 C 
ATOM     32  C   UNL     1       2.535  -1.904  -5.282  0.00  0.00    +0.001 C 
ATOM     33  C   UNL     1       3.724  -2.187  -4.393  0.00  0.00    +0.005 C 
ATOM     34  C   UNL     1       3.437  -3.393  -3.492  0.00  0.00    +0.042 C 
BRANCH  25  35
ATOM     35  C   UNL     1       0.598  -0.600  -1.043  0.00  0.00    +0.317 C 
ATOM     36  O   UNL     1       1.088   0.070  -1.921  0.00  0.00    -0.250 OA
BRANCH  35  38
ATOM     37  C   UNL     1      -0.017   1.425   0.010  0.00  0.00    +0.280 C 
ATOM     38  O   UNL     1       0.002  -0.004   0.002  0.00  0.00    -0.467 OA
ENDBRANCH  35  38
ENDBRANCH  25  35
ENDBRANCH  21  26
ENDBRANCH   1  22
TORSDOF 7
