REMARK  Name = ZINC05770358
REMARK  6 active torsions:
REMARK  status: ('A' for Active; 'I' for Inactive)
REMARK    1  A    between atoms: C_4  and  N_7
REMARK    2  A    between atoms: C_12  and  C_25
REMARK    3  A    between atoms: C_15  and  C_18
REMARK    4  A    between atoms: C_25  and  N_53
REMARK    5  A    between atoms: C_26  and  C_27
REMARK    6  A    between atoms: C_26  and  N_53
REMARK                            x       y       z     vdW  Elec       q    Type
REMARK                         _______ _______ _______ _____ _____    ______ ____
ROOT
ATOM      1  N   UNL     1      -7.897   8.379   1.023  0.00  0.00    -0.236 N 
ATOM      2  C   UNL     1      -7.028   7.559   0.334  0.00  0.00    +0.166 A 
ATOM      3  N   UNL     1      -7.206   6.455  -0.369  0.00  0.00    -0.189 NA
ATOM      4  C   UNL     1      -6.183   5.834  -0.960  0.00  0.00    +0.273 A 
ATOM      5  O   UNL     1      -6.390   4.816  -1.607  0.00  0.00    -0.266 OA
ATOM      6  C   UNL     1      -4.867   6.327  -0.846  0.00  0.00    +0.003 A 
ATOM      7  C   UNL     1      -4.635   7.462  -0.132  0.00  0.00    +0.020 A 
ATOM      8  C   UNL     1      -5.731   8.107   0.479  0.00  0.00    +0.045 A 
ATOM      9  C   UNL     1      -5.847   9.266   1.268  0.00  0.00    +0.073 A 
ATOM     10  N   UNL     1      -7.159   9.424   1.592  0.00  0.00    -0.290 N 
ATOM     11  H   UNL     1      -7.524  10.144   2.131  0.00  0.00    +0.187 HD
ENDROOT
BRANCH   9  12
ATOM     12  C   UNL     1      -4.745  10.152   1.670  0.00  0.00    +0.001 A 
ATOM     13  C   UNL     1      -3.547   9.609   2.151  0.00  0.00    +0.013 A 
ATOM     14  C   UNL     1      -2.517  10.445   2.521  0.00  0.00    +0.039 A 
ATOM     15  C   UNL     1      -2.667  11.821   2.428  0.00  0.00    +0.123 A 
ATOM     16  C   UNL     1      -3.854  12.365   1.957  0.00  0.00    +0.039 A 
ATOM     17  C   UNL     1      -4.890  11.541   1.578  0.00  0.00    +0.013 A 
ATOM     18  F   UNL     1      -1.654  12.635   2.797  0.00  0.00    -0.205 F 
ENDBRANCH   9  12
BRANCH   1  22
ATOM     19  C   UNL     1     -12.013   7.840   1.354  0.00  0.00    +0.000 A 
ATOM     20  C   UNL     1     -11.268   8.166   2.473  0.00  0.00    +0.002 A 
ATOM     21  C   UNL     1      -9.903   8.345   2.366  0.00  0.00    +0.028 A 
ATOM     22  C   UNL     1      -9.278   8.198   1.134  0.00  0.00    +0.066 A 
ATOM     23  C   UNL     1     -10.031   7.876   0.012  0.00  0.00    +0.028 A 
ATOM     24  C   UNL     1     -11.395   7.692   0.126  0.00  0.00    +0.002 A 
ENDBRANCH   1  22
BRANCH   6  25
ATOM     25  C   UNL     1      -3.726   5.606  -1.516  0.00  0.00    -0.041 C 
BRANCH  25  26
ATOM     26  N   UNL     1      -3.404   4.390  -0.746  0.00  0.00    +0.383 N 
ATOM     27  H   UNL     1      -4.230   3.781  -0.713  0.00  0.00    -0.085 HD
ATOM     28  H   UNL     1      -3.136   4.655   0.209  0.00  0.00    -0.085 HD
BRANCH  26  29
ATOM     29  C   UNL     1      -2.289   3.662  -1.380  0.00  0.00    -0.050 C 
BRANCH  29  30
ATOM     30  C   UNL     1      -1.978   2.408  -0.561  0.00  0.00    +0.101 C 
ATOM     31  C   UNL     1      -0.811   1.623  -1.201  0.00  0.00    +0.032 C 
ATOM     32  C   UNL     1      -0.013   1.086   0.008  0.00  0.00    +0.030 C 
ATOM     33  C   UNL     1      -0.788   1.610   1.237  0.00  0.00    +0.160 C 
ATOM     34  O   UNL     1      -1.501   2.772   0.753  0.00  0.00    -0.378 OA
ENDBRANCH  29  30
ENDBRANCH  26  29
ENDBRANCH  25  26
ENDBRANCH   6  25
TORSDOF 6
