REMARK  Name = ZINC59416588
REMARK  7 active torsions:
REMARK  status: ('A' for Active; 'I' for Inactive)
REMARK    1  A    between atoms: C_1  and  C_2
REMARK    2  A    between atoms: N_5  and  C_7
REMARK    3  A    between atoms: C_11  and  O_13
REMARK    4  A    between atoms: C_15  and  N_28
REMARK    5  A    between atoms: C_16  and  C_26
REMARK    6  A    between atoms: C_17  and  C_19
REMARK    7  A    between atoms: C_23  and  O_25
REMARK                            x       y       z     vdW  Elec       q    Type
REMARK                         _______ _______ _______ _____ _____    ______ ____
ROOT
ATOM      1  C   UNL     1      -0.018   1.503   0.010  0.00  0.00    +0.068 C 
ATOM      2  C   UNL     1       0.002  -0.004   0.002  0.00  0.00    +0.068 A 
ATOM      3  C   UNL     1       0.008  -0.812  -1.128  0.00  0.00    +0.050 A 
ATOM      4  C   UNL     1       0.028  -2.115  -0.717  0.00  0.00    +0.230 A 
ATOM      5  N   UNL     1       0.035  -2.116   0.634  0.00  0.00    -0.199 N 
ATOM      6  N   UNL     1       0.023  -0.779   1.061  0.00  0.00    -0.168 NA
ATOM      7  O   UNL     1       0.035  -3.157  -1.585  0.00  0.00    -0.423 OA
ATOM      8  C   UNL     1      -0.254  -2.896  -2.876  0.00  0.00    +0.200 C 
ATOM      9  C   UNL     1      -0.291  -1.651  -3.402  0.00  0.00    +0.098 C 
ATOM     10  C   UNL     1      -0.004  -0.418  -2.582  0.00  0.00    +0.101 C 
ENDROOT
BRANCH   5  11
ATOM     11  C   UNL     1       0.055  -3.248   1.460  0.00  0.00    +0.073 A 
ATOM     12  C   UNL     1      -0.616  -4.401   1.075  0.00  0.00    +0.028 A 
ATOM     13  C   UNL     1      -0.596  -5.517   1.890  0.00  0.00    +0.006 A 
ATOM     14  C   UNL     1       0.091  -5.489   3.088  0.00  0.00    +0.045 A 
ATOM     15  C   UNL     1       0.764  -4.339   3.478  0.00  0.00    +0.119 A 
ATOM     16  C   UNL     1       0.750  -3.219   2.660  0.00  0.00    +0.073 A 
BRANCH  15  17
ATOM     17  O   UNL     1       1.439  -4.312   4.656  0.00  0.00    -0.507 OA
ATOM     18  H   UNL     1       2.363  -4.591   4.587  0.00  0.00    +0.292 HD
ENDBRANCH  15  17
ENDBRANCH   5  11
BRANCH  10  19
ATOM     19  C   UNL     1       1.340   0.147  -2.967  0.00  0.00    -0.031 A 
ATOM     20  C   UNL     1       2.476  -0.632  -2.849  0.00  0.00    +0.005 A 
ATOM     21  C   UNL     1       3.710  -0.117  -3.201  0.00  0.00    +0.004 A 
ATOM     22  C   UNL     1       3.810   1.178  -3.671  0.00  0.00    +0.045 A 
ATOM     23  C   UNL     1       2.672   1.962  -3.790  0.00  0.00    +0.117 A 
ATOM     24  C   UNL     1       1.434   1.440  -3.442  0.00  0.00    +0.050 A 
BRANCH  23  25
ATOM     25  O   UNL     1       2.768   3.236  -4.253  0.00  0.00    -0.507 OA
ATOM     26  H   UNL     1       2.682   3.314  -5.213  0.00  0.00    +0.292 HD
ENDBRANCH  23  25
ENDBRANCH  10  19
BRANCH   8  27
ATOM     27  N   UNL     1      -0.525  -3.956  -3.705  0.00  0.00    -0.328 N 
ATOM     28  H   UNL     1      -0.506  -4.861  -3.357  0.00  0.00    +0.145 HD
ATOM     29  H   UNL     1      -0.736  -3.799  -4.639  0.00  0.00    +0.145 HD
ENDBRANCH   8  27
BRANCH   9  30
ATOM     30  C   UNL     1      -0.614  -1.498  -4.788  0.00  0.00    +0.101 C 
ATOM     31  N   UNL     1      -0.870  -1.376  -5.888  0.00  0.00    -0.191 NA
ENDBRANCH   9  30
TORSDOF 6
