REMARK  Name = ZINC35744334
REMARK  12 active torsions:
REMARK  status: ('A' for Active; 'I' for Inactive)
REMARK    1  A    between atoms: C_1  and  C_2
REMARK    2  A    between atoms: C_2  and  C_3
REMARK    3  A    between atoms: C_3  and  C_5
REMARK    4  A    between atoms: C_3  and  O_28
REMARK    5  A    between atoms: C_5  and  N_6
REMARK    6  A    between atoms: N_6  and  C_7
REMARK    7  A    between atoms: N_6  and  C_12
REMARK    8  A    between atoms: C_7  and  C_8
REMARK    9  A    between atoms: C_8  and  C_9
REMARK   10  A    between atoms: C_9  and  C_10
REMARK   11  A    between atoms: C_9  and  C_11
REMARK   12  A    between atoms: C_12  and  C_13
REMARK                            x       y       z     vdW  Elec       q    Type
REMARK                         _______ _______ _______ _____ _____    ______ ____
ROOT
ATOM      1  C   UNL     1      -4.772  -4.079  -0.667  0.00  0.00    +0.094 A 
ATOM      2  N   UNL     1      -5.221  -5.343  -0.876  0.00  0.00    -0.312 N 
ATOM      3  H   UNL     1      -4.580  -6.062  -0.988  0.00  0.00    +0.170 HD
ATOM      4  C   UNL     1      -6.537  -5.619  -0.932  0.00  0.00    +0.260 A 
ATOM      5  O   UNL     1      -6.924  -6.759  -1.120  0.00  0.00    -0.267 OA
ATOM      6  C   UNL     1      -7.476  -4.548  -0.767  0.00  0.00    +0.075 A 
ATOM      7  C   UNL     1      -8.937  -4.610  -0.790  0.00  0.00    -0.023 A 
ATOM      8  C   UNL     1      -9.602  -3.450  -0.607  0.00  0.00    -0.004 A 
ATOM      9  S   UNL     1      -8.338  -2.225  -0.395  0.00  0.00    -0.073 S 
ATOM     10  C   UNL     1      -6.918  -3.278  -0.555  0.00  0.00    +0.116 A 
ATOM     11  N   UNL     1      -5.603  -3.084  -0.507  0.00  0.00    -0.229 NA
ATOM     12  C   UNL     1     -11.086  -3.247  -0.589  0.00  0.00    +0.043 C 
ATOM     13  C   UNL     1     -11.753  -4.497  -1.182  0.00  0.00    +0.005 C 
ATOM     14  C   UNL     1     -11.136  -5.738  -0.530  0.00  0.00    +0.005 C 
ATOM     15  C   UNL     1      -9.695  -5.916  -1.011  0.00  0.00    +0.037 C 
ENDROOT
BRANCH   1  16
ATOM     16  C   UNL     1      -3.288  -3.820  -0.611  0.00  0.00    -0.003 C 
BRANCH  16  17
ATOM     17  N   UNL     1      -3.049  -2.390  -0.370  0.00  0.00    +0.386 N 
ATOM     18  H   UNL     1      -3.527  -1.846  -1.073  0.00  0.00    -0.081 HD
BRANCH  17  19
ATOM     19  C   UNL     1      -1.607  -2.117  -0.435  0.00  0.00    -0.047 C 
BRANCH  19  20
ATOM     20  C   UNL     1      -1.105  -2.368  -1.858  0.00  0.00    +0.098 C 
BRANCH  20  22
ATOM     21  C   UNL     1       0.925  -2.458  -3.313  0.00  0.00    +0.006 C 
ATOM     22  C   UNL     1       0.398  -2.089  -1.925  0.00  0.00    +0.026 C 
ENDBRANCH  20  22
BRANCH  20  23
ATOM     23  O   UNL     1      -1.790  -1.502  -2.765  0.00  0.00    -0.394 OA
ATOM     24  H   UNL     1      -1.612  -0.563  -2.623  0.00  0.00    +0.210 HD
ENDBRANCH  20  23
ENDBRANCH  19  20
ENDBRANCH  17  19
BRANCH  17  25
ATOM     25  C   UNL     1      -3.557  -2.027   0.960  0.00  0.00    -0.078 C 
BRANCH  25  26
ATOM     26  C   UNL     1      -3.446  -0.513   1.152  0.00  0.00    -0.016 C 
BRANCH  26  27
ATOM     27  C   UNL     1      -4.099  -0.118   2.478  0.00  0.00    -0.019 C 
ATOM     28  C   UNL     1      -3.312  -0.732   3.637  0.00  0.00    +0.007 C 
ATOM     29  C   UNL     1      -4.098   1.407   2.612  0.00  0.00    +0.007 C 
ENDBRANCH  26  27
ENDBRANCH  25  26
ENDBRANCH  17  25
ENDBRANCH  16  17
ENDBRANCH   1  16
TORSDOF 9
