REMARK  Name = ZINC36499007
REMARK  10 active torsions:
REMARK  status: ('A' for Active; 'I' for Inactive)
REMARK    1  A    between atoms: C_3  and  C_8
REMARK    2  A    between atoms: N_10  and  C_11
REMARK    3  A    between atoms: N_10  and  C_17
REMARK    4  A    between atoms: C_11  and  C_12
REMARK    5  A    between atoms: C_17  and  C_19
REMARK    6  A    between atoms: C_17  and  C_28
REMARK    7  A    between atoms: C_20  and  O_27
REMARK    8  A    between atoms: C_22  and  O_26
REMARK    9  A    between atoms: C_24  and  O_25
REMARK   10  A    between atoms: N_30  and  C_31
REMARK                            x       y       z     vdW  Elec       q    Type
REMARK                         _______ _______ _______ _____ _____    ______ ____
ROOT
ATOM      1  C   UNL     1       5.866   2.602   0.211  0.00  0.00    +0.200 C 
ENDROOT
BRANCH   1   2
ATOM      2  C   UNL     1       6.357   2.366   1.617  0.00  0.00    +0.065 A 
ATOM      3  C   UNL     1       6.822   1.114   1.988  0.00  0.00    +0.129 A 
ATOM      4  C   UNL     1       7.274   0.897   3.281  0.00  0.00    +0.091 A 
ATOM      5  C   UNL     1       7.261   1.933   4.202  0.00  0.00    +0.124 A 
ATOM      6  C   UNL     1       6.797   3.186   3.831  0.00  0.00    +0.091 A 
ATOM      7  C   UNL     1       6.349   3.404   2.537  0.00  0.00    +0.129 A 
BRANCH   7   8
ATOM      8  O   UNL     1       5.898   4.633   2.171  0.00  0.00    -0.506 OA
ATOM      9  H   UNL     1       4.951   4.762   2.313  0.00  0.00    +0.292 HD
ENDBRANCH   7   8
BRANCH   5  10
ATOM     10  O   UNL     1       7.703   1.720   5.470  0.00  0.00    -0.507 OA
ATOM     11  H   UNL     1       8.648   1.888   5.590  0.00  0.00    +0.292 HD
ENDBRANCH   5  10
BRANCH   3  12
ATOM     12  O   UNL     1       6.835   0.099   1.084  0.00  0.00    -0.506 OA
ATOM     13  H   UNL     1       7.682  -0.015   0.632  0.00  0.00    +0.292 HD
ENDBRANCH   3  12
ENDBRANCH   1   2
BRANCH   1  14
ATOM     14  C   UNL     1       7.016   2.462  -0.753  0.00  0.00    +0.239 C 
ATOM     15  O   UNL     1       7.001   1.585  -1.591  0.00  0.00    -0.273 OA
ATOM     16  N   UNL     1       8.061   3.310  -0.683  0.00  0.00    -0.311 N 
ATOM     17  H   UNL     1       8.073   4.011  -0.013  0.00  0.00    +0.149 HD
BRANCH  16  18
ATOM     18  C   UNL     1       9.179   3.173  -1.620  0.00  0.00    +0.073 C 
ATOM     19  C   UNL     1      10.171   2.139  -1.084  0.00  0.00    +0.022 C 
ATOM     20  C   UNL     1      11.338   1.997  -2.062  0.00  0.00    +0.002 C 
ATOM     21  C   UNL     1      12.042   3.347  -2.217  0.00  0.00    +0.000 C 
ATOM     22  C   UNL     1      11.050   4.381  -2.753  0.00  0.00    +0.002 C 
ATOM     23  C   UNL     1       9.883   4.523  -1.775  0.00  0.00    +0.022 C 
ENDBRANCH  16  18
ENDBRANCH   1  14
BRANCH   1  26
ATOM     24  C   UNL     1       4.409   1.482  -1.388  0.00  0.00    +0.248 C 
ATOM     25  O   UNL     1       3.437   0.796  -1.636  0.00  0.00    -0.270 OA
ATOM     26  N   UNL     1       4.832   1.618  -0.116  0.00  0.00    -0.274 N 
BRANCH  24  29
ATOM     27  C   UNL     1       5.819   2.260  -4.782  0.00  0.00    +0.002 A 
ATOM     28  C   UNL     1       5.147   1.615  -3.764  0.00  0.00    +0.013 A 
ATOM     29  C   UNL     1       5.127   2.169  -2.483  0.00  0.00    +0.038 A 
ATOM     30  C   UNL     1       5.787   3.374  -2.240  0.00  0.00    +0.033 A 
ATOM     31  C   UNL     1       6.456   4.010  -3.267  0.00  0.00    +0.042 A 
ATOM     32  C   UNL     1       6.472   3.454  -4.536  0.00  0.00    +0.020 A 
ATOM     33 CL   UNL     1       7.278   5.510  -2.969  0.00  0.00    -0.084 Cl
ENDBRANCH  24  29
BRANCH  26  34
ATOM     34  C   UNL     1       4.257   0.780   0.940  0.00  0.00    +0.183 C 
BRANCH  34  35
ATOM     35  C   UNL     1       2.928   1.350   1.365  0.00  0.00    +0.122 A 
ATOM     36  C   UNL     1       1.722   0.946   0.924  0.00  0.00    +0.046 A 
ATOM     37  C   UNL     1       0.758   1.746   1.580  0.00  0.00    +0.041 A 
ATOM     38  C   UNL     1       1.432   2.590   2.382  0.00  0.00    +0.195 A 
ATOM     39  O   UNL     1       2.746   2.341   2.252  0.00  0.00    -0.466 OA
ENDBRANCH  34  35
ENDBRANCH  26  34
ENDBRANCH   1  26
TORSDOF 10
