REMARK  Name = ZINC63348626
REMARK  7 active torsions:
REMARK  status: ('A' for Active; 'I' for Inactive)
REMARK    1  A    between atoms: C_1  and  C_2
REMARK    2  A    between atoms: C_7  and  S_12
REMARK    3  A    between atoms: S_12  and  C_13
REMARK    4  A    between atoms: C_13  and  C_14
REMARK    5  A    between atoms: C_20  and  S_22
REMARK    6  A    between atoms: S_22  and  C_23
REMARK    7  A    between atoms: C_23  and  C_24
REMARK                            x       y       z     vdW  Elec       q    Type
REMARK                         _______ _______ _______ _____ _____    ______ ____
ROOT
ATOM      1  C   UNL     1       2.920  -4.166   1.458  0.00  0.00    +0.169 C 
ENDROOT
BRANCH   1   2
ATOM      2  C   UNL     1       4.241  -4.802   1.804  0.00  0.00    +0.229 C 
ATOM      3  O   UNL     1       4.268  -5.870   2.379  0.00  0.00    -0.275 OA
ATOM      4  N   UNL     1       5.393  -4.186   1.474  0.00  0.00    -0.263 N 
ATOM      5  C   UNL     1       6.614  -4.774   1.794  0.00  0.00    +0.189 A 
ATOM      6  N   UNL     1       6.873  -5.919   2.404  0.00  0.00    -0.125 NA
ATOM      7  N   UNL     1       8.052  -6.311   2.619  0.00  0.00    -0.133 NA
ATOM      8  C   UNL     1       9.106  -5.599   2.245  0.00  0.00    +0.161 A 
ATOM      9  S   UNL     1       8.283  -4.200   1.488  0.00  0.00    -0.024 S 
ATOM     10  H   UNL     1       5.372  -3.332   1.014  0.00  0.00    +0.157 HD
BRANCH   8  11
ATOM     11  S   UNL     1      10.825  -5.936   2.434  0.00  0.00    -0.084 S 
BRANCH  11  12
ATOM     12  C   UNL     1      10.867  -7.537   3.287  0.00  0.00    +0.164 C 
BRANCH  12  13
ATOM     13  C   UNL     1      12.266  -7.938   3.508  0.00  0.00    -0.094 C 
ATOM     14  C   UNL     1      13.382  -8.257   3.684  0.00  0.00    +0.004 C 
ENDBRANCH  12  13
ENDBRANCH  11  12
ENDBRANCH   8  11
ENDBRANCH   1   2
BRANCH   1  15
ATOM     15  S   UNL     1       1.567  -5.231   2.029  0.00  0.00    -0.106 S 
BRANCH  15  22
ATOM     16  C   UNL     1      -0.018   1.503   0.010  0.00  0.00    +0.044 C 
ATOM     17  C   UNL     1       0.002  -0.004   0.002  0.00  0.00    -0.048 A 
ATOM     18  C   UNL     1       0.005  -0.672  -1.235  0.00  0.00    +0.005 A 
ATOM     19  C   UNL     1       0.022  -2.017  -1.335  0.00  0.00    +0.028 A 
ATOM     20  C   UNL     1       0.040  -2.834  -0.114  0.00  0.00    +0.061 A 
ATOM     21  N   UNL     1       0.057  -4.120   0.090  0.00  0.00    -0.355 N 
ATOM     22  C   UNL     1       0.067  -4.335   1.542  0.00  0.00    +0.236 C 
ATOM     23  N   UNL     1       0.053  -3.002   2.159  0.00  0.00    -0.355 N 
ATOM     24  C   UNL     1       0.037  -2.127   1.195  0.00  0.00    +0.061 A 
ATOM     25  C   UNL     1       0.022  -0.657   1.181  0.00  0.00    +0.030 A 
ATOM     26  H   UNL     1       0.062  -4.809  -0.593  0.00  0.00    +0.162 HD
ATOM     27  H   UNL     1       0.055  -2.810   3.109  0.00  0.00    +0.162 HD
ENDBRANCH  15  22
ENDBRANCH   1  15
TORSDOF 6
