REMARK  Name = ZINC39427504
REMARK  8 active torsions:
REMARK  status: ('A' for Active; 'I' for Inactive)
REMARK    1  A    between atoms: C_11  and  C_13
REMARK    2  A    between atoms: C_13  and  C_14
REMARK    3  A    between atoms: C_14  and  S_15
REMARK    4  A    between atoms: S_15  and  C_16
REMARK    5  A    between atoms: C_17  and  C_30
REMARK    6  A    between atoms: C_18  and  C_25
REMARK    7  A    between atoms: C_19  and  C_23
REMARK    8  A    between atoms: C_20  and  N_22
REMARK                            x       y       z     vdW  Elec       q    Type
REMARK                         _______ _______ _______ _____ _____    ______ ____
ROOT
ATOM      1  C   UNL     1       8.380  -7.620  -0.118  0.00  0.00    +0.117 A 
ATOM      2  C   UNL     1       9.084  -8.838  -0.136  0.00  0.00    +0.093 A 
ATOM      3  C   UNL     1      10.497  -8.809  -0.150  0.00  0.00    +0.029 A 
ATOM      4  C   UNL     1      11.135  -7.548  -0.145  0.00  0.00    +0.101 A 
ATOM      5  C   UNL     1      10.344  -6.386  -0.126  0.00  0.00    +0.136 A 
ATOM      6  N   UNL     1       9.022  -6.461  -0.118  0.00  0.00    -0.224 NA
ENDROOT
BRANCH   3   7
ATOM      7  C   UNL     1      11.279 -10.054  -0.170  0.00  0.00    +0.022 A 
ATOM      8  C   UNL     1      12.122 -10.540  -1.155  0.00  0.00    +0.016 A 
ATOM      9  C   UNL     1      12.723 -11.749  -0.884  0.00  0.00    +0.008 A 
ATOM     10  C   UNL     1      12.459 -12.367   0.291  0.00  0.00    +0.046 A 
ATOM     11  S   UNL     1      11.394 -11.328   1.072  0.00  0.00    -0.097 S 
ENDBRANCH   3   7
BRANCH   5  12
ATOM     12  N   UNL     1      10.955  -5.148  -0.120  0.00  0.00    -0.342 N 
ATOM     13  H   UNL     1      11.923  -5.085  -0.129  0.00  0.00    +0.144 HD
ATOM     14  H   UNL     1      10.416  -4.341  -0.107  0.00  0.00    +0.144 HD
ENDBRANCH   5  12
BRANCH   4  15
ATOM     15  C   UNL     1      12.564  -7.456  -0.158  0.00  0.00    +0.103 C 
ATOM     16  N   UNL     1      13.697  -7.383  -0.168  0.00  0.00    -0.191 NA
ENDBRANCH   4  15
BRANCH   2  17
ATOM     17  C   UNL     1       8.381 -10.085  -0.141  0.00  0.00    +0.102 C 
ATOM     18  N   UNL     1       7.823 -11.075  -0.144  0.00  0.00    -0.191 NA
ENDBRANCH   2  17
BRANCH   1  19
ATOM     19  S   UNL     1       6.618  -7.636  -0.101  0.00  0.00    -0.104 S 
BRANCH  19  20
ATOM     20  C   UNL     1       6.163  -5.879  -0.087  0.00  0.00    +0.085 C 
BRANCH  20  21
ATOM     21  C   UNL     1       4.639  -5.747  -0.072  0.00  0.00    +0.107 C 
BRANCH  21  32
ATOM     22  C   UNL     1      -0.017   1.366   0.010  0.00  0.00    +0.002 A 
ATOM     23  C   UNL     1       1.157   2.107   0.002  0.00  0.00    +0.001 A 
ATOM     24  C   UNL     1       2.373   1.450  -0.013  0.00  0.00    +0.017 A 
ATOM     25  C   UNL     1       2.401   0.077  -0.020  0.00  0.00    +0.041 A 
ATOM     26  C   UNL     1       1.227  -0.710  -0.013  0.00  0.00    +0.080 A 
ATOM     27  C   UNL     1       0.002  -0.004   0.002  0.00  0.00    +0.029 A 
ATOM     28  N   UNL     1       1.420  -2.047  -0.022  0.00  0.00    -0.225 NA
ATOM     29  C   UNL     1       2.616  -2.587  -0.037  0.00  0.00    +0.165 A 
ATOM     30  S   UNL     1       3.682  -1.153  -0.039  0.00  0.00    -0.052 S 
ATOM     31  N   UNL     1       2.963  -3.929  -0.047  0.00  0.00    -0.265 N 
ATOM     32  C   UNL     1       4.262  -4.288  -0.061  0.00  0.00    +0.219 C 
ATOM     33  O   UNL     1       5.126  -3.438  -0.065  0.00  0.00    -0.275 OA
ATOM     34  H   UNL     1       2.271  -4.609  -0.043  0.00  0.00    +0.157 HD
ENDBRANCH  21  32
ENDBRANCH  20  21
ENDBRANCH  19  20
ENDBRANCH   1  19
TORSDOF 8
