REMARK  Name = ZINC63589264
REMARK  10 active torsions:
REMARK  status: ('A' for Active; 'I' for Inactive)
REMARK    1  A    between atoms: C_1  and  C_2
REMARK    2  A    between atoms: C_2  and  C_3
REMARK    3  A    between atoms: C_8  and  N_9
REMARK    4  A    between atoms: N_11  and  C_12
REMARK    5  A    between atoms: C_12  and  C_13
REMARK    6  A    between atoms: C_13  and  C_14
REMARK    7  A    between atoms: N_23  and  C_24
REMARK    8  A    between atoms: C_24  and  C_26
REMARK    9  A    between atoms: C_29  and  O_32
REMARK   10  A    between atoms: O_32  and  C_33
REMARK                            x       y       z     vdW  Elec       q    Type
REMARK                         _______ _______ _______ _____ _____    ______ ____
ROOT
ATOM      1  N   UNL     1       3.791  -1.475   0.058  0.00  0.00    -0.328 N 
ATOM      2  C   UNL     1       4.881  -0.653   0.055  0.00  0.00    +0.194 C 
ATOM      3  N   UNL     1       5.109   0.181   1.110  0.00  0.00    -0.357 N 
ATOM      4  N   UNL     1       5.717  -0.665  -0.972  0.00  0.00    -0.143 NA
ATOM      5  H   UNL     1       5.857   0.798   1.088  0.00  0.00    +0.162 HD
ATOM      6  H   UNL     1       3.902  -2.428   0.200  0.00  0.00    +0.169 HD
ENDROOT
BRANCH   1  12
ATOM      7  C   UNL     1       1.392  -1.749   0.007  0.00  0.00    -0.024 A 
ATOM      8  C   UNL     1       0.131  -1.218  -0.187  0.00  0.00    +0.005 A 
ATOM      9  C   UNL     1      -0.015   0.112  -0.535  0.00  0.00    +0.000 A 
ATOM     10  C   UNL     1       1.100   0.916  -0.690  0.00  0.00    +0.002 A 
ATOM     11  C   UNL     1       2.363   0.392  -0.498  0.00  0.00    +0.026 A 
ATOM     12  C   UNL     1       2.513  -0.943  -0.143  0.00  0.00    +0.045 A 
BRANCH   7  14
ATOM     13  C   UNL     1       1.658  -3.318   1.908  0.00  0.00    +0.009 C 
ATOM     14  C   UNL     1       1.550  -3.198   0.386  0.00  0.00    +0.034 C 
ENDBRANCH   7  14
ENDBRANCH   1  12
BRANCH   4  15
ATOM     15  C   UNL     1       5.399  -1.339  -2.086  0.00  0.00    +0.270 C 
ATOM     16  O   UNL     1       4.293  -1.837  -2.202  0.00  0.00    -0.268 OA
BRANCH  15  17
ATOM     17  C   UNL     1       6.390  -1.476  -3.175  0.00  0.00    +0.039 A 
ATOM     18  C   UNL     1       7.694  -1.010  -2.997  0.00  0.00    +0.017 A 
ATOM     19  C   UNL     1       8.615  -1.141  -4.013  0.00  0.00    +0.046 A 
ATOM     20  C   UNL     1       8.248  -1.735  -5.214  0.00  0.00    +0.120 A 
ATOM     21  C   UNL     1       6.950  -2.199  -5.395  0.00  0.00    +0.046 A 
ATOM     22  C   UNL     1       6.026  -2.078  -4.381  0.00  0.00    +0.017 A 
BRANCH  20  23
ATOM     23  O   UNL     1       9.157  -1.861  -6.214  0.00  0.00    -0.495 OA
ATOM     24  C   UNL     1       8.712  -2.481  -7.422  0.00  0.00    +0.277 C 
ENDBRANCH  20  23
ENDBRANCH  15  17
ENDBRANCH   4  15
BRANCH   3  25
ATOM     25  C   UNL     1       4.224   0.145   2.277  0.00  0.00    +0.120 C 
BRANCH  25  26
ATOM     26  C   UNL     1       4.668   1.206   3.287  0.00  0.00    +0.054 C 
BRANCH  26  27
ATOM     27  C   UNL     1       3.833   1.091   4.536  0.00  0.00    -0.040 C 
ATOM     28  C   UNL     1       4.032   0.245   5.572  0.00  0.00    -0.001 A 
ATOM     29  C   UNL     1       5.046  -0.783   5.836  0.00  0.00    +0.010 A 
ATOM     30  C   UNL     1       4.983  -1.486   6.989  0.00  0.00    +0.001 A 
ATOM     31  C   UNL     1       3.976  -1.258   7.937  0.00  0.00    +0.002 A 
ATOM     32  C   UNL     1       3.010  -0.332   7.766  0.00  0.00    +0.026 A 
ATOM     33  C   UNL     1       2.979   0.466   6.589  0.00  0.00    +0.043 A 
ATOM     34  N   UNL     1       2.161   1.413   6.197  0.00  0.00    -0.380 N 
ATOM     35  C   UNL     1       2.606   1.903   4.888  0.00  0.00    +0.144 C 
ATOM     36  H   UNL     1       1.392   1.737   6.691  0.00  0.00    +0.160 HD
ENDBRANCH  26  27
ENDBRANCH  25  26
ENDBRANCH   3  25
TORSDOF 8
