REMARK  Name = ZINC59830269
REMARK  8 active torsions:
REMARK  status: ('A' for Active; 'I' for Inactive)
REMARK    1  A    between atoms: C_1  and  C_2
REMARK    2  A    between atoms: C_2  and  C_24
REMARK    3  A    between atoms: N_3  and  N_4
REMARK    4  A    between atoms: C_7  and  S_10
REMARK    5  A    between atoms: S_10  and  C_11
REMARK    6  A    between atoms: C_11  and  C_12
REMARK    7  A    between atoms: C_12  and  C_14
REMARK    8  A    between atoms: C_29  and  O_30
REMARK                            x       y       z     vdW  Elec       q    Type
REMARK                         _______ _______ _______ _____ _____    ______ ____
ROOT
ATOM      1  N   UNL     1      -0.727  -0.038   2.342  0.00  0.00    -0.205 N 
ATOM      2  C   UNL     1      -0.606  -0.727   3.535  0.00  0.00    +0.232 A 
ATOM      3  N   UNL     1      -0.377  -2.016   3.665  0.00  0.00    -0.186 NA
ATOM      4  C   UNL     1      -0.321  -2.335   4.963  0.00  0.00    +0.210 A 
ATOM      5  N   UNL     1      -0.515  -1.251   5.677  0.00  0.00    -0.144 NA
ATOM      6  N   UNL     1      -0.697  -0.193   4.772  0.00  0.00    -0.245 N 
ATOM      7  H   UNL     1      -0.893   0.917   2.348  0.00  0.00    +0.177 HD
ATOM      8  H   UNL     1      -0.859   0.738   4.993  0.00  0.00    +0.192 HD
ENDROOT
BRANCH   1  11
ATOM      9  C   UNL     1      -0.981   1.409   0.013  0.00  0.00    +0.068 C 
ATOM     10  C   UNL     1      -0.724  -0.076   0.004  0.00  0.00    +0.067 C 
ATOM     11  N   UNL     1      -0.610  -0.722   1.125  0.00  0.00    -0.184 NA
BRANCH  10  12
ATOM     12  C   UNL     1      -0.600  -0.794  -1.276  0.00  0.00    +0.039 A 
ATOM     13  C   UNL     1      -0.716  -0.102  -2.484  0.00  0.00    +0.013 A 
ATOM     14  C   UNL     1      -0.600  -0.781  -3.679  0.00  0.00    +0.001 A 
ATOM     15  C   UNL     1      -0.369  -2.146  -3.687  0.00  0.00    +0.004 A 
ATOM     16  C   UNL     1      -0.253  -2.842  -2.499  0.00  0.00    +0.046 A 
ATOM     17  C   UNL     1      -0.361  -2.175  -1.290  0.00  0.00    +0.126 A 
BRANCH  17  18
ATOM     18  O   UNL     1      -0.240  -2.857  -0.121  0.00  0.00    -0.506 OA
ATOM     19  H   UNL     1      -1.076  -3.206   0.219  0.00  0.00    +0.292 HD
ENDBRANCH  17  18
ENDBRANCH  10  12
ENDBRANCH   1  11
BRANCH   4  20
ATOM     20  S   UNL     1      -0.034  -3.949   5.610  0.00  0.00    -0.077 S 
BRANCH  20  21
ATOM     21  C   UNL     1      -0.077  -3.715   7.408  0.00  0.00    +0.152 C 
BRANCH  21  22
ATOM     22  C   UNL     1       0.158  -5.037   8.092  0.00  0.00    +0.147 C 
ATOM     23  O   UNL     1       0.336  -6.034   7.434  0.00  0.00    -0.296 OA
BRANCH  22  24
ATOM     24  C   UNL     1       0.170  -5.115   9.597  0.00  0.00    +0.062 C 
ATOM     25  C   UNL     1       1.471  -4.509  10.128  0.00  0.00    +0.000 C 
ATOM     26  C   UNL     1       1.484  -4.588  11.656  0.00  0.00    +0.007 C 
ATOM     27  C   UNL     1       1.388  -6.051  12.092  0.00  0.00    -0.010 C 
ATOM     28  C   UNL     1       2.580  -6.830  11.531  0.00  0.00    +0.007 C 
ATOM     29  C   UNL     1       2.567  -6.750  10.003  0.00  0.00    -0.010 C 
ATOM     30  C   UNL     1       2.663  -5.287   9.567  0.00  0.00    +0.007 C 
ATOM     31  C   UNL     1       1.266  -7.357   9.472  0.00  0.00    +0.007 C 
ATOM     32  C   UNL     1       0.074  -6.578  10.033  0.00  0.00    +0.000 C 
ATOM     33  C   UNL     1       0.087  -6.657  11.561  0.00  0.00    +0.007 C 
ENDBRANCH  22  24
ENDBRANCH  21  22
ENDBRANCH  20  21
ENDBRANCH   4  20
TORSDOF 7
