REMARK  Name = ZINC44861267
REMARK  6 active torsions:
REMARK  status: ('A' for Active; 'I' for Inactive)
REMARK    1  A    between atoms: C_1  and  C_2
REMARK    2  A    between atoms: C_2  and  C_3
REMARK    3  A    between atoms: C_3  and  C_5
REMARK    4  A    between atoms: C_3  and  C_9
REMARK    5  A    between atoms: N_6  and  O_7
REMARK    6  A    between atoms: N_11  and  C_12
REMARK                            x       y       z     vdW  Elec       q    Type
REMARK                         _______ _______ _______ _____ _____    ______ ____
ROOT
ATOM      1  C   UNL     1      -1.946  -1.866   1.361  0.00  0.00    +0.228 C 
ATOM      2  O   UNL     1      -3.020  -2.395   1.554  0.00  0.00    -0.275 OA
ATOM      3  N   UNL     1      -0.842  -2.622   1.199  0.00  0.00    -0.283 N 
ATOM      4  H   UNL     1       0.003  -2.204   0.972  0.00  0.00    +0.155 HD
ENDROOT
BRANCH   3   5
ATOM      5  C   UNL     1      -0.915  -4.011   1.359  0.00  0.00    +0.062 A 
ATOM      6  C   UNL     1      -1.183  -4.825   0.265  0.00  0.00    +0.041 A 
ATOM      7  C   UNL     1      -1.254  -6.196   0.426  0.00  0.00    +0.032 A 
ATOM      8  C   UNL     1      -1.060  -6.758   1.675  0.00  0.00    +0.020 A 
ATOM      9  C   UNL     1      -0.794  -5.950   2.767  0.00  0.00    +0.032 A 
ATOM     10  C   UNL     1      -0.715  -4.579   2.611  0.00  0.00    +0.041 A 
ATOM     11 BR   UNL     1      -0.344  -3.477   4.102  0.00  0.00    -0.048 Br
ATOM     12 BR   UNL     1      -1.158  -8.634   1.891  0.00  0.00    -0.050 Br
ATOM     13 BR   UNL     1      -1.449  -4.057  -1.442  0.00  0.00    -0.048 Br
ENDBRANCH   3   5
BRANCH   1  14
ATOM     14  C   UNL     1      -1.846  -0.364   1.300  0.00  0.00    +0.141 C 
BRANCH  14  15
ATOM     15  C   UNL     1      -3.211   0.240   1.509  0.00  0.00    +0.144 C 
ATOM     16  N   UNL     1      -3.941   0.555   0.491  0.00  0.00    -0.076 NA
ATOM     17  N   UNL     1      -3.681   0.454   2.786  0.00  0.00    -0.343 N 
ATOM     18  H   UNL     1      -3.133   0.217   3.551  0.00  0.00    +0.144 HD
ATOM     19  H   UNL     1      -4.559   0.843   2.921  0.00  0.00    +0.144 HD
BRANCH  16  20
ATOM     20  O   UNL     1      -5.223   1.122   0.688  0.00  0.00    -0.408 OA
ATOM     21  H   UNL     1      -5.694   1.325  -0.133  0.00  0.00    +0.328 HD
ENDBRANCH  16  20
ENDBRANCH  14  15
BRANCH  14  23
ATOM     22  C   UNL     1      -1.087   1.571  -0.087  0.00  0.00    +0.005 C 
ATOM     23  C   UNL     1      -1.307   0.057  -0.069  0.00  0.00    +0.017 C 
ENDBRANCH  14  23
ENDBRANCH   1  14
TORSDOF 5
