REMARK  Name = ZINC52839666
REMARK  10 active torsions:
REMARK  status: ('A' for Active; 'I' for Inactive)
REMARK    1  A    between atoms: C_1  and  C_2
REMARK    2  A    between atoms: C_2  and  C_3
REMARK    3  A    between atoms: C_2  and  C_4
REMARK    4  A    between atoms: C_2  and  C_5
REMARK    5  A    between atoms: C_7  and  C_12
REMARK    6  A    between atoms: C_8  and  N_11
REMARK    7  A    between atoms: N_9  and  N_10
REMARK    8  A    between atoms: C_15  and  N_18
REMARK    9  A    between atoms: N_18  and  C_19
REMARK   10  A    between atoms: N_18  and  C_20
REMARK                            x       y       z     vdW  Elec       q    Type
REMARK                         _______ _______ _______ _____ _____    ______ ____
ROOT
ATOM      1  C   UNL     1       0.707  -0.490  -1.238  0.00  0.00    +0.112 A 
ATOM      2  N   UNL     1       1.306   0.266  -2.113  0.00  0.00    -0.340 N 
ATOM      3  C   UNL     1       1.827  -0.506  -3.090  0.00  0.00    +0.088 A 
ATOM      4  C   UNL     1       1.530  -1.807  -2.796  0.00  0.00    +0.139 A 
ATOM      5  N   UNL     1       0.827  -1.792  -1.621  0.00  0.00    -0.240 N 
ATOM      6  H   UNL     1       1.368   1.233  -2.070  0.00  0.00    +0.167 HD
ENDROOT
BRANCH   3   7
ATOM      7  C   UNL     1       2.585  -0.029  -4.271  0.00  0.00    +0.002 A 
ATOM      8  C   UNL     1       2.299  -0.538  -5.537  0.00  0.00    +0.012 A 
ATOM      9  C   UNL     1       3.005  -0.091  -6.634  0.00  0.00    +0.024 A 
ATOM     10  C   UNL     1       4.001   0.865  -6.478  0.00  0.00    +0.029 A 
ATOM     11  C   UNL     1       4.289   1.374  -5.218  0.00  0.00    +0.024 A 
ATOM     12  C   UNL     1       3.582   0.935  -4.118  0.00  0.00    +0.012 A 
BRANCH  10  13
ATOM     13  N   UNL     1       4.716   1.316  -7.592  0.00  0.00    -0.336 N 
ATOM     14  C   UNL     1       4.414   0.780  -8.922  0.00  0.00    +0.129 C 
ATOM     15  C   UNL     1       5.766   2.324  -7.430  0.00  0.00    +0.129 C 
ENDBRANCH  10  13
ENDBRANCH   3   7
BRANCH   1  17
ATOM     16  C   UNL     1      -0.019   1.526   0.010  0.00  0.00    +0.018 C 
ATOM     17  C   UNL     1       0.002  -0.004   0.002  0.00  0.00    +0.020 C 
ATOM     18  C   UNL     1       0.742  -0.511   1.242  0.00  0.00    +0.018 C 
ATOM     19  C   UNL     1      -1.433  -0.534   0.013  0.00  0.00    +0.018 C 
ENDBRANCH   1  17
BRANCH   5  20
ATOM     20  N   UNL     1       0.333  -2.880  -0.959  0.00  0.00    -0.295 N 
ATOM     21  H   UNL     1      -0.602  -3.098  -1.268  0.00  0.00    +0.163 HD
ATOM     22  H   UNL     1       0.945  -3.675  -1.064  0.00  0.00    +0.163 HD
ENDBRANCH   5  20
BRANCH   4  23
ATOM     23  N   UNL     1       1.878  -2.929  -3.542  0.00  0.00    -0.342 N 
ATOM     24  H   UNL     1       2.384  -2.828  -4.364  0.00  0.00    +0.144 HD
ATOM     25  H   UNL     1       1.615  -3.813  -3.241  0.00  0.00    +0.144 HD
ENDBRANCH   4  23
TORSDOF 5
