REMARK  Name = ZINC62953154
REMARK  5 active torsions:
REMARK  status: ('A' for Active; 'I' for Inactive)
REMARK    1  A    between atoms: C_1  and  C_2
REMARK    2  A    between atoms: C_2  and  C_3
REMARK    3  A    between atoms: C_3  and  C_18
REMARK    4  A    between atoms: N_6  and  C_9
REMARK    5  A    between atoms: C_12  and  N_16
REMARK                            x       y       z     vdW  Elec       q    Type
REMARK                         _______ _______ _______ _____ _____    ______ ____
ROOT
ATOM      1  C   UNL     1       0.434  -2.721  -4.763  0.00  0.00    +0.101 A 
ATOM      2  C   UNL     1      -0.868  -3.208  -4.777  0.00  0.00    +0.149 A 
ATOM      3  C   UNL     1      -1.297  -4.002  -5.826  0.00  0.00    +0.063 A 
ATOM      4  C   UNL     1      -0.428  -4.312  -6.863  0.00  0.00    +0.030 A 
ATOM      5  C   UNL     1       0.872  -3.825  -6.849  0.00  0.00    +0.063 A 
ATOM      6  C   UNL     1       1.301  -3.027  -5.804  0.00  0.00    +0.149 A 
ATOM      7  F   UNL     1       2.565  -2.549  -5.793  0.00  0.00    -0.203 F 
ATOM      8  F   UNL     1      -1.713  -2.908  -3.767  0.00  0.00    -0.203 F 
ENDROOT
BRANCH   1  12
ATOM      9  C   UNL     1       0.718  -0.497  -1.257  0.00  0.00    -0.029 C 
ATOM     10  C   UNL     1      -0.021   0.011  -2.497  0.00  0.00    +0.025 C 
ATOM     11  C   UNL     1       0.718  -0.456  -3.754  0.00  0.00    +0.106 C 
ATOM     12  N   UNL     1       0.870  -1.916  -3.699  0.00  0.00    -0.325 N 
ATOM     13  C   UNL     1       1.487  -2.518  -2.509  0.00  0.00    +0.106 C 
ATOM     14  C   UNL     1       0.739  -2.028  -1.265  0.00  0.00    +0.025 C 
ATOM     15  C   UNL     1       2.154   0.032  -1.267  0.00  0.00    +0.011 C 
BRANCH   9  17
ATOM     16  C   UNL     1      -0.019   1.526   0.010  0.00  0.00    +0.004 C 
ATOM     17  C   UNL     1       0.002  -0.004   0.002  0.00  0.00    +0.003 C 
ENDBRANCH   9  17
ENDBRANCH   1  12
BRANCH   4  18
ATOM     18  N   UNL     1      -0.863  -5.116  -7.923  0.00  0.00    -0.358 N 
ATOM     19  H   UNL     1      -1.771  -5.456  -7.933  0.00  0.00    +0.142 HD
ATOM     20  H   UNL     1      -0.256  -5.332  -8.648  0.00  0.00    +0.142 HD
ENDBRANCH   4  18
TORSDOF 3
