REMARK  Name = ZINC33494898
REMARK  7 active torsions:
REMARK  status: ('A' for Active; 'I' for Inactive)
REMARK    1  A    between atoms: C_1  and  C_2
REMARK    2  A    between atoms: C_2  and  C_3
REMARK    3  A    between atoms: C_2  and  C_4
REMARK    4  A    between atoms: C_4  and  N_5
REMARK    5  A    between atoms: N_5  and  C_6
REMARK    6  A    between atoms: C_7  and  C_14
REMARK    7  A    between atoms: N_16  and  N_17
REMARK                            x       y       z     vdW  Elec       q    Type
REMARK                         _______ _______ _______ _____ _____    ______ ____
ROOT
ATOM      1  C   UNL     1       1.201  -0.684  -0.012  0.00  0.00    +0.054 A 
ATOM      2  C   UNL     1       2.396   0.051  -0.000  0.00  0.00    +0.061 A 
ATOM      3  C   UNL     1       2.347   1.448   0.009  0.00  0.00    +0.030 A 
ATOM      4  C   UNL     1       1.129   2.093   0.006  0.00  0.00    +0.020 A 
ATOM      5  C   UNL     1      -0.051   1.364  -0.005  0.00  0.00    +0.032 A 
ATOM      6  C   UNL     1      -0.018  -0.016  -0.014  0.00  0.00    +0.040 A 
ATOM      7 BR   UNL     1      -1.634  -0.999  -0.031  0.00  0.00    -0.048 Br
ATOM      8 BR   UNL     1       1.065   3.983   0.018  0.00  0.00    -0.050 Br
ENDROOT
BRANCH   2   9
ATOM      9  C   UNL     1       3.695  -0.645   0.003  0.00  0.00    +0.259 C 
ATOM     10  O   UNL     1       3.734  -1.860  -0.004  0.00  0.00    -0.269 OA
ATOM     11  N   UNL     1       4.840   0.066   0.014  0.00  0.00    -0.250 N 
ATOM     12  H   UNL     1       4.806   1.165   0.021  0.00  0.00    +0.169 HD
BRANCH  11  13
ATOM     13  N   UNL     1       6.045  -0.580   0.017  0.00  0.00    -0.254 NA
ATOM     14  H   UNL     1       6.857   0.161   0.026  0.00  0.00    +0.140 HD
ATOM     15  H   UNL     1       6.117  -1.215   0.912  0.00  0.00    +0.140 HD
ENDBRANCH  11  13
ENDBRANCH   2   9
BRANCH   1  16
ATOM     16  N   UNL     1       1.236  -2.073  -0.021  0.00  0.00    -0.342 N 
ATOM     17  H   UNL     1       1.339  -2.769   0.824  0.00  0.00    +0.146 HD
BRANCH  16  18
ATOM     18  C   UNL     1       1.112  -2.594  -1.389  0.00  0.00    +0.104 C 
BRANCH  18  20
ATOM     19  C   UNL     1       0.760  -4.654  -2.759  0.00  0.00    +0.009 C 
ATOM     20  C   UNL     1       1.014  -4.120  -1.348  0.00  0.00    -0.000 C 
ATOM     21  C   UNL     1       2.324  -4.700  -0.811  0.00  0.00    +0.009 C 
ENDBRANCH  18  20
ENDBRANCH  16  18
ENDBRANCH   1  16
TORSDOF 5
