REMARK  Name = ZINC38573534
REMARK  6 active torsions:
REMARK  status: ('A' for Active; 'I' for Inactive)
REMARK    1  A    between atoms: C_1  and  C_2
REMARK    2  A    between atoms: C_3  and  C_34
REMARK    3  A    between atoms: C_14  and  C_19
REMARK    4  A    between atoms: C_16  and  C_18
REMARK    5  A    between atoms: C_19  and  C_20
REMARK    6  A    between atoms: C_20  and  N_22
REMARK                            x       y       z     vdW  Elec       q    Type
REMARK                         _______ _______ _______ _____ _____    ______ ____
ROOT
ATOM      1  C   UNL     1      -0.027   1.531   0.042  0.00  0.00    +0.048 C 
ATOM      2  C   UNL     1      -0.017   0.024   0.033  0.00  0.00    -0.002 A 
ATOM      3  C   UNL     1      -0.025  -0.774  -1.043  0.00  0.00    +0.106 A 
ATOM      4  O   UNL     1      -0.012  -2.064  -0.662  0.00  0.00    -0.460 OA
ATOM      5  C   UNL     1       0.007  -2.169   0.681  0.00  0.00    +0.139 A 
ATOM      6  C   UNL     1       0.009  -0.864   1.202  0.00  0.00    +0.024 A 
ATOM      7  C   UNL     1       0.028  -0.662   2.579  0.00  0.00    +0.019 A 
ATOM      8  C   UNL     1       0.052  -1.735   3.434  0.00  0.00    -0.001 A 
ATOM      9  C   UNL     1       0.061  -3.028   2.927  0.00  0.00    +0.139 A 
ATOM     10  C   UNL     1       0.028  -3.245   1.556  0.00  0.00    +0.093 A 
ATOM     11  O   UNL     1       0.106  -4.116   3.745  0.00  0.00    -0.425 OA
ATOM     12  C   UNL     1      -0.079  -3.913   5.064  0.00  0.00    +0.317 C 
ATOM     13  O   UNL     1      -0.744  -4.668   5.733  0.00  0.00    -0.250 OA
ATOM     14  C   UNL     1       0.583  -2.691   5.669  0.00  0.00    +0.114 C 
ATOM     15  C   UNL     1       0.063  -1.462   4.918  0.00  0.00    +0.034 C 
ATOM     16  C   UNL     1       0.972  -0.266   5.208  0.00  0.00    +0.013 C 
ATOM     17  C   UNL     1      -0.046  -0.296  -2.471  0.00  0.00    +0.086 C 
ENDROOT
BRANCH  14  18
ATOM     18  C   UNL     1       2.102  -2.793   5.511  0.00  0.00    +0.113 C 
BRANCH  18  19
ATOM     19  C   UNL     1       2.614  -3.959   6.317  0.00  0.00    +0.240 C 
ATOM     20  O   UNL     1       1.838  -4.643   6.956  0.00  0.00    -0.274 OA
BRANCH  19  21
ATOM     21  N   UNL     1       3.913  -4.239   6.329  0.00  0.00    -0.147 NA
ATOM     22  C   UNL     1       4.378  -5.202   7.121  0.00  0.00    +0.198 A 
ATOM     23  N   UNL     1       3.617  -6.040   7.872  0.00  0.00    -0.326 N 
ATOM     24  H   UNL     1       2.648  -6.038   7.920  0.00  0.00    +0.169 HD
ATOM     25  C   UNL     1       4.465  -6.903   8.559  0.00  0.00    +0.065 A 
ATOM     26  C   UNL     1       4.240  -7.941   9.452  0.00  0.00    +0.028 A 
ATOM     27  C   UNL     1       5.309  -8.634   9.984  0.00  0.00    +0.002 A 
ATOM     28  C   UNL     1       6.605  -8.297   9.631  0.00  0.00    +0.002 A 
ATOM     29  C   UNL     1       6.840  -7.266   8.744  0.00  0.00    +0.028 A 
ATOM     30  C   UNL     1       5.772  -6.563   8.203  0.00  0.00    +0.065 A 
ATOM     31  N   UNL     1       5.690  -5.506   7.303  0.00  0.00    -0.326 N 
ATOM     32  H   UNL     1       6.441  -5.061   6.879  0.00  0.00    +0.169 HD
ENDBRANCH  19  21
ENDBRANCH  18  19
ENDBRANCH  14  18
TORSDOF 3
