REMARK  Name = ZINC49555115
REMARK  7 active torsions:
REMARK  status: ('A' for Active; 'I' for Inactive)
REMARK    1  A    between atoms: C_1  and  C_2
REMARK    2  A    between atoms: C_2  and  C_3
REMARK    3  A    between atoms: C_2  and  C_4
REMARK    4  A    between atoms: C_4  and  C_6
REMARK    5  A    between atoms: C_4  and  N_11
REMARK    6  A    between atoms: N_11  and  C_12
REMARK    7  A    between atoms: C_15  and  N_22
REMARK                            x       y       z     vdW  Elec       q    Type
REMARK                         _______ _______ _______ _____ _____    ______ ____
ROOT
ATOM      1  C   UNL     1      -1.039  -2.687   1.220  0.00  0.00    +0.052 A 
ATOM      2  C   UNL     1      -1.021  -1.990   2.408  0.00  0.00    +0.027 A 
ATOM      3  C   UNL     1      -0.908  -2.654   3.626  0.00  0.00    +0.025 A 
ATOM      4  C   UNL     1      -0.813  -4.028   3.672  0.00  0.00    +0.034 A 
ATOM      5  C   UNL     1      -0.829  -4.769   2.472  0.00  0.00    +0.021 A 
ATOM      6  C   UNL     1      -0.948  -4.094   1.232  0.00  0.00    +0.069 A 
ATOM      7  N   UNL     1      -0.969  -4.794   0.094  0.00  0.00    -0.359 N 
ATOM      8  C   UNL     1      -0.886  -6.102   0.096  0.00  0.00    +0.083 A 
ATOM      9  C   UNL     1      -0.773  -6.827   1.281  0.00  0.00    +0.018 A 
ATOM     10  C   UNL     1      -0.733  -6.171   2.479  0.00  0.00    +0.013 A 
ATOM     11  H   UNL     1      -1.047  -4.324  -0.751  0.00  0.00    +0.165 HD
ENDROOT
BRANCH   4  12
ATOM     12  N   UNL     1      -0.700  -4.683   4.900  0.00  0.00    -0.357 N 
ATOM     13  H   UNL     1      -0.688  -4.171   5.724  0.00  0.00    +0.142 HD
ATOM     14  H   UNL     1      -0.632  -5.650   4.929  0.00  0.00    +0.142 HD
ENDBRANCH   4  12
BRANCH   1  15
ATOM     15  N   UNL     1      -1.152  -2.001   0.006  0.00  0.00    -0.335 N 
ATOM     16  H   UNL     1      -1.094  -2.486  -0.832  0.00  0.00    +0.147 HD
BRANCH  15  17
ATOM     17  C   UNL     1      -1.359  -0.551   0.001  0.00  0.00    +0.110 C 
BRANCH  17  18
ATOM     18  C   UNL     1      -2.820  -0.251   0.218  0.00  0.00    +0.010 A 
ATOM     19  C   UNL     1      -3.389   0.730   0.961  0.00  0.00    +0.013 A 
ATOM     20  C   UNL     1      -4.768   0.815   1.015  0.00  0.00    +0.008 A 
ATOM     21  C   UNL     1      -5.510  -0.084   0.323  0.00  0.00    +0.045 A 
ATOM     22  S   UNL     1      -4.251  -1.091  -0.443  0.00  0.00    -0.100 S 
ENDBRANCH  17  18
BRANCH  17  24
ATOM     23  C   UNL     1      -1.066   1.545  -1.328  0.00  0.00    +0.009 C 
ATOM     24  C   UNL     1      -0.916   0.023  -1.347  0.00  0.00    +0.008 C 
ATOM     25  C   UNL     1       0.548  -0.342  -1.600  0.00  0.00    +0.009 C 
ENDBRANCH  17  24
ENDBRANCH  15  17
ENDBRANCH   1  15
TORSDOF 5
