REMARK  Name = ZINC36568691
REMARK  11 active torsions:
REMARK  status: ('A' for Active; 'I' for Inactive)
REMARK    1  A    between atoms: C_1  and  C_2
REMARK    2  A    between atoms: C_2  and  C_3
REMARK    3  A    between atoms: C_3  and  N_4
REMARK    4  A    between atoms: N_4  and  C_5
REMARK    5  A    between atoms: C_5  and  C_7
REMARK    6  A    between atoms: C_5  and  C_16
REMARK    7  A    between atoms: C_8  and  O_15
REMARK    8  A    between atoms: C_10  and  O_14
REMARK    9  A    between atoms: C_12  and  O_13
REMARK   10  A    between atoms: N_18  and  C_19
REMARK   11  A    between atoms: C_25  and  C_27
REMARK                            x       y       z     vdW  Elec       q    Type
REMARK                         _______ _______ _______ _____ _____    ______ ____
ROOT
ATOM      1  C   UNL     1      -0.513  -2.769  -2.046  0.00  0.00    +0.199 C 
ENDROOT
BRANCH   1   2
ATOM      2  C   UNL     1      -1.682  -2.614  -1.108  0.00  0.00    +0.065 A 
ATOM      3  C   UNL     1      -2.266  -3.735  -0.536  0.00  0.00    +0.129 A 
ATOM      4  C   UNL     1      -3.341  -3.592   0.327  0.00  0.00    +0.091 A 
ATOM      5  C   UNL     1      -3.833  -2.329   0.619  0.00  0.00    +0.124 A 
ATOM      6  C   UNL     1      -3.249  -1.208   0.048  0.00  0.00    +0.091 A 
ATOM      7  C   UNL     1      -2.171  -1.351  -0.812  0.00  0.00    +0.129 A 
BRANCH   7   8
ATOM      8  O   UNL     1      -1.595  -0.252  -1.368  0.00  0.00    -0.506 OA
ATOM      9  H   UNL     1      -1.985   0.011  -2.213  0.00  0.00    +0.292 HD
ENDBRANCH   7   8
BRANCH   5  10
ATOM     10  O   UNL     1      -4.888  -2.189   1.464  0.00  0.00    -0.507 OA
ATOM     11  H   UNL     1      -4.637  -2.090   2.393  0.00  0.00    +0.292 HD
ENDBRANCH   5  10
BRANCH   3  12
ATOM     12  O   UNL     1      -1.784  -4.973  -0.822  0.00  0.00    -0.506 OA
ATOM     13  H   UNL     1      -1.143  -5.304  -0.178  0.00  0.00    +0.292 HD
ENDBRANCH   3  12
ENDBRANCH   1   2
BRANCH   1  14
ATOM     14  C   UNL     1      -0.994  -2.660  -3.470  0.00  0.00    +0.239 C 
ATOM     15  O   UNL     1      -0.399  -1.956  -4.259  0.00  0.00    -0.273 OA
ATOM     16  N   UNL     1      -2.085  -3.345  -3.868  0.00  0.00    -0.311 N 
ATOM     17  H   UNL     1      -2.560  -3.908  -3.238  0.00  0.00    +0.149 HD
BRANCH  16  18
ATOM     18  C   UNL     1      -2.552  -3.238  -5.252  0.00  0.00    +0.073 C 
ATOM     19  C   UNL     1      -3.453  -2.009  -5.394  0.00  0.00    +0.022 C 
ATOM     20  C   UNL     1      -3.941  -1.898  -6.839  0.00  0.00    +0.002 C 
ATOM     21  C   UNL     1      -4.731  -3.155  -7.209  0.00  0.00    +0.000 C 
ATOM     22  C   UNL     1      -3.831  -4.384  -7.068  0.00  0.00    +0.002 C 
ATOM     23  C   UNL     1      -3.343  -4.495  -5.622  0.00  0.00    +0.022 C 
ENDBRANCH  16  18
ENDBRANCH   1  14
BRANCH   1  24
ATOM     24  N   UNL     1       0.470  -1.716  -1.780  0.00  0.00    -0.279 N 
ATOM     25  C   UNL     1       1.278  -1.804  -0.706  0.00  0.00    +0.283 C 
ATOM     26  O   UNL     1       1.129  -2.708   0.095  0.00  0.00    -0.267 OA
BRANCH  25  27
ATOM     27  C   UNL     1       2.337  -0.811  -0.501  0.00  0.00    +0.189 A 
ATOM     28  C   UNL     1       3.245  -0.805   0.518  0.00  0.00    +0.054 A 
ATOM     29  C   UNL     1       4.065   0.318   0.322  0.00  0.00    +0.042 A 
ATOM     30  C   UNL     1       3.627   0.939  -0.795  0.00  0.00    +0.196 A 
ATOM     31  O   UNL     1       2.589   0.254  -1.291  0.00  0.00    -0.458 OA
ENDBRANCH  25  27
BRANCH  24  32
ATOM     32  C   UNL     1       0.574  -0.567  -2.683  0.00  0.00    +0.109 C 
BRANCH  32  34
ATOM     33  C   UNL     1       1.732   0.329  -4.707  0.00  0.00    +0.005 C 
ATOM     34  C   UNL     1       1.719  -0.797  -3.672  0.00  0.00    +0.016 C 
ENDBRANCH  32  34
ENDBRANCH  24  32
ENDBRANCH   1  24
TORSDOF 10
