REMARK  Name = ZINC14467882
REMARK  6 active torsions:
REMARK  status: ('A' for Active; 'I' for Inactive)
REMARK    1  A    between atoms: C_6  and  S_7
REMARK    2  A    between atoms: S_7  and  N_10
REMARK    3  A    between atoms: N_10  and  C_11
REMARK    4  A    between atoms: C_11  and  C_12
REMARK    5  A    between atoms: C_25  and  C_28
REMARK    6  A    between atoms: C_33  and  O_34
REMARK                            x       y       z     vdW  Elec       q    Type
REMARK                         _______ _______ _______ _____ _____    ______ ____
ROOT
ATOM      1  C   UNL     1      -3.411   0.693  -4.364  0.00  0.00    +0.030 A 
ATOM      2  C   UNL     1      -3.089   0.320  -5.653  0.00  0.00    +0.025 A 
ATOM      3  C   UNL     1      -2.209   1.088  -6.406  0.00  0.00    +0.031 A 
ATOM      4  C   UNL     1      -1.657   2.244  -5.843  0.00  0.00    -0.018 A 
ATOM      5  C   UNL     1      -1.982   2.605  -4.554  0.00  0.00    +0.034 A 
ATOM      6  C   UNL     1      -2.854   1.831  -3.811  0.00  0.00    +0.106 A 
ATOM      7  C   UNL     1      -0.745   3.046  -6.687  0.00  0.00    +0.049 C 
ATOM      8  C   UNL     1       0.310   3.912  -6.102  0.00  0.00    -0.023 C 
ATOM      9  C   UNL     1       1.335   3.960  -6.944  0.00  0.00    -0.030 C 
ATOM     10  C   UNL     1       1.067   3.064  -8.171  0.00  0.00    +0.033 C 
ATOM     11  C   UNL     1       0.060   2.063  -7.589  0.00  0.00    +0.029 C 
ATOM     12  C   UNL     1      -0.957   1.468  -8.547  0.00  0.00    +0.109 C 
ATOM     13  N   UNL     1      -1.883   0.679  -7.705  0.00  0.00    -0.336 N 
ATOM     14  H   UNL     1      -2.271  -0.137  -8.059  0.00  0.00    +0.147 HD
ENDROOT
BRANCH  12  15
ATOM     15  C   UNL     1      -1.707   2.562  -9.261  0.00  0.00    +0.017 A 
ATOM     16  C   UNL     1      -2.887   3.050  -8.732  0.00  0.00    +0.029 A 
ATOM     17  C   UNL     1      -3.576   4.056  -9.387  0.00  0.00    +0.043 A 
ATOM     18  C   UNL     1      -3.086   4.574 -10.572  0.00  0.00    +0.043 A 
ATOM     19  C   UNL     1      -1.907   4.088 -11.105  0.00  0.00    +0.084 A 
ATOM     20  C   UNL     1      -1.211   3.084 -10.446  0.00  0.00    +0.140 A 
ATOM     21 CL   UNL     1      -1.292   4.740 -12.592  0.00  0.00    -0.080 Cl
ATOM     22 CL   UNL     1      -5.057   4.667  -8.720  0.00  0.00    -0.083 Cl
BRANCH  20  23
ATOM     23  O   UNL     1      -0.048   2.608 -10.965  0.00  0.00    -0.505 OA
ATOM     24  H   UNL     1      -0.163   1.864 -11.571  0.00  0.00    +0.292 HD
ENDBRANCH  20  23
ENDBRANCH  12  15
BRANCH   6  25
ATOM     25  S   UNL     1      -3.261   2.299  -2.161  0.00  0.00    +0.058 S 
ATOM     26  O   UNL     1      -4.522   1.712  -1.872  0.00  0.00    -0.153 OA
ATOM     27  O   UNL     1      -3.032   3.698  -2.068  0.00  0.00    -0.153 OA
BRANCH  25  28
ATOM     28  N   UNL     1      -2.160   1.571  -1.160  0.00  0.00    -0.187 NA
ATOM     29  H   UNL     1      -2.452   0.898  -0.526  0.00  0.00    +0.148 HD
BRANCH  28  30
ATOM     30  C   UNL     1      -0.745   1.944  -1.233  0.00  0.00    +0.137 C 
BRANCH  30  31
ATOM     31  C   UNL     1      -0.017   1.428   0.010  0.00  0.00    +0.134 C 
ATOM     32  C   UNL     1       1.448   1.915  -0.002  0.00  0.00    +0.035 C 
ATOM     33  C   UNL     1       2.211   0.674   0.537  0.00  0.00    +0.031 C 
ATOM     34  C   UNL     1       1.358  -0.476  -0.054  0.00  0.00    +0.160 C 
ATOM     35  O   UNL     1       0.002  -0.004   0.002  0.00  0.00    -0.375 OA
ENDBRANCH  30  31
ENDBRANCH  28  30
ENDBRANCH  25  28
ENDBRANCH   6  25
TORSDOF 6
