REMARK  Name = ZINC15016401
REMARK  12 active torsions:
REMARK  status: ('A' for Active; 'I' for Inactive)
REMARK    1  A    between atoms: C_1  and  C_2
REMARK    2  A    between atoms: C_2  and  C_3
REMARK    3  A    between atoms: C_2  and  C_4
REMARK    4  A    between atoms: C_2  and  C_5
REMARK    5  A    between atoms: C_7  and  C_16
REMARK    6  A    between atoms: C_9  and  C_12
REMARK    7  A    between atoms: C_10  and  O_11
REMARK    8  A    between atoms: C_12  and  C_13
REMARK    9  A    between atoms: C_12  and  C_14
REMARK   10  A    between atoms: C_12  and  C_15
REMARK   11  A    between atoms: N_17  and  N_18
REMARK   12  A    between atoms: N_29  and  C_30
REMARK                            x       y       z     vdW  Elec       q    Type
REMARK                         _______ _______ _______ _____ _____    ______ ____
ROOT
ATOM      1  C   UNL     1      -2.027  11.187   0.079  0.00  0.00    +0.138 C 
ATOM      2  N   UNL     1      -1.458  10.020   0.068  0.00  0.00    -0.187 NA
ENDROOT
BRANCH   2   3
ATOM      3  N   UNL     1      -2.241   8.858   0.070  0.00  0.00    -0.204 N 
ATOM      4  C   UNL     1      -1.634   7.614   0.058  0.00  0.00    +0.256 A 
ATOM      5  N   UNL     1      -2.388   6.523   0.059  0.00  0.00    -0.192 NA
ATOM      6  C   UNL     1      -1.803   5.329   0.048  0.00  0.00    +0.165 A 
ATOM      7  C   UNL     1      -0.394   5.273   0.034  0.00  0.00    +0.138 A 
ATOM      8  C   UNL     1      -0.036   3.845   0.023  0.00  0.00    +0.029 A 
ATOM      9  C   UNL     1       1.176   3.158   0.008  0.00  0.00    +0.012 A 
ATOM     10  C   UNL     1       1.182   1.780   0.000  0.00  0.00    +0.001 A 
ATOM     11  C   UNL     1      -0.013   1.076   0.008  0.00  0.00    +0.002 A 
ATOM     12  C   UNL     1      -1.219   1.743   0.017  0.00  0.00    +0.026 A 
ATOM     13  C   UNL     1      -1.246   3.134   0.031  0.00  0.00    +0.053 A 
ATOM     14  N   UNL     1      -2.289   4.045   0.046  0.00  0.00    -0.326 N 
ATOM     15  C   UNL     1      -3.710   3.689   0.058  0.00  0.00    +0.151 C 
ATOM     16  N   UNL     1       0.302   6.401   0.033  0.00  0.00    -0.142 NA
ATOM     17  N   UNL     1      -0.307   7.537   0.045  0.00  0.00    -0.111 NA
ATOM     18  H   UNL     1      -3.209   8.926   0.079  0.00  0.00    +0.177 HD
ENDBRANCH   2   3
BRANCH   1  21
ATOM     19  C   UNL     1      -1.039  14.806   0.088  0.00  0.00    +0.000 A 
ATOM     20  C   UNL     1      -1.813  13.666   0.090  0.00  0.00    +0.017 A 
ATOM     21  C   UNL     1      -1.203  12.409   0.078  0.00  0.00    -0.005 A 
ATOM     22  C   UNL     1       0.191  12.314   0.070  0.00  0.00    +0.017 A 
ATOM     23  C   UNL     1       0.958  13.460   0.063  0.00  0.00    +0.000 A 
ATOM     24  C   UNL     1       0.347  14.707   0.075  0.00  0.00    +0.124 A 
BRANCH  19  26
ATOM     25  C   UNL     1      -3.216  15.992   0.115  0.00  0.00    +0.015 C 
ATOM     26  C   UNL     1      -1.696  16.162   0.101  0.00  0.00    -0.009 C 
ATOM     27  C   UNL     1      -1.257  16.929   1.350  0.00  0.00    +0.015 C 
ATOM     28  C   UNL     1      -1.281  16.942  -1.148  0.00  0.00    +0.015 C 
ENDBRANCH  19  26
BRANCH  23  29
ATOM     29  C   UNL     1       2.461  13.359   0.048  0.00  0.00    -0.009 C 
ATOM     30  C   UNL     1       2.874  11.886   0.037  0.00  0.00    +0.015 C 
ATOM     31  C   UNL     1       3.007  14.051  -1.202  0.00  0.00    +0.015 C 
ATOM     32  C   UNL     1       3.030  14.038   1.296  0.00  0.00    +0.015 C 
ENDBRANCH  23  29
BRANCH  24  33
ATOM     33  O   UNL     1       1.106  15.833   0.073  0.00  0.00    -0.506 OA
ATOM     34  H   UNL     1       1.334  16.155   0.956  0.00  0.00    +0.292 HD
ENDBRANCH  24  33
ENDBRANCH   1  21
TORSDOF 5
