REMARK  Name = ZINC08401674
REMARK  7 active torsions:
REMARK  status: ('A' for Active; 'I' for Inactive)
REMARK    1  A    between atoms: C_1  and  C_2
REMARK    2  A    between atoms: C_2  and  C_4
REMARK    3  A    between atoms: C_2  and  N_14
REMARK    4  A    between atoms: C_7  and  S_10
REMARK    5  A    between atoms: S_10  and  N_13
REMARK    6  A    between atoms: N_14  and  C_15
REMARK    7  A    between atoms: C_16  and  C_18
REMARK                            x       y       z     vdW  Elec       q    Type
REMARK                         _______ _______ _______ _____ _____    ______ ____
ROOT
ATOM      1  C   UNL     1      -0.058   1.519   0.041  0.00  0.00    +0.033 C 
ATOM      2  C   UNL     1      -0.001  -0.009  -0.029  0.00  0.00    +0.103 C 
ENDROOT
BRANCH   2   3
ATOM      3  C   UNL     1      -1.400  -0.559  -0.136  0.00  0.00    -0.027 A 
ATOM      4  C   UNL     1      -1.622  -1.760  -0.783  0.00  0.00    +0.007 A 
ATOM      5  C   UNL     1      -2.905  -2.265  -0.881  0.00  0.00    +0.029 A 
ATOM      6  C   UNL     1      -3.966  -1.569  -0.333  0.00  0.00    +0.105 A 
ATOM      7  C   UNL     1      -3.744  -0.368   0.315  0.00  0.00    +0.029 A 
ATOM      8  C   UNL     1      -2.460   0.135   0.417  0.00  0.00    +0.007 A 
BRANCH   6   9
ATOM      9  S   UNL     1      -5.602  -2.212  -0.460  0.00  0.00    +0.056 S 
ATOM     10  O   UNL     1      -6.484  -1.104  -0.342  0.00  0.00    -0.153 OA
ATOM     11  O   UNL     1      -5.612  -3.077  -1.587  0.00  0.00    -0.153 OA
BRANCH   9  12
ATOM     12  N   UNL     1      -5.858  -3.164   0.871  0.00  0.00    -0.204 NA
ATOM     13  H   UNL     1      -5.157  -3.272   1.532  0.00  0.00    +0.144 HD
ATOM     14  H   UNL     1      -6.709  -3.614   0.988  0.00  0.00    +0.144 HD
ENDBRANCH   9  12
ENDBRANCH   6   9
ENDBRANCH   2   3
BRANCH   2  15
ATOM     15  N   UNL     1       0.775  -0.416  -1.202  0.00  0.00    -0.295 N 
ATOM     16  C   UNL     1       0.408   0.079  -2.531  0.00  0.00    +0.132 C 
ATOM     17  C   UNL     1       1.828  -1.246  -1.059  0.00  0.00    +0.257 C 
ATOM     18  O   UNL     1       2.132  -1.655   0.041  0.00  0.00    -0.272 OA
BRANCH  17  19
ATOM     19  C   UNL     1       2.627  -1.665  -2.266  0.00  0.00    +0.263 C 
ATOM     20  C   UNL     1       3.394  -0.460  -2.860  0.00  0.00    +0.093 C 
ATOM     21  C   UNL     1       4.737  -0.570  -2.164  0.00  0.00    -0.000 A 
ATOM     22  C   UNL     1       5.780   0.318  -2.020  0.00  0.00    +0.027 A 
ATOM     23  C   UNL     1       6.910  -0.051  -1.312  0.00  0.00    +0.041 A 
ATOM     24  C   UNL     1       6.987  -1.314  -0.751  0.00  0.00    +0.023 A 
ATOM     25  C   UNL     1       5.946  -2.206  -0.898  0.00  0.00    +0.047 A 
ATOM     26  C   UNL     1       4.806  -1.843  -1.612  0.00  0.00    +0.125 A 
ATOM     27  O   UNL     1       3.682  -2.566  -1.891  0.00  0.00    -0.479 OA
ATOM     28 CL   UNL     1       8.226   1.066  -1.127  0.00  0.00    -0.084 Cl
ENDBRANCH  17  19
ENDBRANCH   2  15
TORSDOF 5
