REMARK  Name = ZINC62038110
REMARK  9 active torsions:
REMARK  status: ('A' for Active; 'I' for Inactive)
REMARK    1  A    between atoms: C_1  and  C_2
REMARK    2  A    between atoms: C_2  and  C_4
REMARK    3  A    between atoms: C_2  and  N_12
REMARK    4  A    between atoms: C_4  and  C_5
REMARK    5  A    between atoms: N_12  and  C_13
REMARK    6  A    between atoms: C_13  and  C_15
REMARK    7  A    between atoms: C_13  and  C_16
REMARK    8  A    between atoms: C_19  and  O_23
REMARK    9  A    between atoms: C_21  and  O_22
REMARK                            x       y       z     vdW  Elec       q    Type
REMARK                         _______ _______ _______ _____ _____    ______ ____
ROOT
ATOM      1  N   UNL     1       0.713  -0.491   1.192  0.00  0.00    +0.385 N 
ATOM      2  H   UNL     1       0.290  -0.099   2.020  0.00  0.00    -0.085 HD
ATOM      3  H   UNL     1       0.655  -1.497   1.230  0.00  0.00    -0.085 HD
ENDROOT
BRANCH   1   5
ATOM      4  C   UNL     1      -0.019   1.526   0.010  0.00  0.00    -0.013 C 
ATOM      5  C   UNL     1       0.002  -0.004   0.002  0.00  0.00    -0.070 C 
BRANCH   5   6
ATOM      6  C   UNL     1      -1.433  -0.534   0.013  0.00  0.00    +0.019 C 
BRANCH   6   7
ATOM      7  C   UNL     1      -1.416  -2.035  -0.119  0.00  0.00    -0.049 A 
ATOM      8  C   UNL     1      -1.450  -2.618  -1.372  0.00  0.00    +0.006 A 
ATOM      9  C   UNL     1      -1.433  -3.995  -1.494  0.00  0.00    +0.038 A 
ATOM     10  C   UNL     1      -1.383  -4.789  -0.362  0.00  0.00    +0.123 A 
ATOM     11  C   UNL     1      -1.349  -4.204   0.893  0.00  0.00    +0.038 A 
ATOM     12  C   UNL     1      -1.360  -2.827   1.012  0.00  0.00    +0.006 A 
ATOM     13  F   UNL     1      -1.367  -6.135  -0.480  0.00  0.00    -0.205 F 
ENDBRANCH   6   7
ENDBRANCH   5   6
ENDBRANCH   1   5
BRANCH   1  14
ATOM     14  C   UNL     1       2.122  -0.083   1.122  0.00  0.00    -0.040 C 
ATOM     15  C   UNL     1       2.796  -0.777  -0.064  0.00  0.00    -0.009 C 
BRANCH  14  16
ATOM     16  C   UNL     1       2.822  -0.474   2.398  0.00  0.00    -0.020 A 
ATOM     17  C   UNL     1       2.340  -1.524   3.155  0.00  0.00    +0.009 A 
ATOM     18  C   UNL     1       2.980  -1.886   4.325  0.00  0.00    +0.046 A 
ATOM     19  C   UNL     1       4.109  -1.195   4.742  0.00  0.00    +0.120 A 
ATOM     20  C   UNL     1       4.595  -0.141   3.984  0.00  0.00    +0.091 A 
ATOM     21  C   UNL     1       3.954   0.216   2.807  0.00  0.00    +0.122 A 
BRANCH  21  22
ATOM     22  O   UNL     1       4.431   1.245   2.058  0.00  0.00    -0.506 OA
ATOM     23  H   UNL     1       4.061   2.107   2.293  0.00  0.00    +0.292 HD
ENDBRANCH  21  22
BRANCH  19  24
ATOM     24  O   UNL     1       4.738  -1.550   5.893  0.00  0.00    -0.507 OA
ATOM     25  H   UNL     1       5.431  -2.215   5.774  0.00  0.00    +0.292 HD
ENDBRANCH  19  24
ENDBRANCH  14  16
ENDBRANCH   1  14
TORSDOF 7
