REMARK  Name = ZINC39324364
REMARK  8 active torsions:
REMARK  status: ('A' for Active; 'I' for Inactive)
REMARK    1  A    between atoms: C_1  and  O_2
REMARK    2  A    between atoms: O_2  and  C_3
REMARK    3  A    between atoms: C_8  and  C_9
REMARK    4  A    between atoms: C_17  and  N_31
REMARK    5  A    between atoms: C_18  and  C_29
REMARK    6  A    between atoms: C_19  and  C_21
REMARK    7  A    between atoms: C_26  and  O_27
REMARK    8  A    between atoms: O_27  and  C_28
REMARK                            x       y       z     vdW  Elec       q    Type
REMARK                         _______ _______ _______ _____ _____    ______ ____
ROOT
ATOM      1  C   UNL     1       0.069  -2.829  -0.063  0.00  0.00    +0.018 C 
ATOM      2  C   UNL     1       0.036  -4.168  -0.186  0.00  0.00    -0.004 C 
ATOM      3  C   UNL     1       0.707  -4.857  -1.354  0.00  0.00    +0.039 C 
ATOM      4  C   UNL     1      -0.243  -5.970  -1.822  0.00  0.00    +0.009 C 
ATOM      5  C   UNL     1      -0.421  -6.973  -0.686  0.00  0.00    +0.036 C 
ATOM      6  C   UNL     1      -0.873  -6.299   0.584  0.00  0.00    -0.014 C 
ATOM      7  C   UNL     1      -0.651  -5.005   0.818  0.00  0.00    +0.133 C 
ATOM      8  O   UNL     1      -1.047  -4.411   1.972  0.00  0.00    -0.441 OA
ATOM      9  C   UNL     1      -2.026  -4.961   2.711  0.00  0.00    +0.199 C 
ATOM     10  C   UNL     1      -2.333  -6.276   2.584  0.00  0.00    +0.098 C 
ATOM     11  C   UNL     1      -1.593  -7.145   1.609  0.00  0.00    +0.097 C 
ENDROOT
BRANCH   1  17
ATOM     12  C   UNL     1       0.401  -0.790  -1.457  0.00  0.00    +0.127 A 
ATOM     13  C   UNL     1       1.173  -0.038  -2.326  0.00  0.00    +0.046 A 
ATOM     14  C   UNL     1       2.407  -0.505  -2.738  0.00  0.00    +0.004 A 
ATOM     15  C   UNL     1       2.881  -1.725  -2.287  0.00  0.00    +0.001 A 
ATOM     16  C   UNL     1       2.125  -2.487  -1.421  0.00  0.00    +0.011 A 
ATOM     17  C   UNL     1       0.878  -2.024  -0.992  0.00  0.00    +0.017 A 
BRANCH  12  19
ATOM     18  C   UNL     1      -1.233   0.933  -1.566  0.00  0.00    +0.277 C 
ATOM     19  O   UNL     1      -0.812  -0.332  -1.051  0.00  0.00    -0.495 OA
ENDBRANCH  12  19
ENDBRANCH   1  17
BRANCH  11  20
ATOM     20  C   UNL     1      -0.586  -7.971   2.367  0.00  0.00    +0.007 A 
ATOM     21  C   UNL     1       0.413  -7.350   3.092  0.00  0.00    +0.008 A 
ATOM     22  C   UNL     1       1.337  -8.107   3.788  0.00  0.00    +0.001 A 
ATOM     23  C   UNL     1       1.264  -9.488   3.760  0.00  0.00    +0.004 A 
ATOM     24  C   UNL     1       0.268 -10.114   3.038  0.00  0.00    +0.046 A 
ATOM     25  C   UNL     1      -0.664  -9.356   2.343  0.00  0.00    +0.124 A 
BRANCH  25  26
ATOM     26  O   UNL     1      -1.650  -9.969   1.636  0.00  0.00    -0.495 OA
ATOM     27  C   UNL     1      -1.669 -11.398   1.656  0.00  0.00    +0.277 C 
ENDBRANCH  25  26
ENDBRANCH  11  20
BRANCH   9  28
ATOM     28  N   UNL     1      -2.723  -4.184   3.603  0.00  0.00    -0.328 N 
ATOM     29  H   UNL     1      -2.507  -3.243   3.697  0.00  0.00    +0.145 HD
ATOM     30  H   UNL     1      -3.430  -4.576   4.138  0.00  0.00    +0.145 HD
ENDBRANCH   9  28
BRANCH  10  31
ATOM     31  C   UNL     1      -3.380  -6.841   3.381  0.00  0.00    +0.101 C 
ATOM     32  N   UNL     1      -4.211  -7.289   4.013  0.00  0.00    -0.191 NA
ENDBRANCH  10  31
TORSDOF 6
