REMARK  Name = ZINC63985561
REMARK  13 active torsions:
REMARK  status: ('A' for Active; 'I' for Inactive)
REMARK    1  A    between atoms: C_1  and  C_2
REMARK    2  A    between atoms: C_2  and  C_3
REMARK    3  A    between atoms: C_2  and  C_4
REMARK    4  A    between atoms: C_4  and  N_5
REMARK    5  A    between atoms: N_5  and  C_6
REMARK    6  A    between atoms: N_12  and  C_25
REMARK    7  A    between atoms: C_13  and  C_21
REMARK    8  A    between atoms: C_15  and  N_17
REMARK    9  A    between atoms: C_18  and  C_20
REMARK   10  A    between atoms: C_21  and  O_23
REMARK   11  A    between atoms: O_23  and  C_24
REMARK   12  A    between atoms: C_25  and  C_26
REMARK   13  A    between atoms: C_26  and  C_27
REMARK                            x       y       z     vdW  Elec       q    Type
REMARK                         _______ _______ _______ _____ _____    ______ ____
ROOT
ATOM      1  C   UNL     1      -2.620  -2.708  -0.130  0.00  0.00    +0.044 A 
ATOM      2  C   UNL     1      -2.619  -4.098  -0.246  0.00  0.00    +0.033 A 
ATOM      3  C   UNL     1      -3.832  -4.759  -0.256  0.00  0.00    +0.015 A 
ATOM      4  C   UNL     1      -5.016  -4.041  -0.152  0.00  0.00    +0.105 A 
ATOM      5  N   UNL     1      -4.971  -2.714  -0.043  0.00  0.00    -0.348 N 
ATOM      6  C   UNL     1      -3.835  -2.049  -0.024  0.00  0.00    +0.107 A 
ATOM      7  N   UNL     1      -6.127  -4.882  -0.180  0.00  0.00    -0.301 N 
ATOM      8  C   UNL     1      -5.702  -6.278  -0.313  0.00  0.00    +0.208 C 
ATOM      9  C   UNL     1      -4.166  -6.228  -0.366  0.00  0.00    +0.138 C 
ATOM     10  H   UNL     1      -5.804  -2.221   0.029  0.00  0.00    +0.167 HD
ENDROOT
BRANCH   9  11
ATOM     11  N   UNL     1      -3.591  -6.969   0.760  0.00  0.00    -0.306 N 
ATOM     12  C   UNL     1      -2.324  -7.424   0.690  0.00  0.00    +0.210 C 
ATOM     13  O   UNL     1      -1.660  -7.220  -0.304  0.00  0.00    -0.276 OA
ATOM     14  C   UNL     1      -1.732  -8.186   1.848  0.00  0.00    +0.109 C 
ATOM     15  H   UNL     1      -4.122  -7.133   1.555  0.00  0.00    +0.149 HD
ENDBRANCH   9  11
BRANCH   1  16
ATOM     16  N   UNL     1      -1.416  -1.993  -0.116  0.00  0.00    -0.342 N 
ATOM     17  H   UNL     1      -0.572  -2.463  -0.190  0.00  0.00    +0.146 HD
BRANCH  16  18
ATOM     18  C   UNL     1      -1.433  -0.534   0.013  0.00  0.00    +0.104 C 
BRANCH  18  20
ATOM     19  C   UNL     1      -0.019   1.526   0.010  0.00  0.00    +0.009 C 
ATOM     20  C   UNL     1       0.002  -0.004   0.002  0.00  0.00    -0.000 C 
ATOM     21  C   UNL     1       0.742  -0.511   1.242  0.00  0.00    +0.009 C 
ENDBRANCH  18  20
ENDBRANCH  16  18
ENDBRANCH   1  16
BRANCH   8  22
ATOM     22  C   UNL     1      -6.160  -7.079   0.879  0.00  0.00    +0.330 C 
ATOM     23  O   UNL     1      -6.478  -6.516   1.899  0.00  0.00    -0.249 OA
BRANCH  22  24
ATOM     24  O   UNL     1      -6.215  -8.418   0.806  0.00  0.00    -0.467 OA
ATOM     25  C   UNL     1      -6.659  -9.113   1.973  0.00  0.00    +0.280 C 
ENDBRANCH  22  24
ENDBRANCH   8  22
BRANCH   7  26
ATOM     26  C   UNL     1      -7.519  -4.434  -0.090  0.00  0.00    +0.112 C 
BRANCH  26  27
ATOM     27  C   UNL     1      -8.057  -4.159  -1.496  0.00  0.00    +0.052 C 
BRANCH  27  28
ATOM     28  C   UNL     1      -9.489  -3.698  -1.403  0.00  0.00    -0.040 C 
ATOM     29  C   UNL     1      -9.933  -2.421  -1.380  0.00  0.00    -0.001 A 
ATOM     30  C   UNL     1      -9.242  -1.127  -1.430  0.00  0.00    +0.010 A 
ATOM     31  C   UNL     1      -9.973   0.010  -1.387  0.00  0.00    +0.001 A 
ATOM     32  C   UNL     1     -11.371  -0.017  -1.294  0.00  0.00    +0.002 A 
ATOM     33  C   UNL     1     -12.077  -1.166  -1.243  0.00  0.00    +0.026 A 
ATOM     34  C   UNL     1     -11.410  -2.421  -1.282  0.00  0.00    +0.043 A 
ATOM     35  N   UNL     1     -11.862  -3.651  -1.247  0.00  0.00    -0.380 N 
ATOM     36  C   UNL     1     -10.722  -4.571  -1.324  0.00  0.00    +0.144 C 
ATOM     37  H   UNL     1     -12.795  -3.910  -1.184  0.00  0.00    +0.160 HD
ENDBRANCH  27  28
ENDBRANCH  26  27
ENDBRANCH   7  26
TORSDOF 9
