REMARK  Name = ZINC39795962
REMARK  4 active torsions:
REMARK  status: ('A' for Active; 'I' for Inactive)
REMARK    1  A    between atoms: C_4  and  C_7
REMARK    2  A    between atoms: C_7  and  C_9
REMARK    3  A    between atoms: C_7  and  N_15
REMARK    4  A    between atoms: C_16  and  C_18
REMARK                            x       y       z     vdW  Elec       q    Type
REMARK                         _______ _______ _______ _____ _____    ______ ____
ROOT
ATOM      1  N   UNL     1       3.582  -1.748   0.998  0.00  0.00    -0.307 N 
ATOM      2  C   UNL     1       4.624  -2.111   1.771  0.00  0.00    +0.229 C 
ATOM      3  O   UNL     1       5.679  -1.518   1.685  0.00  0.00    -0.275 OA
ATOM      4  H   UNL     1       2.717  -2.171   1.121  0.00  0.00    +0.149 HD
ENDROOT
BRANCH   2   5
ATOM      5  C   UNL     1       4.480  -3.254   2.743  0.00  0.00    +0.184 C 
ATOM      6  C   UNL     1       5.772  -3.362   3.529  0.00  0.00    +0.004 C 
ATOM      7  C   UNL     1       6.439  -4.551   3.475  0.00  0.00    -0.007 A 
ATOM      8  C   UNL     1       7.694  -4.741   4.203  0.00  0.00    +0.009 A 
ATOM      9  C   UNL     1       8.323  -5.942   4.120  0.00  0.00    +0.001 A 
ATOM     10  C   UNL     1       7.798  -6.986   3.359  0.00  0.00    +0.002 A 
ATOM     11  C   UNL     1       6.638  -6.873   2.661  0.00  0.00    +0.024 A 
ATOM     12  C   UNL     1       5.907  -5.671   2.680  0.00  0.00    +0.040 A 
ATOM     13  N   UNL     1       4.770  -5.572   1.992  0.00  0.00    -0.284 N 
ATOM     14  C   UNL     1       4.037  -4.472   1.964  0.00  0.00    +0.233 C 
ATOM     15  O   UNL     1       3.008  -4.441   1.317  0.00  0.00    -0.274 OA
ATOM     16  H   UNL     1       4.467  -6.342   1.486  0.00  0.00    +0.155 HD
ENDBRANCH   2   5
BRANCH   1  17
ATOM     17  C   UNL     1       3.754  -0.717  -0.028  0.00  0.00    +0.117 C 
BRANCH  17  21
ATOM     18  C   UNL     1       0.074   1.383  -0.570  0.00  0.00    +0.000 A 
ATOM     19  C   UNL     1       1.271   2.073  -0.579  0.00  0.00    +0.000 A 
ATOM     20  C   UNL     1       2.462   1.394  -0.403  0.00  0.00    +0.005 A 
ATOM     21  C   UNL     1       2.456   0.024  -0.218  0.00  0.00    -0.026 A 
ATOM     22  C   UNL     1       1.258  -0.666  -0.209  0.00  0.00    +0.005 A 
ATOM     23  C   UNL     1       0.067   0.013  -0.386  0.00  0.00    +0.000 A 
ENDBRANCH  17  21
BRANCH  17  24
ATOM     24  C   UNL     1       4.165  -1.373  -1.347  0.00  0.00    +0.079 C 
ATOM     25  C   UNL     1       4.617  -0.318  -2.391  0.00  0.00    +0.044 C 
ATOM     26  C   UNL     1       5.784  -0.819  -3.180  0.00  0.00    -0.019 C 
ATOM     27  C   UNL     1       6.501  -1.826  -2.722  0.00  0.00    +0.036 C 
ATOM     28  S   UNL     1       5.748  -2.301  -1.176  0.00  0.00    -0.127 S 
ENDBRANCH  17  24
ENDBRANCH   1  17
TORSDOF 4
