REMARK  Name = ZINC41584697
REMARK  5 active torsions:
REMARK  status: ('A' for Active; 'I' for Inactive)
REMARK    1  A    between atoms: C_3  and  C_7
REMARK    2  A    between atoms: N_13  and  C_14
REMARK    3  A    between atoms: C_14  and  C_15
REMARK    4  A    between atoms: C_16  and  O_33
REMARK    5  A    between atoms: C_23  and  C_26
REMARK                            x       y       z     vdW  Elec       q    Type
REMARK                         _______ _______ _______ _____ _____    ______ ____
ROOT
ATOM      1  C   UNL     1       4.965   0.412   3.077  0.00  0.00    +0.020 A 
ATOM      2  C   UNL     1       4.783  -0.959   3.154  0.00  0.00    +0.122 A 
ATOM      3  C   UNL     1       5.610  -1.742   3.955  0.00  0.00    +0.046 A 
ATOM      4  C   UNL     1       6.619  -1.166   4.675  0.00  0.00    +0.019 A 
ATOM      5  C   UNL     1       6.816   0.212   4.606  0.00  0.00    +0.065 A 
ATOM      6  C   UNL     1       5.986   1.014   3.801  0.00  0.00    +0.143 A 
ATOM      7  O   UNL     1       6.174   2.346   3.745  0.00  0.00    -0.462 OA
ATOM      8  C   UNL     1       7.300   2.917   4.179  0.00  0.00    +0.208 A 
ATOM      9  C   UNL     1       8.193   2.269   4.973  0.00  0.00    +0.064 A 
ATOM     10  C   UNL     1       7.898   0.875   5.359  0.00  0.00    +0.200 A 
ATOM     11  O   UNL     1       8.518   0.301   6.238  0.00  0.00    -0.286 OA
ENDROOT
BRANCH   9  12
ATOM     12  C   UNL     1       9.424   2.948   5.445  0.00  0.00    -0.011 A 
ATOM     13  C   UNL     1      10.675   2.498   5.026  0.00  0.00    +0.010 A 
ATOM     14  C   UNL     1      11.818   3.134   5.468  0.00  0.00    +0.016 A 
ATOM     15  C   UNL     1      11.723   4.216   6.326  0.00  0.00    +0.018 A 
ATOM     16  C   UNL     1      10.483   4.667   6.745  0.00  0.00    +0.016 A 
ATOM     17  C   UNL     1       9.334   4.042   6.304  0.00  0.00    +0.010 A 
ATOM     18 BR   UNL     1      13.293   5.082   6.927  0.00  0.00    -0.050 Br
ENDBRANCH   9  12
BRANCH   2  19
ATOM     19  O   UNL     1       3.787  -1.545   2.441  0.00  0.00    -0.506 OA
ATOM     20  H   UNL     1       4.051  -1.826   1.555  0.00  0.00    +0.292 HD
ENDBRANCH   2  19
BRANCH   1  21
ATOM     21  C   UNL     1       4.063   1.247   2.206  0.00  0.00    -0.035 C 
BRANCH  21  27
ATOM     22  C   UNL     1       3.696   2.049  -0.023  0.00  0.00    -0.036 C 
ATOM     23  C   UNL     1       4.249   2.075  -1.449  0.00  0.00    -0.011 C 
ATOM     24  C   UNL     1       5.602   2.793  -1.454  0.00  0.00    -0.003 C 
ATOM     25  C   UNL     1       6.547   2.087  -0.478  0.00  0.00    -0.019 C 
ATOM     26  C   UNL     1       5.909   2.061   0.913  0.00  0.00    -0.078 C 
ATOM     27  N   UNL     1       4.633   1.337   0.855  0.00  0.00    +0.387 N 
ATOM     28  H   UNL     1       4.790   0.408   0.496  0.00  0.00    -0.080 HD
BRANCH  22  31
ATOM     29  C   UNL     1      -0.017   1.378   0.010  0.00  0.00    +0.020 A 
ATOM     30  C   UNL     1       1.185   2.070   0.002  0.00  0.00    +0.005 A 
ATOM     31  C   UNL     1       2.365   1.343  -0.013  0.00  0.00    -0.043 A 
ATOM     32  C   UNL     1       2.305  -0.038  -0.020  0.00  0.00    +0.112 A 
ATOM     33  N   UNL     1       1.144  -0.663  -0.013  0.00  0.00    -0.263 NA
ATOM     34  C   UNL     1       0.002  -0.004   0.002  0.00  0.00    +0.111 A 
ENDBRANCH  22  31
ENDBRANCH  21  27
ENDBRANCH   1  21
TORSDOF 5
