REMARK  Name = ZINC03839753
REMARK  10 active torsions:
REMARK  status: ('A' for Active; 'I' for Inactive)
REMARK    1  A    between atoms: C_1  and  C_2
REMARK    2  A    between atoms: C_4  and  C_7
REMARK    3  A    between atoms: C_12  and  O_32
REMARK    4  A    between atoms: C_15  and  C_17
REMARK    5  A    between atoms: N_19  and  C_20
REMARK    6  A    between atoms: C_20  and  C_22
REMARK    7  A    between atoms: C_20  and  C_29
REMARK    8  A    between atoms: C_22  and  C_23
REMARK    9  A    between atoms: O_32  and  C_33
REMARK   10  A    between atoms: C_33  and  C_34
REMARK                            x       y       z     vdW  Elec       q    Type
REMARK                         _______ _______ _______ _____ _____    ______ ____
ROOT
ATOM      1  C   UNL     1      -0.145   2.039  -1.637  0.00  0.00    +0.266 C 
ATOM      2  O   UNL     1       0.760   2.841  -1.501  0.00  0.00    -0.268 OA
ATOM      3  N   UNL     1      -1.186   2.048  -0.781  0.00  0.00    -0.285 N 
ATOM      4  C   UNL     1      -2.209   0.994  -0.836  0.00  0.00    +0.111 C 
ATOM      5  C   UNL     1      -2.352   0.374   0.557  0.00  0.00    +0.050 C 
ATOM      6  C   UNL     1      -2.642   1.479   1.576  0.00  0.00    +0.122 C 
ATOM      7  C   UNL     1      -1.474   2.467   1.605  0.00  0.00    +0.063 C 
ATOM      8  C   UNL     1      -1.317   3.108   0.228  0.00  0.00    +0.165 C 
ENDROOT
BRANCH   1  12
ATOM      9  C   UNL     1      -2.151  -1.532  -4.476  0.00  0.00    +0.073 C 
ATOM     10  C   UNL     1      -1.094  -0.570  -3.999  0.00  0.00    +0.076 A 
ATOM     11  N   UNL     1      -1.155   0.288  -3.014  0.00  0.00    -0.240 NA
ATOM     12  C   UNL     1      -0.106   1.064  -2.740  0.00  0.00    +0.133 A 
ATOM     13  C   UNL     1       1.009   0.924  -3.526  0.00  0.00    +0.080 A 
ATOM     14  S   UNL     1       0.506  -0.324  -4.621  0.00  0.00    -0.080 S 
ENDBRANCH   1  12
BRANCH   8  15
ATOM     15  C   UNL     1      -0.085   3.975   0.213  0.00  0.00    +0.234 C 
ATOM     16  O   UNL     1       1.008   3.479   0.391  0.00  0.00    -0.274 OA
ATOM     17  N   UNL     1      -0.196   5.301   0.002  0.00  0.00    -0.302 N 
ATOM     18  H   UNL     1      -1.069   5.698  -0.141  0.00  0.00    +0.150 HD
BRANCH  17  19
ATOM     19  C   UNL     1       1.003   6.144  -0.013  0.00  0.00    +0.163 C 
BRANCH  19  20
ATOM     20  C   UNL     1       1.615   6.122  -1.389  0.00  0.00    +0.231 C 
ATOM     21  O   UNL     1       1.102   5.467  -2.271  0.00  0.00    -0.274 OA
ATOM     22  N   UNL     1       2.734   6.830  -1.640  0.00  0.00    -0.328 N 
ATOM     23  H   UNL     1       3.145   7.354  -0.934  0.00  0.00    +0.145 HD
ATOM     24  H   UNL     1       3.129   6.816  -2.526  0.00  0.00    +0.145 HD
ENDBRANCH  19  20
BRANCH  19  25
ATOM     25  C   UNL     1       0.621   7.579   0.353  0.00  0.00    +0.067 C 
BRANCH  25  26
ATOM     26  C   UNL     1       0.122   7.620   1.775  0.00  0.00    -0.045 A 
ATOM     27  C   UNL     1      -1.223   7.446   2.040  0.00  0.00    +0.004 A 
ATOM     28  C   UNL     1      -1.680   7.478   3.345  0.00  0.00    +0.000 A 
ATOM     29  C   UNL     1      -0.793   7.695   4.382  0.00  0.00    +0.000 A 
ATOM     30  C   UNL     1       0.551   7.874   4.116  0.00  0.00    +0.000 A 
ATOM     31  C   UNL     1       1.009   7.837   2.813  0.00  0.00    +0.004 A 
ENDBRANCH  25  26
ENDBRANCH  19  25
ENDBRANCH  17  19
ENDBRANCH   8  15
BRANCH   6  32
ATOM     32  O   UNL     1      -2.808   0.899   2.872  0.00  0.00    -0.372 OA
BRANCH  32  33
ATOM     33  C   UNL     1      -4.155   0.533   3.177  0.00  0.00    +0.195 C 
BRANCH  33  34
ATOM     34  C   UNL     1      -4.213  -0.063   4.559  0.00  0.00    -0.022 A 
ATOM     35  C   UNL     1      -4.054  -1.426   4.730  0.00  0.00    +0.009 A 
ATOM     36  C   UNL     1      -4.101  -1.974   5.998  0.00  0.00    +0.038 A 
ATOM     37  C   UNL     1      -4.320  -1.159   7.096  0.00  0.00    +0.123 A 
ATOM     38  C   UNL     1      -4.485   0.205   6.923  0.00  0.00    +0.038 A 
ATOM     39  C   UNL     1      -4.431   0.751   5.655  0.00  0.00    +0.009 A 
ATOM     40  F   UNL     1      -4.373  -1.694   8.336  0.00  0.00    -0.205 F 
ENDBRANCH  33  34
ENDBRANCH  32  33
ENDBRANCH   6  32
TORSDOF 9
