REMARK  Name = ZINC22121874
REMARK  1 active torsions:
REMARK  status: ('A' for Active; 'I' for Inactive)
REMARK    1  A    between atoms: C_6  and  C_7
REMARK                            x       y       z     vdW  Elec       q    Type
REMARK                         _______ _______ _______ _____ _____    ______ ____
ROOT
ATOM      1  C   UNL     1       1.222  -0.667  -0.013  0.00  0.00    +0.029 A 
ATOM      2  C   UNL     1       0.002  -0.004   0.002  0.00  0.00    +0.020 A 
ATOM      3  C   UNL     1      -0.017   1.380   0.010  0.00  0.00    +0.032 A 
ATOM      4  C   UNL     1       1.167   2.073   0.002  0.00  0.00    +0.042 A 
ATOM      5  C   UNL     1       2.427   1.432  -0.013  0.00  0.00    +0.092 A 
ATOM      6  C   UNL     1       2.409   0.019  -0.021  0.00  0.00    +0.082 A 
ATOM      7  N   UNL     1       3.501   2.252  -0.019  0.00  0.00    -0.225 NA
ATOM      8  C   UNL     1       3.389   3.561  -0.012  0.00  0.00    +0.157 A 
ATOM      9  S   UNL     1       1.617   3.792   0.006  0.00  0.00    -0.053 S 
ATOM     10  N   UNL     1       4.386   4.515  -0.017  0.00  0.00    -0.337 N 
ATOM     11 BR   UNL     1      -1.617  -0.982   0.013  0.00  0.00    -0.050 Br
ATOM     12  H   UNL     1       4.125   5.584  -0.010  0.00  0.00    +0.144 HD
ATOM     13  H   UNL     1       5.442   4.207  -0.029  0.00  0.00    +0.144 HD
ENDROOT
BRANCH   6  14
ATOM     14  C   UNL     1       3.709  -0.743  -0.037  0.00  0.00    +0.419 C 
ATOM     15  F   UNL     1       3.444  -2.117  -0.042  0.00  0.00    -0.166 F 
ATOM     16  F   UNL     1       4.434  -0.404  -1.185  0.00  0.00    -0.166 F 
ATOM     17  F   UNL     1       4.455  -0.416   1.100  0.00  0.00    -0.166 F 
ENDBRANCH   6  14
TORSDOF 1
