REMARK  Name = ZINC03166612
REMARK  7 active torsions:
REMARK  status: ('A' for Active; 'I' for Inactive)
REMARK    1  A    between atoms: C_1  and  C_2
REMARK    2  A    between atoms: N_5  and  S_11
REMARK    3  A    between atoms: C_7  and  C_10
REMARK    4  A    between atoms: S_11  and  C_14
REMARK    5  A    between atoms: C_17  and  C_20
REMARK    6  A    between atoms: C_28  and  S_32
REMARK    7  A    between atoms: S_32  and  N_35
REMARK                            x       y       z     vdW  Elec       q    Type
REMARK                         _______ _______ _______ _____ _____    ______ ____
ROOT
ATOM      1  C   UNL     1      -1.305   2.117   0.020  0.00  0.00    +0.250 C 
ATOM      2  O   UNL     1      -2.351   1.497   0.021  0.00  0.00    -0.270 OA
ATOM      3  N   UNL     1      -1.320   3.464   0.027  0.00  0.00    -0.261 N 
ATOM      4  C   UNL     1      -2.526   4.143   0.037  0.00  0.00    +0.166 A 
ATOM      5  N   UNL     1      -3.745   3.656   0.040  0.00  0.00    -0.225 NA
ATOM      6  C   UNL     1      -4.842   4.444   0.050  0.00  0.00    +0.080 A 
ATOM      7  C   UNL     1      -6.200   4.050   0.055  0.00  0.00    +0.031 A 
ATOM      8  C   UNL     1      -7.200   4.987   0.066  0.00  0.00    +0.030 A 
ATOM      9  C   UNL     1      -6.921   6.346   0.072  0.00  0.00    +0.106 A 
ATOM     10  C   UNL     1      -5.604   6.767   0.067  0.00  0.00    +0.045 A 
ATOM     11  C   UNL     1      -4.596   5.836   0.056  0.00  0.00    +0.043 A 
ATOM     12  S   UNL     1      -2.820   5.906   0.055  0.00  0.00    -0.052 S 
ATOM     13  H   UNL     1      -0.485   3.958   0.026  0.00  0.00    +0.157 HD
ENDROOT
BRANCH   1  17
ATOM     14  C   UNL     1       2.396   0.034  -0.021  0.00  0.00    +0.106 A 
ATOM     15  C   UNL     1       1.208  -0.674  -0.013  0.00  0.00    +0.029 A 
ATOM     16  C   UNL     1       0.002  -0.004   0.002  0.00  0.00    +0.015 A 
ATOM     17  C   UNL     1      -0.017   1.392   0.010  0.00  0.00    +0.037 A 
ATOM     18  C   UNL     1       1.186   2.100   0.002  0.00  0.00    +0.015 A 
ATOM     19  C   UNL     1       2.385   1.417  -0.014  0.00  0.00    +0.029 A 
BRANCH  14  20
ATOM     20  S   UNL     1       3.932  -0.830  -0.041  0.00  0.00    +0.061 S 
ATOM     21  O   UNL     1       4.902   0.053   0.505  0.00  0.00    -0.153 OA
ATOM     22  O   UNL     1       3.680  -2.118   0.505  0.00  0.00    -0.153 OA
BRANCH  20  26
ATOM     23  C   UNL     1       3.134   1.001  -3.380  0.00  0.00    +0.039 C 
ATOM     24  C   UNL     1       4.440   0.260  -3.673  0.00  0.00    +0.131 C 
ATOM     25  C   UNL     1       5.149  -0.068  -2.355  0.00  0.00    +0.140 C 
ATOM     26  N   UNL     1       4.343  -1.062  -1.628  0.00  0.00    -0.172 NA
ATOM     27  C   UNL     1       3.917  -2.270  -2.353  0.00  0.00    +0.140 C 
ATOM     28  C   UNL     1       3.263  -1.832  -3.673  0.00  0.00    +0.131 C 
ATOM     29  O   UNL     1       4.153  -0.956  -4.369  0.00  0.00    -0.371 OA
ATOM     30  C   UNL     1       2.981  -3.064  -4.535  0.00  0.00    +0.039 C 
ENDBRANCH  20  26
ENDBRANCH  14  20
ENDBRANCH   1  17
BRANCH   9  31
ATOM     31  S   UNL     1      -8.232   7.523   0.086  0.00  0.00    +0.056 S 
ATOM     32  O   UNL     1      -9.363   6.865   0.639  0.00  0.00    -0.153 OA
ATOM     33  O   UNL     1      -7.699   8.718   0.641  0.00  0.00    -0.153 OA
BRANCH  31  34
ATOM     34  N   UNL     1      -8.605   7.860  -1.492  0.00  0.00    -0.204 NA
ATOM     35  H   UNL     1      -8.119   7.423  -2.209  0.00  0.00    +0.144 HD
ATOM     36  H   UNL     1      -9.310   8.493  -1.700  0.00  0.00    +0.144 HD
ENDBRANCH  31  34
ENDBRANCH   9  31
TORSDOF 5
