REMARK  Name = ZINC01234490
REMARK  5 active torsions:
REMARK  status: ('A' for Active; 'I' for Inactive)
REMARK    1  A    between atoms: C_1  and  C_2
REMARK    2  A    between atoms: C_5  and  S_8
REMARK    3  A    between atoms: S_8  and  N_11
REMARK    4  A    between atoms: N_11  and  C_12
REMARK    5  A    between atoms: C_15  and  O_19
REMARK                            x       y       z     vdW  Elec       q    Type
REMARK                         _______ _______ _______ _____ _____    ______ ____
ROOT
ATOM      1  N   UNL     1       2.344   4.697   0.002  0.00  0.00    -0.216 N 
ATOM      2  H   UNL     1       2.064   3.841  -0.359  0.00  0.00    +0.174 HD
ENDROOT
BRANCH   1   3
ATOM      3  C   UNL     1       2.693   4.805   1.353  0.00  0.00    +0.051 A 
ATOM      4  C   UNL     1       3.848   5.483   1.720  0.00  0.00    +0.048 A 
ATOM      5  C   UNL     1       4.191   5.590   3.054  0.00  0.00    +0.085 A 
ATOM      6  C   UNL     1       3.379   5.025   4.028  0.00  0.00    +0.149 A 
ATOM      7  C   UNL     1       2.228   4.343   3.661  0.00  0.00    +0.062 A 
ATOM      8  C   UNL     1       1.884   4.235   2.327  0.00  0.00    +0.043 A 
ATOM      9 BR   UNL     1       1.126   3.567   4.987  0.00  0.00    -0.046 Br
ATOM     10 CL   UNL     1       5.635   6.438   3.514  0.00  0.00    -0.080 Cl
BRANCH   6  11
ATOM     11  O   UNL     1       3.714   5.136   5.342  0.00  0.00    -0.504 OA
ATOM     12  H   UNL     1       4.274   4.417   5.667  0.00  0.00    +0.292 HD
ENDBRANCH   6  11
ENDBRANCH   1   3
BRANCH   1  13
ATOM     13  S   UNL     1       2.411   6.029  -0.980  0.00  0.00    +0.072 S 
ATOM     14  O   UNL     1       3.708   6.587  -0.820  0.00  0.00    -0.150 OA
ATOM     15  O   UNL     1       1.905   5.627  -2.245  0.00  0.00    -0.150 OA
BRANCH  13  20
ATOM     16  C   UNL     1      -1.487  10.070   1.230  0.00  0.00    +0.044 C 
ATOM     17  C   UNL     1      -0.514   9.061   0.678  0.00  0.00    -0.050 A 
ATOM     18  C   UNL     1       0.822   9.125   1.029  0.00  0.00    +0.005 A 
ATOM     19  C   UNL     1       1.715   8.200   0.522  0.00  0.00    +0.029 A 
ATOM     20  C   UNL     1       1.272   7.209  -0.334  0.00  0.00    +0.109 A 
ATOM     21  C   UNL     1      -0.062   7.147  -0.689  0.00  0.00    +0.029 A 
ATOM     22  C   UNL     1      -0.956   8.070  -0.179  0.00  0.00    +0.005 A 
ENDBRANCH  13  20
ENDBRANCH   1  13
TORSDOF 4
