REMARK  Name = ZINC35279213
REMARK  2 active torsions:
REMARK  status: ('A' for Active; 'I' for Inactive)
REMARK    1  A    between atoms: C_1  and  C_2
REMARK    2  A    between atoms: C_9  and  C_11
REMARK                            x       y       z     vdW  Elec       q    Type
REMARK                         _______ _______ _______ _____ _____    ______ ____
ROOT
ATOM      1  C   UNL     1      -0.018   1.503   0.010  0.00  0.00    +0.044 C 
ATOM      2  C   UNL     1       0.002  -0.004   0.002  0.00  0.00    -0.047 A 
ATOM      3  C   UNL     1       0.006  -0.686  -1.206  0.00  0.00    +0.005 A 
ATOM      4  C   UNL     1       0.025  -2.062  -1.229  0.00  0.00    +0.032 A 
ATOM      5  C   UNL     1       0.041  -2.775  -0.029  0.00  0.00    +0.110 A 
ATOM      6  C   UNL     1       0.037  -2.082   1.190  0.00  0.00    +0.156 A 
ATOM      7  C   UNL     1       0.023  -0.695   1.195  0.00  0.00    +0.052 A 
ATOM      8  O   UNL     1       0.055  -3.023   2.160  0.00  0.00    -0.438 OA
ATOM      9  C   UNL     1       0.069  -4.229   1.572  0.00  0.00    +0.217 A 
ATOM     10  N   UNL     1       0.060  -4.100   0.279  0.00  0.00    -0.212 NA
ENDROOT
BRANCH   9  11
ATOM     11  C   UNL     1       0.091  -5.545   2.306  0.00  0.00    +0.161 C 
ATOM     12  C   UNL     1      -1.284  -6.228   2.218  0.00  0.00    +0.068 C 
ATOM     13  C   UNL     1      -1.014  -7.534   1.504  0.00  0.00    -0.024 A 
ATOM     14  C   UNL     1      -1.864  -8.561   1.142  0.00  0.00    +0.005 A 
ATOM     15  C   UNL     1      -1.369  -9.672   0.485  0.00  0.00    +0.000 A 
ATOM     16  C   UNL     1      -0.021  -9.753   0.189  0.00  0.00    +0.002 A 
ATOM     17  C   UNL     1       0.831  -8.731   0.548  0.00  0.00    +0.023 A 
ATOM     18  C   UNL     1       0.339  -7.605   1.212  0.00  0.00    +0.031 A 
ATOM     19  N   UNL     1       1.024  -6.472   1.660  0.00  0.00    -0.332 N 
ATOM     20  H   UNL     1       1.977  -6.320   1.558  0.00  0.00    +0.147 HD
ENDBRANCH   9  11
TORSDOF 1
