REMARK  Name = ZINC63375744
REMARK  9 active torsions:
REMARK  status: ('A' for Active; 'I' for Inactive)
REMARK    1  A    between atoms: C_1  and  C_2
REMARK    2  A    between atoms: C_2  and  C_3
REMARK    3  A    between atoms: C_2  and  C_4
REMARK    4  A    between atoms: C_4  and  N_5
REMARK    5  A    between atoms: C_6  and  C_8
REMARK    6  A    between atoms: C_13  and  N_14
REMARK    7  A    between atoms: C_30  and  C_35
REMARK    8  A    between atoms: C_38  and  O_41
REMARK    9  A    between atoms: O_41  and  C_42
REMARK                            x       y       z     vdW  Elec       q    Type
REMARK                         _______ _______ _______ _____ _____    ______ ____
ROOT
ATOM      1  N   UNL     1      -6.090  -1.232  -1.962  0.00  0.00    -0.192 N 
ATOM      2  C   UNL     1      -6.817  -0.686  -0.964  0.00  0.00    +0.248 C 
ATOM      3  O   UNL     1      -6.961   0.493  -0.724  0.00  0.00    -0.273 OA
ATOM      4  C   UNL     1      -7.416  -1.853  -0.208  0.00  0.00    +0.169 C 
ATOM      5  C   UNL     1      -6.955  -1.817   1.259  0.00  0.00    +0.065 C 
ATOM      6  C   UNL     1      -7.046  -3.235   1.772  0.00  0.00    -0.034 C 
ATOM      7  C   UNL     1      -6.642  -3.769   2.919  0.00  0.00    -0.001 A 
ATOM      8  C   UNL     1      -6.051  -3.166   4.124  0.00  0.00    +0.010 A 
ATOM      9  C   UNL     1      -5.735  -4.024   5.130  0.00  0.00    +0.001 A 
ATOM     10  C   UNL     1      -5.944  -5.405   5.057  0.00  0.00    +0.002 A 
ATOM     11  C   UNL     1      -6.487  -6.044   3.990  0.00  0.00    +0.026 A 
ATOM     12  C   UNL     1      -6.867  -5.246   2.872  0.00  0.00    +0.043 A 
ATOM     13  N   UNL     1      -7.417  -5.586   1.744  0.00  0.00    -0.375 N 
ATOM     14  C   UNL     1      -7.658  -4.371   0.962  0.00  0.00    +0.131 C 
ATOM     15  C   UNL     1      -6.922  -4.414  -0.384  0.00  0.00    +0.135 C 
ATOM     16  N   UNL     1      -6.813  -3.029  -0.870  0.00  0.00    -0.264 N 
ATOM     17  C   UNL     1      -6.122  -2.571  -1.921  0.00  0.00    +0.317 C 
ATOM     18  O   UNL     1      -5.582  -3.287  -2.742  0.00  0.00    -0.252 OA
ATOM     19  H   UNL     1      -7.632  -6.490   1.468  0.00  0.00    +0.160 HD
ENDROOT
BRANCH   1  25
ATOM     20  C   UNL     1      -4.064  -0.120  -2.696  0.00  0.00    +0.059 A 
ATOM     21  C   UNL     1      -3.379   0.615  -3.666  0.00  0.00    +0.015 A 
ATOM     22  C   UNL     1      -4.016   0.974  -4.834  0.00  0.00    +0.001 A 
ATOM     23  C   UNL     1      -5.335   0.610  -5.051  0.00  0.00    +0.002 A 
ATOM     24  C   UNL     1      -6.024  -0.117  -4.101  0.00  0.00    +0.025 A 
ATOM     25  C   UNL     1      -5.396  -0.492  -2.922  0.00  0.00    +0.058 A 
BRANCH  20  27
ATOM     26  N   UNL     1      -2.105  -0.148  -1.230  0.00  0.00    -0.311 N 
ATOM     27  C   UNL     1      -3.387  -0.508  -1.443  0.00  0.00    +0.246 C 
ATOM     28  O   UNL     1      -3.985  -1.153  -0.604  0.00  0.00    -0.270 OA
ATOM     29  H   UNL     1      -1.628   0.366  -1.901  0.00  0.00    +0.149 HD
BRANCH  26  30
ATOM     30  C   UNL     1      -1.433  -0.534   0.013  0.00  0.00    +0.107 C 
BRANCH  30  32
ATOM     31  C   UNL     1      -0.019   1.526   0.010  0.00  0.00    +0.009 C 
ATOM     32  C   UNL     1       0.002  -0.004   0.002  0.00  0.00    -0.000 C 
ATOM     33  C   UNL     1       0.742  -0.511   1.242  0.00  0.00    +0.009 C 
ENDBRANCH  30  32
ENDBRANCH  26  30
ENDBRANCH  20  27
ENDBRANCH   1  25
BRANCH  15  34
ATOM     34  C   UNL     1      -7.714  -5.224  -1.377  0.00  0.00    -0.024 A 
ATOM     35  C   UNL     1      -8.788  -4.653  -2.033  0.00  0.00    +0.009 A 
ATOM     36  C   UNL     1      -9.517  -5.394  -2.944  0.00  0.00    +0.046 A 
ATOM     37  C   UNL     1      -9.169  -6.713  -3.199  0.00  0.00    +0.120 A 
ATOM     38  C   UNL     1      -8.091  -7.284  -2.539  0.00  0.00    +0.046 A 
ATOM     39  C   UNL     1      -7.362  -6.537  -1.634  0.00  0.00    +0.009 A 
BRANCH  37  40
ATOM     40  O   UNL     1      -9.884  -7.444  -4.094  0.00  0.00    -0.495 OA
ATOM     41  C   UNL     1      -9.469  -8.795  -4.307  0.00  0.00    +0.277 C 
ENDBRANCH  37  40
ENDBRANCH  15  34
TORSDOF 6
