REMARK  Name = ZINC36207368
REMARK  14 active torsions:
REMARK  status: ('A' for Active; 'I' for Inactive)
REMARK    1  A    between atoms: C_1  and  C_2
REMARK    2  A    between atoms: C_8  and  C_19
REMARK    3  A    between atoms: C_12  and  C_13
REMARK    4  A    between atoms: C_13  and  O_15
REMARK    5  A    between atoms: O_15  and  C_16
REMARK    6  A    between atoms: C_16  and  C_17
REMARK    7  A    between atoms: C_19  and  N_20
REMARK    8  A    between atoms: N_20  and  C_21
REMARK    9  A    between atoms: N_20  and  C_29
REMARK   10  A    between atoms: C_21  and  C_22
REMARK   11  A    between atoms: C_22  and  C_24
REMARK   12  A    between atoms: C_22  and  O_28
REMARK   13  A    between atoms: C_24  and  C_25
REMARK   14  A    between atoms: C_25  and  C_26
REMARK                            x       y       z     vdW  Elec       q    Type
REMARK                         _______ _______ _______ _____ _____    ______ ____
ROOT
ATOM      1  C   UNL     1      -4.172   0.552  -0.576  0.00  0.00    +0.046 C 
ATOM      2  C   UNL     1      -3.807  -0.908  -0.665  0.00  0.00    -0.015 A 
ATOM      3  C   UNL     1      -2.958  -1.357  -1.679  0.00  0.00    +0.076 A 
ATOM      4  C   UNL     1      -2.305  -0.586  -2.762  0.00  0.00    +0.260 A 
ATOM      5  O   UNL     1      -2.474   0.616  -2.863  0.00  0.00    -0.267 OA
ATOM      6  N   UNL     1      -1.519  -1.250  -3.632  0.00  0.00    -0.312 N 
ATOM      7  H   UNL     1      -1.083  -0.760  -4.347  0.00  0.00    +0.170 HD
ATOM      8  C   UNL     1      -1.323  -2.587  -3.529  0.00  0.00    +0.094 A 
ATOM      9  N   UNL     1      -1.884  -3.296  -2.587  0.00  0.00    -0.229 NA
ATOM     10  C   UNL     1      -2.676  -2.742  -1.678  0.00  0.00    +0.116 A 
ATOM     11  S   UNL     1      -3.596  -3.344  -0.284  0.00  0.00    -0.062 S 
ATOM     12  C   UNL     1      -4.302  -1.794   0.248  0.00  0.00    +0.102 A 
ENDROOT
BRANCH  12  13
ATOM     13  C   UNL     1      -5.193  -1.536   1.381  0.00  0.00    +0.347 C 
ATOM     14  O   UNL     1      -5.587  -0.406   1.601  0.00  0.00    -0.244 OA
BRANCH  13  15
ATOM     15  O   UNL     1      -5.578  -2.552   2.181  0.00  0.00    -0.457 OA
BRANCH  15  16
ATOM     16  C   UNL     1      -6.448  -2.228   3.268  0.00  0.00    +0.259 C 
BRANCH  16  17
ATOM     17  C   UNL     1      -6.767  -3.479   4.045  0.00  0.00    +0.006 C 
ATOM     18  C   UNL     1      -6.728  -3.465   5.354  0.00  0.00    +0.007 C 
ENDBRANCH  16  17
ENDBRANCH  15  16
ENDBRANCH  13  15
ENDBRANCH  12  13
BRANCH   8  19
ATOM     19  C   UNL     1      -0.434  -3.276  -4.531  0.00  0.00    -0.003 C 
BRANCH  19  20
ATOM     20  N   UNL     1      -0.228  -4.672  -4.125  0.00  0.00    +0.388 N 
ATOM     21  H   UNL     1      -1.076  -5.032  -3.714  0.00  0.00    -0.081 HD
BRANCH  20  22
ATOM     22  C   UNL     1       0.860  -4.740  -3.139  0.00  0.00    -0.068 C 
ATOM     23  C   UNL     1       2.171  -4.306  -3.797  0.00  0.00    -0.015 C 
ATOM     24  C   UNL     1       3.304  -4.377  -2.771  0.00  0.00    -0.002 C 
ATOM     25  C   UNL     1       2.989  -3.446  -1.598  0.00  0.00    -0.000 C 
ATOM     26  C   UNL     1       1.677  -3.880  -0.941  0.00  0.00    -0.002 C 
ATOM     27  C   UNL     1       0.544  -3.809  -1.967  0.00  0.00    -0.015 C 
ENDBRANCH  20  22
BRANCH  20  28
ATOM     28  C   UNL     1       0.127  -5.478  -5.301  0.00  0.00    -0.046 C 
BRANCH  28  29
ATOM     29  C   UNL     1       0.153  -6.958  -4.917  0.00  0.00    +0.098 C 
BRANCH  29  30
ATOM     30  O   UNL     1       1.271  -7.210  -4.064  0.00  0.00    -0.394 OA
ATOM     31  H   UNL     1       2.122  -6.949  -4.443  0.00  0.00    +0.210 HD
ENDBRANCH  29  30
BRANCH  29  32
ATOM     32  C   UNL     1       0.274  -7.811  -6.181  0.00  0.00    +0.033 C 
BRANCH  32  33
ATOM     33  C   UNL     1       0.174  -9.292  -5.809  0.00  0.00    +0.029 C 
BRANCH  33  34
ATOM     34  C   UNL     1       0.294 -10.132  -7.054  0.00  0.00    -0.034 C 
ATOM     35  C   UNL     1       1.204 -11.071  -7.126  0.00  0.00    +0.004 C 
ENDBRANCH  33  34
ENDBRANCH  32  33
ENDBRANCH  29  32
ENDBRANCH  28  29
ENDBRANCH  20  28
ENDBRANCH  19  20
ENDBRANCH   8  19
TORSDOF 13
