REMARK  Name = ZINC38966446
REMARK  8 active torsions:
REMARK  status: ('A' for Active; 'I' for Inactive)
REMARK    1  A    between atoms: C_1  and  C_2
REMARK    2  A    between atoms: C_2  and  C_3
REMARK    3  A    between atoms: C_3  and  C_4
REMARK    4  A    between atoms: C_4  and  C_5
REMARK    5  A    between atoms: C_8  and  N_11
REMARK    6  A    between atoms: N_11  and  C_12
REMARK    7  A    between atoms: N_15  and  S_16
REMARK    8  A    between atoms: S_16  and  C_19
REMARK                            x       y       z     vdW  Elec       q    Type
REMARK                         _______ _______ _______ _____ _____    ______ ____
ROOT
ATOM      1  C   UNL     1       4.853  -3.982  -5.941  0.00  0.00    +0.237 C 
ATOM      2  C   UNL     1       5.375  -3.197  -7.123  0.00  0.00    +0.192 C 
ATOM      3  N   UNL     1       5.117  -1.927  -7.237  0.00  0.00    -0.110 NA
ATOM      4  N   UNL     1       6.110  -3.829  -8.052  0.00  0.00    -0.226 NA
ATOM      5  C   UNL     1       6.385  -5.113  -7.958  0.00  0.00    +0.089 A 
ATOM      6  C   UNL     1       7.165  -5.748  -8.958  0.00  0.00    +0.030 A 
ATOM      7  C   UNL     1       7.450  -7.065  -8.868  0.00  0.00    +0.002 A 
ATOM      8  C   UNL     1       7.004  -7.867  -7.804  0.00  0.00    +0.002 A 
ATOM      9  C   UNL     1       6.255  -7.363  -6.799  0.00  0.00    +0.027 A 
ATOM     10  C   UNL     1       5.901  -5.936  -6.824  0.00  0.00    +0.063 A 
ATOM     11  N   UNL     1       5.181  -5.415  -5.871  0.00  0.00    -0.359 N 
ATOM     12  H   UNL     1       4.868  -5.960  -5.132  0.00  0.00    +0.162 HD
ENDROOT
BRANCH   3  13
ATOM     13  S   UNL     1       5.694  -1.079  -8.537  0.00  0.00    +0.103 S 
ATOM     14  O   UNL     1       7.110  -1.060  -8.412  0.00  0.00    -0.146 OA
ATOM     15  O   UNL     1       5.037  -1.597  -9.685  0.00  0.00    -0.146 OA
BRANCH  13  16
ATOM     16  C   UNL     1       5.151   0.588  -8.354  0.00  0.00    +0.141 A 
ATOM     17  C   UNL     1       6.056   1.577  -8.169  0.00  0.00    +0.031 A 
ATOM     18  C   UNL     1       5.662   2.907  -8.021  0.00  0.00    +0.004 A 
ATOM     19  C   UNL     1       4.357   3.266  -8.056  0.00  0.00    +0.031 A 
ATOM     20  C   UNL     1       3.351   2.280  -8.246  0.00  0.00    +0.102 A 
ATOM     21  C   UNL     1       3.763   0.891  -8.407  0.00  0.00    +0.127 A 
ATOM     22  N   UNL     1       2.738   0.057  -8.584  0.00  0.00    -0.189 NA
ATOM     23  S   UNL     1       1.419   0.977  -8.551  0.00  0.00    +0.117 S 
ATOM     24  N   UNL     1       2.029   2.445  -8.307  0.00  0.00    -0.191 NA
ENDBRANCH  13  16
ENDBRANCH   3  13
BRANCH   1  25
ATOM     25  N   UNL     1       3.393  -3.857  -5.931  0.00  0.00    -0.318 N 
ATOM     26  H   UNL     1       2.884  -4.052  -6.733  0.00  0.00    +0.148 HD
BRANCH  25  30
ATOM     27  C   UNL     1       1.432  -2.659  -2.458  0.00  0.00    -0.047 A 
ATOM     28  C   UNL     1       2.786  -2.939  -2.424  0.00  0.00    +0.005 A 
ATOM     29  C   UNL     1       3.439  -3.337  -3.574  0.00  0.00    +0.023 A 
ATOM     30  C   UNL     1       2.735  -3.455  -4.766  0.00  0.00    +0.029 A 
ATOM     31  C   UNL     1       1.375  -3.173  -4.796  0.00  0.00    +0.023 A 
ATOM     32  C   UNL     1       0.727  -2.781  -3.642  0.00  0.00    +0.005 A 
BRANCH  27  33
ATOM     33  C   UNL     1       0.723  -2.225  -1.202  0.00  0.00    +0.035 C 
BRANCH  33  34
ATOM     34  C   UNL     1       0.195  -3.457  -0.463  0.00  0.00    +0.004 C 
BRANCH  34  36
ATOM     35  C   UNL     1      -1.052  -4.248   1.552  0.00  0.00    +0.004 C 
ATOM     36  C   UNL     1      -0.525  -3.017   0.813  0.00  0.00    -0.003 C 
ENDBRANCH  34  36
ENDBRANCH  33  34
ENDBRANCH  27  33
ENDBRANCH  25  30
ENDBRANCH   1  25
TORSDOF 7
