REMARK  Name = ZINC15276099
REMARK  12 active torsions:
REMARK  status: ('A' for Active; 'I' for Inactive)
REMARK    1  A    between atoms: C_1  and  C_2
REMARK    2  A    between atoms: C_2  and  C_3
REMARK    3  A    between atoms: C_2  and  C_4
REMARK    4  A    between atoms: C_4  and  C_5
REMARK    5  A    between atoms: C_5  and  C_35
REMARK    6  A    between atoms: C_10  and  C_13
REMARK    7  A    between atoms: C_17  and  O_20
REMARK    8  A    between atoms: C_18  and  O_19
REMARK    9  A    between atoms: O_20  and  C_21
REMARK   10  A    between atoms: N_24  and  C_27
REMARK   11  A    between atoms: C_32  and  O_33
REMARK   12  A    between atoms: O_33  and  C_34
REMARK                            x       y       z     vdW  Elec       q    Type
REMARK                         _______ _______ _______ _____ _____    ______ ____
ROOT
ATOM      1  C   UNL     1      -1.572  -1.720   0.448  0.00  0.00    +0.048 C 
ATOM      2  C   UNL     1      -3.096  -1.770   0.486  0.00  0.00    +0.086 C 
ATOM      3  C   UNL     1      -3.227  -3.164   1.209  0.00  0.00    +0.077 C 
ATOM      4  C   UNL     1      -2.301  -3.051   2.342  0.00  0.00    -0.023 C 
ATOM      5  N   UNL     1      -1.183  -2.183   1.820  0.00  0.00    +0.396 N 
ATOM      6  C   UNL     1      -4.599  -3.517   0.932  0.00  0.00    +0.229 C 
ATOM      7  O   UNL     1      -5.360  -4.136   1.644  0.00  0.00    -0.275 OA
ATOM      8  N   UNL     1      -4.853  -2.999  -0.314  0.00  0.00    -0.206 N 
ATOM      9  C   UNL     1      -3.888  -2.110  -0.737  0.00  0.00    +0.229 C 
ATOM     10  O   UNL     1      -3.708  -1.691  -1.861  0.00  0.00    -0.275 OA
ATOM     11  H   UNL     1      -0.324  -2.711   1.772  0.00  0.00    -0.083 HD
ATOM     12  H   UNL     1      -1.064  -1.388   2.430  0.00  0.00    -0.083 HD
ENDROOT
BRANCH   4  13
ATOM     13  C   UNL     1      -2.988  -2.411   3.521  0.00  0.00    -0.015 A 
ATOM     14  C   UNL     1      -2.920  -1.042   3.702  0.00  0.00    +0.006 A 
ATOM     15  C   UNL     1      -3.549  -0.453   4.782  0.00  0.00    +0.004 A 
ATOM     16  C   UNL     1      -4.250  -1.230   5.687  0.00  0.00    +0.049 A 
ATOM     17  C   UNL     1      -4.322  -2.602   5.511  0.00  0.00    +0.161 A 
ATOM     18  C   UNL     1      -3.693  -3.195   4.420  0.00  0.00    +0.160 A 
BRANCH  18  19
ATOM     19  O   UNL     1      -3.766  -4.541   4.240  0.00  0.00    -0.503 OA
ATOM     20  H   UNL     1      -3.055  -5.034   4.672  0.00  0.00    +0.292 HD
ENDBRANCH  18  19
BRANCH  17  21
ATOM     21  O   UNL     1      -5.010  -3.367   6.400  0.00  0.00    -0.491 OA
ATOM     22  C   UNL     1      -5.635  -2.690   7.492  0.00  0.00    +0.277 C 
ENDBRANCH  17  21
ENDBRANCH   4  13
BRANCH   8  23
ATOM     23  C   UNL     1      -5.985  -3.329  -1.076  0.00  0.00    +0.085 A 
ATOM     24  C   UNL     1      -7.146  -2.580  -0.957  0.00  0.00    +0.027 A 
ATOM     25  C   UNL     1      -8.258  -2.906  -1.709  0.00  0.00    +0.002 A 
ATOM     26  C   UNL     1      -8.218  -3.979  -2.580  0.00  0.00    +0.004 A 
ATOM     27  C   UNL     1      -7.064  -4.731  -2.704  0.00  0.00    +0.047 A 
ATOM     28  C   UNL     1      -5.943  -4.406  -1.958  0.00  0.00    +0.142 A 
BRANCH  28  29
ATOM     29  O   UNL     1      -4.806  -5.141  -2.082  0.00  0.00    -0.493 OA
ATOM     30  C   UNL     1      -4.835  -6.231  -3.006  0.00  0.00    +0.277 C 
ENDBRANCH  28  29
ENDBRANCH   8  23
BRANCH   1  31
ATOM     31  C   UNL     1      -1.030  -2.653  -0.603  0.00  0.00    +0.346 C 
ATOM     32  O   UNL     1      -0.317  -3.588  -0.279  0.00  0.00    -0.248 OA
ATOM     33  O   UNL     1      -1.304  -2.474  -1.777  0.00  0.00    -0.248 OA
ENDBRANCH   1  31
BRANCH   1  34
ATOM     34  C   UNL     1      -1.084  -0.290   0.202  0.00  0.00    +0.002 C 
BRANCH  34  36
ATOM     35  C   UNL     1       0.934   1.118  -0.232  0.00  0.00    +0.007 C 
ATOM     36  C   UNL     1       0.446  -0.266   0.203  0.00  0.00    -0.018 C 
ATOM     37  C   UNL     1       0.960  -0.568   1.612  0.00  0.00    +0.007 C 
ENDBRANCH  34  36
ENDBRANCH   1  34
TORSDOF 8
