REMARK  Name = ZINC38740245
REMARK  4 active torsions:
REMARK  status: ('A' for Active; 'I' for Inactive)
REMARK    1  A    between atoms: C_13  and  C_15
REMARK    2  A    between atoms: C_21  and  C_23
REMARK    3  A    between atoms: C_28  and  C_31
REMARK    4  A    between atoms: C_28  and  O_38
REMARK                            x       y       z     vdW  Elec       q    Type
REMARK                         _______ _______ _______ _____ _____    ______ ____
ROOT
ATOM      1  C   UNL     1       0.167  -6.648   1.137  0.00  0.00    +0.087 C 
ATOM      2  C   UNL     1      -0.690  -6.210   2.326  0.00  0.00    +0.013 C 
ATOM      3  C   UNL     1      -1.990  -7.017   2.343  0.00  0.00    +0.001 C 
ATOM      4  C   UNL     1      -1.664  -8.507   2.469  0.00  0.00    +0.001 C 
ATOM      5  C   UNL     1      -0.807  -8.944   1.280  0.00  0.00    +0.013 C 
ATOM      6  C   UNL     1       0.493  -8.137   1.264  0.00  0.00    +0.087 C 
ENDROOT
BRANCH   1  19
ATOM      7  C   UNL     1       2.477   1.098  -1.333  0.00  0.00    +0.005 A 
ATOM      8  C   UNL     1       1.242   1.683  -1.581  0.00  0.00    +0.018 A 
ATOM      9  C   UNL     1       0.106   0.901  -1.553  0.00  0.00    +0.084 A 
ATOM     10  N   UNL     1       0.180  -0.391  -1.294  0.00  0.00    -0.350 N 
ATOM     11  C   UNL     1       1.338  -0.986  -1.053  0.00  0.00    +0.099 A 
ATOM     12  C   UNL     1       2.524  -0.258  -1.065  0.00  0.00    +0.042 A 
ATOM     13  N   UNL     1       1.370  -2.349  -0.785  0.00  0.00    -0.314 N 
ATOM     14  C   UNL     1       2.651  -3.053  -0.636  0.00  0.00    +0.125 C 
ATOM     15  C   UNL     1       2.664  -3.767   0.721  0.00  0.00    +0.126 C 
ATOM     16  N   UNL     1       1.416  -4.531   0.861  0.00  0.00    -0.298 N 
ATOM     17  C   UNL     1       0.135  -3.828   0.712  0.00  0.00    +0.126 C 
ATOM     18  C   UNL     1       0.122  -3.112  -0.639  0.00  0.00    +0.125 C 
ATOM     19  C   UNL     1       1.447  -5.853   1.121  0.00  0.00    +0.219 C 
ATOM     20  O   UNL     1       2.505  -6.403   1.342  0.00  0.00    -0.275 OA
ATOM     21  H   UNL     1      -0.634  -0.918  -1.281  0.00  0.00    +0.166 HD
ENDBRANCH   1  19
BRANCH   6  22
ATOM     22  C   UNL     1       1.337  -8.568   0.092  0.00  0.00    +0.219 C 
ATOM     23  O   UNL     1       1.161  -8.068  -0.999  0.00  0.00    -0.275 OA
ATOM     24  N   UNL     1       2.287  -9.510   0.256  0.00  0.00    -0.301 N 
ATOM     25  C   UNL     1       2.432 -10.211   1.539  0.00  0.00    +0.111 C 
ATOM     26  C   UNL     1       2.387 -11.721   1.283  0.00  0.00    +0.058 C 
ATOM     27  C   UNL     1       3.446 -12.090   0.242  0.00  0.00    +0.094 C 
ATOM     28  C   UNL     1       3.144 -11.368  -1.073  0.00  0.00    +0.058 C 
ATOM     29  C   UNL     1       3.194  -9.859  -0.846  0.00  0.00    +0.111 C 
BRANCH  27  30
ATOM     30  C   UNL     1       3.427 -13.579   0.013  0.00  0.00    -0.016 A 
ATOM     31  C   UNL     1       2.248 -14.286   0.159  0.00  0.00    +0.008 A 
ATOM     32  C   UNL     1       2.230 -15.652  -0.051  0.00  0.00    +0.020 A 
ATOM     33  C   UNL     1       3.393 -16.312  -0.407  0.00  0.00    +0.041 A 
ATOM     34  C   UNL     1       4.573 -15.604  -0.553  0.00  0.00    +0.020 A 
ATOM     35  C   UNL     1       4.588 -14.238  -0.348  0.00  0.00    +0.008 A 
ATOM     36 CL   UNL     1       3.372 -18.028  -0.670  0.00  0.00    -0.084 Cl
ENDBRANCH  27  30
BRANCH  27  37
ATOM     37  O   UNL     1       4.736 -11.698   0.715  0.00  0.00    -0.384 OA
ATOM     38  H   UNL     1       5.457 -11.901   0.104  0.00  0.00    +0.211 HD
ENDBRANCH  27  37
ENDBRANCH   6  22
TORSDOF 4
