REMARK  Name = ZINC06331988
REMARK  8 active torsions:
REMARK  status: ('A' for Active; 'I' for Inactive)
REMARK    1  A    between atoms: C_1  and  C_2
REMARK    2  A    between atoms: C_2  and  C_23
REMARK    3  A    between atoms: C_4  and  N_9
REMARK    4  A    between atoms: C_6  and  C_7
REMARK    5  A    between atoms: C_6  and  C_8
REMARK    6  A    between atoms: N_9  and  C_10
REMARK    7  A    between atoms: C_10  and  N_12
REMARK    8  A    between atoms: N_12  and  C_13
REMARK                            x       y       z     vdW  Elec       q    Type
REMARK                         _______ _______ _______ _____ _____    ______ ____
ROOT
ATOM      1  N   UNL     1       0.862  -1.988  -1.094  0.00  0.00    -0.324 N 
ATOM      2  H   UNL     1       0.714  -2.459  -0.259  0.00  0.00    +0.148 HD
ENDROOT
BRANCH   1   6
ATOM      3  C   UNL     1      -1.187   1.906  -1.183  0.00  0.00    -0.010 C 
ATOM      4  C   UNL     1      -0.277   1.472  -0.029  0.00  0.00    -0.072 C 
ATOM      5  C   UNL     1      -0.162  -0.051  -0.014  0.00  0.00    +0.009 C 
ATOM      6  C   UNL     1       0.754  -0.525  -1.142  0.00  0.00    +0.069 C 
ATOM      7  C   UNL     1       2.139   0.089  -0.933  0.00  0.00    +0.009 C 
ATOM      8  C   UNL     1       2.054   1.613  -0.955  0.00  0.00    -0.072 C 
ATOM      9  C   UNL     1       3.408   2.162  -0.453  0.00  0.00    -0.010 C 
ATOM     10  C   UNL     1       1.877   2.095  -2.400  0.00  0.00    -0.010 C 
ATOM     11  C   UNL     1      -0.969   1.899   1.285  0.00  0.00    -0.010 C 
ATOM     12  N   UNL     1       1.022   2.197  -0.056  0.00  0.00    +0.386 N 
ATOM     13  H   UNL     1       1.401   2.207   0.898  0.00  0.00    -0.084 HD
ATOM     14  H   UNL     1       0.842   3.160  -0.363  0.00  0.00    -0.084 HD
ENDBRANCH   1   6
BRANCH   1  15
ATOM     15  C   UNL     1       1.166  -2.678  -2.212  0.00  0.00    +0.131 C 
ATOM     16  S   UNL     1       1.427  -1.848  -3.686  0.00  0.00    -0.019 S 
BRANCH  15  17
ATOM     17  N   UNL     1       1.265  -4.022  -2.168  0.00  0.00    -0.323 N 
ATOM     18  H   UNL     1       1.117  -4.492  -1.333  0.00  0.00    +0.148 HD
BRANCH  17  19
ATOM     19  C   UNL     1       1.596  -4.772  -3.382  0.00  0.00    +0.075 C 
ATOM     20  C   UNL     1       2.160  -6.164  -3.019  0.00  0.00    +0.026 C 
ATOM     21  C   UNL     1       1.157  -7.174  -3.655  0.00  0.00    -0.009 C 
ATOM     22  C   UNL     1      -0.136  -7.036  -2.795  0.00  0.00    +0.004 C 
ATOM     23  C   UNL     1      -0.700  -5.643  -3.158  0.00  0.00    +0.005 C 
ATOM     24  C   UNL     1       0.305  -5.072  -4.204  0.00  0.00    +0.010 C 
ATOM     25  C   UNL     1       0.733  -6.387  -4.945  0.00  0.00    +0.009 C 
ENDBRANCH  17  19
ENDBRANCH  15  17
ENDBRANCH   1  15
TORSDOF 4
