REMARK  Name = ZINC12080518
REMARK  8 active torsions:
REMARK  status: ('A' for Active; 'I' for Inactive)
REMARK    1  A    between atoms: C_1  and  C_2
REMARK    2  A    between atoms: C_5  and  C_8
REMARK    3  A    between atoms: C_9  and  S_10
REMARK    4  A    between atoms: C_9  and  N_53
REMARK    5  A    between atoms: S_10  and  C_13
REMARK    6  A    between atoms: N_19  and  C_20
REMARK    7  A    between atoms: C_20  and  N_22
REMARK    8  A    between atoms: N_22  and  C_23
REMARK                            x       y       z     vdW  Elec       q    Type
REMARK                         _______ _______ _______ _____ _____    ______ ____
ROOT
ATOM      1  C   UNL     1      -6.023   5.914  -1.912  0.00  0.00    +0.106 C 
ATOM      2  N   UNL     1      -4.754   5.649  -2.392  0.00  0.00    -0.283 N 
ATOM      3  H   UNL     1      -4.047   5.391  -1.780  0.00  0.00    +0.155 HD
ATOM      4  N   UNL     1      -6.572   5.226  -0.906  0.00  0.00    -0.354 N 
ATOM      5  H   UNL     1      -7.540   5.416  -0.622  0.00  0.00    +0.162 HD
ENDROOT
BRANCH   1  10
ATOM      6  C   UNL     1      -9.174  10.116  -4.267  0.00  0.00    +0.044 C 
ATOM      7  C   UNL     1      -8.349   9.016  -3.651  0.00  0.00    -0.050 A 
ATOM      8  C   UNL     1      -8.961   8.052  -2.869  0.00  0.00    +0.004 A 
ATOM      9  C   UNL     1      -8.211   7.043  -2.301  0.00  0.00    +0.011 A 
ATOM     10  C   UNL     1      -6.834   6.994  -2.518  0.00  0.00    +0.013 A 
ATOM     11  C   UNL     1      -6.223   7.971  -3.304  0.00  0.00    +0.011 A 
ATOM     12  C   UNL     1      -6.984   8.973  -3.870  0.00  0.00    +0.004 A 
ENDBRANCH   1  10
BRANCH   2  13
ATOM     13  C   UNL     1      -4.498   5.749  -3.712  0.00  0.00    +0.136 C 
ATOM     14  S   UNL     1      -5.776   6.051  -4.811  0.00  0.00    -0.019 S 
BRANCH  13  15
ATOM     15  N   UNL     1      -3.237   5.611  -4.166  0.00  0.00    -0.322 N 
ATOM     16  H   UNL     1      -2.513   5.439  -3.544  0.00  0.00    +0.148 HD
BRANCH  15  17
ATOM     17  C   UNL     1      -2.960   5.719  -5.601  0.00  0.00    +0.094 C 
ATOM     18  C   UNL     1      -3.206   4.357  -6.271  0.00  0.00    +0.046 C 
ATOM     19  C   UNL     1      -2.610   4.409  -7.708  0.00  0.00    +0.168 C 
ATOM     20  S   UNL     1      -1.044   5.325  -7.390  0.00  0.00    -0.029 S 
ATOM     21  O   UNL     1      -0.874   6.314  -8.396  0.00  0.00    -0.174 OA
ATOM     22  O   UNL     1      -0.002   4.389  -7.146  0.00  0.00    -0.174 OA
ATOM     23  C   UNL     1      -1.488   6.151  -5.808  0.00  0.00    +0.188 C 
ENDBRANCH  15  17
ENDBRANCH  13  15
ENDBRANCH   2  13
BRANCH   4  24
ATOM     24  C   UNL     1      -5.772   4.173  -0.190  0.00  0.00    +0.288 C 
BRANCH  24  25
ATOM     25  S   UNL     1      -5.599   4.667   1.547  0.00  0.00    +0.015 S 
ATOM     26  O   UNL     1      -4.945   3.643   2.284  0.00  0.00    -0.168 OA
ATOM     27  O   UNL     1      -5.158   6.015   1.631  0.00  0.00    -0.168 OA
BRANCH  25  28
ATOM     28  C   UNL     1      -7.245   4.693   2.176  0.00  0.00    +0.090 A 
ATOM     29  C   UNL     1      -7.991   5.854   2.111  0.00  0.00    +0.027 A 
ATOM     30  C   UNL     1      -9.284   5.873   2.601  0.00  0.00    +0.002 A 
ATOM     31  C   UNL     1      -9.827   4.733   3.163  0.00  0.00    +0.000 A 
ATOM     32  C   UNL     1      -9.078   3.573   3.233  0.00  0.00    +0.002 A 
ATOM     33  C   UNL     1      -7.787   3.553   2.739  0.00  0.00    +0.027 A 
ENDBRANCH  25  28
ENDBRANCH  24  25
ENDBRANCH   4  24
TORSDOF 7
