REMARK  Name = ZINC40344939
REMARK  8 active torsions:
REMARK  status: ('A' for Active; 'I' for Inactive)
REMARK    1  A    between atoms: C_1  and  O_2
REMARK    2  A    between atoms: O_2  and  C_3
REMARK    3  A    between atoms: C_6  and  C_9
REMARK    4  A    between atoms: N_17  and  C_28
REMARK    5  A    between atoms: C_18  and  C_20
REMARK    6  A    between atoms: C_28  and  C_29
REMARK    7  A    between atoms: C_29  and  C_30
REMARK    8  A    between atoms: C_30  and  N_31
REMARK                            x       y       z     vdW  Elec       q    Type
REMARK                         _______ _______ _______ _____ _____    ______ ____
ROOT
ATOM      1  C   UNL     1      -4.960  -2.618   0.037  0.00  0.00    +0.072 A 
ATOM      2  C   UNL     1      -5.325  -3.677  -0.732  0.00  0.00    +0.035 A 
ATOM      3  C   UNL     1      -6.657  -3.981  -0.368  0.00  0.00    +0.153 A 
ATOM      4  N   UNL     1      -7.006  -3.119   0.566  0.00  0.00    -0.168 NA
ATOM      5  H   UNL     1      -6.062  -1.604   1.481  0.00  0.00    +0.189 HD
ATOM      6  N   UNL     1      -6.035  -2.318   0.825  0.00  0.00    -0.276 N 
ATOM      7  C   UNL     1      -7.096  -5.130  -1.181  0.00  0.00    +0.268 C 
ATOM      8  O   UNL     1      -8.196  -5.644  -1.116  0.00  0.00    -0.268 OA
ATOM      9  N   UNL     1      -6.111  -5.527  -2.004  0.00  0.00    -0.285 N 
ATOM     10  C   UNL     1      -4.940  -4.667  -1.797  0.00  0.00    +0.141 C 
ENDROOT
BRANCH  10  11
ATOM     11  C   UNL     1      -3.767  -5.493  -1.336  0.00  0.00    -0.021 A 
ATOM     12  C   UNL     1      -3.964  -6.543  -0.459  0.00  0.00    +0.007 A 
ATOM     13  C   UNL     1      -2.889  -7.301  -0.035  0.00  0.00    +0.022 A 
ATOM     14  C   UNL     1      -1.615  -7.010  -0.489  0.00  0.00    +0.059 A 
ATOM     15  C   UNL     1      -1.418  -5.959  -1.368  0.00  0.00    +0.060 A 
ATOM     16  C   UNL     1      -2.496  -5.204  -1.795  0.00  0.00    +0.027 A 
ATOM     17 CL   UNL     1       0.180  -5.591  -1.938  0.00  0.00    -0.082 Cl
ATOM     18 CL   UNL     1      -0.265  -7.962   0.044  0.00  0.00    -0.082 Cl
ENDBRANCH  10  11
BRANCH   1  22
ATOM     19  C   UNL     1      -1.200  -0.637   0.010  0.00  0.00    +0.120 A 
ATOM     20  C   UNL     1      -2.374   0.105   0.020  0.00  0.00    +0.046 A 
ATOM     21  C   UNL     1      -3.595  -0.534   0.028  0.00  0.00    +0.013 A 
ATOM     22  C   UNL     1      -3.651  -1.929   0.027  0.00  0.00    +0.000 A 
ATOM     23  C   UNL     1      -2.470  -2.671   0.017  0.00  0.00    +0.013 A 
ATOM     24  C   UNL     1      -1.252  -2.025   0.003  0.00  0.00    +0.046 A 
BRANCH  19  26
ATOM     25  C   UNL     1      -0.017   1.425   0.010  0.00  0.00    +0.277 C 
ATOM     26  O   UNL     1       0.002  -0.004   0.002  0.00  0.00    -0.495 OA
ENDBRANCH  19  26
ENDBRANCH   1  22
BRANCH   9  27
ATOM     27  C   UNL     1      -6.193  -6.638  -2.955  0.00  0.00    +0.111 C 
BRANCH  27  28
ATOM     28  C   UNL     1      -6.705  -6.122  -4.301  0.00  0.00    +0.040 C 
BRANCH  28  29
ATOM     29  C   UNL     1      -6.790  -7.282  -5.294  0.00  0.00    +0.124 C 
BRANCH  29  30
ATOM     30  N   UNL     1      -7.280  -6.787  -6.583  0.00  0.00    -0.338 N 
ATOM     31  C   UNL     1      -8.588  -6.704  -6.977  0.00  0.00    +0.104 A 
ATOM     32  C   UNL     1      -8.588  -6.196  -8.224  0.00  0.00    +0.101 A 
ATOM     33  N   UNL     1      -7.314  -5.976  -8.582  0.00  0.00    -0.352 N 
ATOM     34  C   UNL     1      -6.525  -6.323  -7.602  0.00  0.00    +0.173 A 
ATOM     35  H   UNL     1      -7.024  -5.613  -9.434  0.00  0.00    +0.166 HD
ENDBRANCH  29  30
ENDBRANCH  28  29
ENDBRANCH  27  28
ENDBRANCH   9  27
TORSDOF 7
