REMARK  Name = ZINC03381051
REMARK  9 active torsions:
REMARK  status: ('A' for Active; 'I' for Inactive)
REMARK    1  A    between atoms: C_3  and  S_8
REMARK    2  A    between atoms: S_8  and  N_11
REMARK    3  A    between atoms: C_16  and  C_17
REMARK    4  A    between atoms: C_16  and  N_51
REMARK    5  A    between atoms: C_17  and  C_19
REMARK    6  A    between atoms: C_17  and  O_29
REMARK    7  A    between atoms: C_19  and  O_20
REMARK    8  A    between atoms: O_20  and  C_21
REMARK    9  A    between atoms: C_24  and  C_27
REMARK                            x       y       z     vdW  Elec       q    Type
REMARK                         _______ _______ _______ _____ _____    ______ ____
ROOT
ATOM      1  N   UNL     1      -1.651   2.525   6.065  0.00  0.00    -0.180 NA
ATOM      2  C   UNL     1      -1.492   1.065   5.985  0.00  0.00    +0.091 C 
ATOM      3  C   UNL     1      -0.483   0.745   4.877  0.00  0.00    -0.061 C 
ATOM      4  C   UNL     1      -0.915   2.855   3.764  0.00  0.00    -0.061 C 
ATOM      5  C   UNL     1      -1.942   3.262   4.826  0.00  0.00    +0.091 C 
ATOM      6  N   UNL     1      -0.936   1.383   3.623  0.00  0.00    +0.383 N 
ATOM      7  H   UNL     1      -1.898   1.081   3.424  0.00  0.00    -0.082 HD
ENDROOT
BRANCH   1   8
ATOM      8  S   UNL     1      -1.503   3.318   7.511  0.00  0.00    +0.061 S 
ATOM      9  O   UNL     1      -2.229   4.533   7.383  0.00  0.00    -0.153 OA
ATOM     10  O   UNL     1      -1.785   2.365   8.527  0.00  0.00    -0.153 OA
BRANCH   8  13
ATOM     11  C   UNL     1       2.402   3.241   8.455  0.00  0.00    +0.003 A 
ATOM     12  C   UNL     1       1.070   2.896   8.317  0.00  0.00    +0.028 A 
ATOM     13  C   UNL     1       0.192   3.761   7.692  0.00  0.00    +0.107 A 
ATOM     14  C   UNL     1       0.644   4.977   7.213  0.00  0.00    +0.043 A 
ATOM     15  C   UNL     1       1.975   5.325   7.356  0.00  0.00    +0.020 A 
ATOM     16  C   UNL     1       2.854   4.456   7.977  0.00  0.00    +0.015 A 
ATOM     17 BR   UNL     1       2.592   6.989   6.702  0.00  0.00    -0.050 Br
ENDBRANCH   8  13
ENDBRANCH   1   8
BRANCH   6  18
ATOM     18  C   UNL     1      -0.064   0.971   2.503  0.00  0.00    -0.044 C 
BRANCH  18  19
ATOM     19  C   UNL     1      -0.455  -0.444   2.074  0.00  0.00    +0.135 C 
BRANCH  19  20
ATOM     20  O   UNL     1      -1.823  -0.456   1.662  0.00  0.00    -0.390 OA
ATOM     21  H   UNL     1      -2.015   0.131   0.918  0.00  0.00    +0.210 HD
ENDBRANCH  19  20
BRANCH  19  22
ATOM     22  C   UNL     1       0.433  -0.887   0.909  0.00  0.00    +0.258 C 
BRANCH  22  23
ATOM     23  O   UNL     1       0.148  -2.249   0.584  0.00  0.00    -0.489 OA
BRANCH  23  24
ATOM     24  C   UNL     1       0.854  -2.801  -0.435  0.00  0.00    +0.121 A 
ATOM     25  C   UNL     1       1.800  -2.041  -1.113  0.00  0.00    +0.047 A 
ATOM     26  C   UNL     1       2.523  -2.598  -2.145  0.00  0.00    +0.022 A 
ATOM     27  C   UNL     1       2.297  -3.926  -2.517  0.00  0.00    +0.052 A 
ATOM     28  C   UNL     1       1.340  -4.685  -1.836  0.00  0.00    +0.022 A 
ATOM     29  C   UNL     1       0.625  -4.121  -0.802  0.00  0.00    +0.047 A 
BRANCH  27  30
ATOM     30  C   UNL     1       3.042  -4.508  -3.591  0.00  0.00    +0.099 C 
ATOM     31  N   UNL     1       3.634  -4.970  -4.444  0.00  0.00    -0.191 NA
ENDBRANCH  27  30
ENDBRANCH  23  24
ENDBRANCH  22  23
ENDBRANCH  19  22
ENDBRANCH  18  19
ENDBRANCH   6  18
TORSDOF 9
