REMARK  Name = ZINC61719927
REMARK  5 active torsions:
REMARK  status: ('A' for Active; 'I' for Inactive)
REMARK    1  A    between atoms: C_1  and  N_2
REMARK    2  A    between atoms: C_8  and  C_14
REMARK    3  A    between atoms: C_11  and  O_13
REMARK    4  A    between atoms: C_17  and  O_20
REMARK    5  A    between atoms: O_20  and  C_21
REMARK                            x       y       z     vdW  Elec       q    Type
REMARK                         _______ _______ _______ _____ _____    ______ ____
ROOT
ATOM      1  C   UNL     1       0.381   2.140  -0.938  0.00  0.00    +0.127 C 
ATOM      2  N   UNL     1       0.331   0.698  -0.682  0.00  0.00    -0.326 N 
ATOM      3  C   UNL     1       0.856  -0.188  -1.608  0.00  0.00    +0.160 A 
ATOM      4  N   UNL     1       1.441   0.062  -2.766  0.00  0.00    -0.206 NA
ATOM      5  C   UNL     1       1.898  -0.915  -3.557  0.00  0.00    +0.169 A 
ATOM      6  C   UNL     1       1.736  -2.204  -3.105  0.00  0.00    +0.045 A 
ATOM      7  S   UNL     1       0.926  -1.976  -1.550  0.00  0.00    -0.055 S 
ATOM      8  C   UNL     1       2.178  -3.434  -3.818  0.00  0.00    +0.068 C 
ATOM      9  C   UNL     1       2.168  -3.124  -5.323  0.00  0.00    +0.109 C 
ATOM     10  C   UNL     1       2.688  -1.740  -5.580  0.00  0.00    +0.190 C 
ATOM     11  N   UNL     1       2.538  -0.739  -4.779  0.00  0.00    -0.197 NA
ATOM     12  H   UNL     1      -0.069   0.365   0.136  0.00  0.00    +0.148 HD
ENDROOT
BRANCH   8  13
ATOM     13  C   UNL     1       3.571  -3.807  -3.380  0.00  0.00    -0.039 A 
ATOM     14  C   UNL     1       4.614  -2.920  -3.568  0.00  0.00    +0.008 A 
ATOM     15  C   UNL     1       5.892  -3.260  -3.168  0.00  0.00    +0.046 A 
ATOM     16  C   UNL     1       6.128  -4.492  -2.577  0.00  0.00    +0.121 A 
ATOM     17  C   UNL     1       5.079  -5.381  -2.389  0.00  0.00    +0.046 A 
ATOM     18  C   UNL     1       3.802  -5.034  -2.786  0.00  0.00    +0.008 A 
BRANCH  16  19
ATOM     19  O   UNL     1       7.384  -4.829  -2.183  0.00  0.00    -0.489 OA
BRANCH  19  20
ATOM     20  C   UNL     1       8.391  -3.822  -2.296  0.00  0.00    +0.173 C 
ATOM     21  C   UNL     1       9.012  -3.851  -3.708  0.00  0.00    +0.044 C 
ATOM     22  C   UNL     1      10.511  -3.543  -3.470  0.00  0.00    +0.004 C 
ATOM     23  C   UNL     1      10.811  -4.300  -2.153  0.00  0.00    +0.004 C 
ATOM     24  C   UNL     1       9.535  -4.107  -1.307  0.00  0.00    +0.044 C 
ENDBRANCH  19  20
ENDBRANCH  16  19
ENDBRANCH   8  13
BRANCH  10  25
ATOM     25  O   UNL     1       3.360  -1.526  -6.732  0.00  0.00    -0.495 OA
ATOM     26  H   UNL     1       3.671  -0.617  -6.843  0.00  0.00    +0.293 HD
ENDBRANCH  10  25
TORSDOF 4
