REMARK  Name = ZINC00691468
REMARK  9 active torsions:
REMARK  status: ('A' for Active; 'I' for Inactive)
REMARK    1  A    between atoms: C_1  and  N_2
REMARK    2  A    between atoms: N_2  and  C_3
REMARK    3  A    between atoms: N_2  and  N_4
REMARK    4  A    between atoms: C_7  and  C_14
REMARK    5  A    between atoms: C_9  and  C_12
REMARK    6  A    between atoms: C_10  and  N_11
REMARK    7  A    between atoms: C_18  and  O_20
REMARK    8  A    between atoms: O_20  and  C_21
REMARK    9  A    between atoms: C_25  and  C_28
REMARK                            x       y       z     vdW  Elec       q    Type
REMARK                         _______ _______ _______ _____ _____    ______ ____
ROOT
ATOM      1  N   UNL     1       1.497   3.039  -0.065  0.00  0.00    -0.223 N 
ATOM      2  C   UNL     1       2.046   1.806  -0.289  0.00  0.00    +0.037 C 
ATOM      3  C   UNL     1       1.263   0.710  -0.376  0.00  0.00    +0.026 C 
ATOM      4  C   UNL     1      -0.234   0.815  -0.236  0.00  0.00    +0.097 C 
ATOM      5  C   UNL     1      -0.627   2.109   0.415  0.00  0.00    +0.078 C 
ATOM      6  C   UNL     1       0.236   3.156   0.470  0.00  0.00    +0.117 C 
ATOM      7  C   UNL     1       1.819  -0.561  -0.605  0.00  0.00    +0.162 C 
ATOM      8  O   UNL     1       1.088  -1.531  -0.657  0.00  0.00    -0.292 OA
ATOM      9  C   UNL     1       3.301  -0.744  -0.784  0.00  0.00    +0.088 C 
ATOM     10  C   UNL     1       3.894   0.543  -1.367  0.00  0.00    +0.032 C 
ATOM     11  C   UNL     1       3.545   1.704  -0.433  0.00  0.00    +0.061 C 
ENDROOT
BRANCH   4  12
ATOM     12  C   UNL     1      -0.865   0.734  -1.602  0.00  0.00    -0.031 A 
ATOM     13  C   UNL     1      -0.552   1.677  -2.564  0.00  0.00    +0.005 A 
ATOM     14  C   UNL     1      -1.125   1.602  -3.820  0.00  0.00    +0.004 A 
ATOM     15  C   UNL     1      -2.021   0.592  -4.114  0.00  0.00    +0.045 A 
ATOM     16  C   UNL     1      -2.341  -0.352  -3.148  0.00  0.00    +0.120 A 
ATOM     17  C   UNL     1      -1.760  -0.278  -1.890  0.00  0.00    +0.050 A 
BRANCH  16  18
ATOM     18  O   UNL     1      -3.221  -1.346  -3.434  0.00  0.00    -0.495 OA
ATOM     19  C   UNL     1      -3.780  -1.360  -4.750  0.00  0.00    +0.277 C 
ENDBRANCH  16  18
ENDBRANCH   4  12
BRANCH  10  20
ATOM     20  C   UNL     1       5.392   0.410  -1.471  0.00  0.00    -0.044 A 
ATOM     21  C   UNL     1       6.146   0.188  -0.334  0.00  0.00    +0.004 A 
ATOM     22  C   UNL     1       7.519   0.060  -0.429  0.00  0.00    +0.000 A 
ATOM     23  C   UNL     1       8.139   0.165  -1.661  0.00  0.00    +0.000 A 
ATOM     24  C   UNL     1       7.385   0.392  -2.797  0.00  0.00    +0.000 A 
ATOM     25  C   UNL     1       6.011   0.514  -2.702  0.00  0.00    +0.004 A 
ENDBRANCH  10  20
BRANCH   1  27
ATOM     26  C   UNL     1       3.375   4.308   0.506  0.00  0.00    +0.128 C 
ATOM     27  N   UNL     1       2.208   4.164  -0.375  0.00  0.00    -0.227 NA
ATOM     28  C   UNL     1       2.612   4.159  -1.787  0.00  0.00    +0.128 C 
ENDBRANCH   1  27
BRANCH   6  29
ATOM     29  N   UNL     1      -0.151   4.334   1.061  0.00  0.00    -0.344 N 
ATOM     30  H   UNL     1       0.433   5.108   1.030  0.00  0.00    +0.144 HD
ATOM     31  H   UNL     1      -1.009   4.392   1.510  0.00  0.00    +0.144 HD
ENDBRANCH   6  29
BRANCH   5  32
ATOM     32  C   UNL     1      -1.934   2.243   0.984  0.00  0.00    +0.099 C 
ATOM     33  N   UNL     1      -2.971   2.349   1.436  0.00  0.00    -0.191 NA
ENDBRANCH   5  32
TORSDOF 6
