REMARK  Name = ZINC22936203
REMARK  12 active torsions:
REMARK  status: ('A' for Active; 'I' for Inactive)
REMARK    1  A    between atoms: C_1  and  C_2
REMARK    2  A    between atoms: C_2  and  N_3
REMARK    3  A    between atoms: C_7  and  C_9
REMARK    4  A    between atoms: C_9  and  N_10
REMARK    5  A    between atoms: N_10  and  C_11
REMARK    6  A    between atoms: C_11  and  C_12
REMARK    7  A    between atoms: C_14  and  O_29
REMARK    8  A    between atoms: C_15  and  O_19
REMARK    9  A    between atoms: O_19  and  C_20
REMARK   10  A    between atoms: C_20  and  C_21
REMARK   11  A    between atoms: O_29  and  C_30
REMARK   12  A    between atoms: C_30  and  C_31
REMARK                            x       y       z     vdW  Elec       q    Type
REMARK                         _______ _______ _______ _____ _____    ______ ____
ROOT
ATOM      1  C   UNL     1      -1.775  -1.459   4.958  0.00  0.00    -0.060 A 
ATOM      2  C   UNL     1      -0.746  -2.044   5.674  0.00  0.00    +0.051 A 
ATOM      3  C   UNL     1      -0.227  -1.406   6.788  0.00  0.00    +0.163 A 
ATOM      4  C   UNL     1      -0.743  -0.176   7.186  0.00  0.00    +0.176 A 
ATOM      5  C   UNL     1      -1.774   0.405   6.465  0.00  0.00    +0.063 A 
ATOM      6  C   UNL     1      -2.284  -0.235   5.349  0.00  0.00    +0.021 A 
ATOM      7 BR   UNL     1      -2.479   2.076   7.001  0.00  0.00    -0.046 Br
ENDROOT
BRANCH   1   8
ATOM      8  C   UNL     1      -2.338  -2.155   3.746  0.00  0.00    -0.047 C 
BRANCH   8   9
ATOM      9  N   UNL     1      -1.591  -1.738   2.551  0.00  0.00    +0.381 N 
ATOM     10  H   UNL     1      -0.619  -1.985   2.660  0.00  0.00    -0.086 HD
ATOM     11  H   UNL     1      -1.673  -0.739   2.434  0.00  0.00    -0.086 HD
BRANCH   9  12
ATOM     12  C   UNL     1      -2.139  -2.417   1.369  0.00  0.00    -0.098 C 
BRANCH  12  17
ATOM     13  N   UNL     1      -1.376  -0.512   0.012  0.00  0.00    +0.380 N 
ATOM     14  C   UNL     1      -2.052  -0.144  -1.250  0.00  0.00    -0.079 C 
ATOM     15  C   UNL     1      -1.892  -1.386  -2.162  0.00  0.00    -0.020 C 
ATOM     16  C   UNL     1      -2.041  -2.545  -1.141  0.00  0.00    -0.019 C 
ATOM     17  C   UNL     1      -1.362  -1.983   0.125  0.00  0.00    -0.086 C 
ATOM     18  H   UNL     1      -1.879  -0.117   0.793  0.00  0.00    -0.082 HD
BRANCH  13  20
ATOM     19  C   UNL     1      -0.019   1.526   0.010  0.00  0.00    -0.017 C 
ATOM     20  C   UNL     1       0.002  -0.004   0.002  0.00  0.00    -0.082 C 
ENDBRANCH  13  20
ENDBRANCH  12  17
ENDBRANCH   9  12
ENDBRANCH   8   9
ENDBRANCH   1   8
BRANCH   4  21
ATOM     21  O   UNL     1      -0.237   0.454   8.280  0.00  0.00    -0.483 OA
BRANCH  21  22
ATOM     22  C   UNL     1       0.855   1.350   8.066  0.00  0.00    +0.266 C 
BRANCH  22  23
ATOM     23  C   UNL     1       1.279   1.950   9.382  0.00  0.00    +0.008 A 
ATOM     24  C   UNL     1       0.625   1.593  10.546  0.00  0.00    +0.010 A 
ATOM     25  C   UNL     1       1.013   2.142  11.753  0.00  0.00    +0.020 A 
ATOM     26  C   UNL     1       2.057   3.050  11.797  0.00  0.00    +0.042 A 
ATOM     27  C   UNL     1       2.712   3.407  10.633  0.00  0.00    +0.040 A 
ATOM     28  C   UNL     1       2.326   2.853   9.425  0.00  0.00    +0.049 A 
ATOM     29 CL   UNL     1       3.151   3.296   7.963  0.00  0.00    -0.083 Cl
ATOM     30 CL   UNL     1       2.543   3.740  13.314  0.00  0.00    -0.083 Cl
ENDBRANCH  22  23
ENDBRANCH  21  22
ENDBRANCH   4  21
BRANCH   3  31
ATOM     31  O   UNL     1       0.784  -1.980   7.493  0.00  0.00    -0.489 OA
BRANCH  31  32
ATOM     32  C   UNL     1       1.264  -3.243   7.028  0.00  0.00    +0.226 C 
ATOM     33  C   UNL     1       2.392  -3.728   7.940  0.00  0.00    +0.048 C 
ENDBRANCH  31  32
ENDBRANCH   3  31
TORSDOF 10
