REMARK  Name = ZINC39631342
REMARK  11 active torsions:
REMARK  status: ('A' for Active; 'I' for Inactive)
REMARK    1  A    between atoms: C_1  and  C_2
REMARK    2  A    between atoms: C_2  and  C_4
REMARK    3  A    between atoms: C_2  and  N_11
REMARK    4  A    between atoms: C_4  and  C_5
REMARK    5  A    between atoms: C_5  and  C_6
REMARK    6  A    between atoms: C_6  and  C_7
REMARK    7  A    between atoms: C_7  and  C_8
REMARK    8  A    between atoms: C_7  and  C_9
REMARK    9  A    between atoms: C_7  and  O_10
REMARK   10  A    between atoms: C_12  and  C_14
REMARK   11  A    between atoms: C_25  and  C_27
REMARK                            x       y       z     vdW  Elec       q    Type
REMARK                         _______ _______ _______ _____ _____    ______ ____
ROOT
ATOM      1  C   UNL     1      38.389  19.625  -0.461  0.00  0.00    +0.100 C 
ATOM      2  C   UNL     1      38.784  20.308  -1.789  0.00  0.00    +0.121 C 
ATOM      3  N   UNL     1      39.598  21.477  -1.381  0.00  0.00    -0.296 N 
ATOM      4  C   UNL     1      40.419  20.980  -0.251  0.00  0.00    +0.115 C 
ATOM      5  C   UNL     1      39.466  20.065   0.545  0.00  0.00    -0.004 C 
ATOM      6  C   UNL     1      38.830  20.841   1.694  0.00  0.00    -0.010 C 
ATOM      7  C   UNL     1      39.912  21.219   2.710  0.00  0.00    -0.082 C 
ATOM      8  N   UNL     1      40.559  20.001   3.213  0.00  0.00    +0.379 N 
ATOM      9  C   UNL     1      41.247  19.309   2.117  0.00  0.00    -0.082 C 
ATOM     10  C   UNL     1      40.221  18.851   1.077  0.00  0.00    -0.010 C 
ATOM     11  C   UNL     1      39.594  22.714  -1.917  0.00  0.00    +0.247 C 
ATOM     12  O   UNL     1      40.373  23.555  -1.511  0.00  0.00    -0.270 OA
ATOM     13  H   UNL     1      41.229  20.248   3.926  0.00  0.00    -0.086 HD
ATOM     14  H   UNL     1      39.861  19.390   3.610  0.00  0.00    -0.086 HD
ENDROOT
BRANCH  11  15
ATOM     15  C   UNL     1      38.643  23.049  -2.998  0.00  0.00    +0.038 A 
ATOM     16  C   UNL     1      37.285  23.201  -2.714  0.00  0.00    +0.013 A 
ATOM     17  C   UNL     1      36.402  23.513  -3.727  0.00  0.00    +0.002 A 
ATOM     18  C   UNL     1      36.859  23.674  -5.023  0.00  0.00    +0.015 A 
ATOM     19  C   UNL     1      38.205  23.524  -5.312  0.00  0.00    +0.019 A 
ATOM     20  C   UNL     1      39.100  23.219  -4.306  0.00  0.00    +0.028 A 
ATOM     21 BR   UNL     1      38.820  23.746  -7.086  0.00  0.00    -0.050 Br
ENDBRANCH  11  15
BRANCH   1  23
ATOM     22  N   UNL     1      36.285  19.323   0.803  0.00  0.00    -0.312 N 
ATOM     23  C   UNL     1      37.029  20.095  -0.013  0.00  0.00    +0.218 C 
ATOM     24  O   UNL     1      36.605  21.168  -0.388  0.00  0.00    -0.275 OA
ATOM     25  H   UNL     1      36.650  18.496   1.155  0.00  0.00    +0.149 HD
BRANCH  22  27
ATOM     26  C   UNL     1      34.975  20.682   2.359  0.00  0.00    +0.028 C 
ATOM     27  C   UNL     1      34.924  19.734   1.159  0.00  0.00    +0.070 C 
BRANCH  27  28
ATOM     28  C   UNL     1      34.097  18.498   1.521  0.00  0.00    +0.022 C 
BRANCH  28  29
ATOM     29  C   UNL     1      34.906  17.236   1.216  0.00  0.00    +0.005 C 
BRANCH  29  30
ATOM     30  C   UNL     1      34.028  16.002   1.436  0.00  0.00    +0.034 C 
BRANCH  30  31
ATOM     31  C   UNL     1      34.830  14.741   1.108  0.00  0.00    +0.061 C 
ATOM     32  C   UNL     1      36.068  14.676   2.004  0.00  0.00    +0.041 C 
ATOM     33  C   UNL     1      33.960  13.506   1.351  0.00  0.00    +0.041 C 
BRANCH  31  34
ATOM     34  O   UNL     1      35.235  14.777  -0.262  0.00  0.00    -0.389 OA
ATOM     35  H   UNL     1      35.853  15.490  -0.471  0.00  0.00    +0.210 HD
ENDBRANCH  31  34
ENDBRANCH  30  31
ENDBRANCH  29  30
ENDBRANCH  28  29
ENDBRANCH  27  28
ENDBRANCH  22  27
ENDBRANCH   1  23
TORSDOF 8
