REMARK  Name = ZINC12602998
REMARK  9 active torsions:
REMARK  status: ('A' for Active; 'I' for Inactive)
REMARK    1  A    between atoms: C_1  and  C_2
REMARK    2  A    between atoms: N_4  and  C_5
REMARK    3  A    between atoms: C_5  and  C_6
REMARK    4  A    between atoms: C_6  and  N_7
REMARK    5  A    between atoms: N_7  and  C_8
REMARK    6  A    between atoms: C_11  and  C_34
REMARK    7  A    between atoms: C_14  and  C_30
REMARK    8  A    between atoms: C_30  and  O_32
REMARK    9  A    between atoms: O_32  and  C_33
REMARK                            x       y       z     vdW  Elec       q    Type
REMARK                         _______ _______ _______ _____ _____    ______ ____
ROOT
ATOM      1  C   UNL     1       3.451  -1.832  -1.212  0.00  0.00    -0.068 C 
ATOM      2  C   UNL     1       3.526  -0.312  -1.045  0.00  0.00    +0.008 C 
ATOM      3  C   UNL     1       2.119   0.283  -1.155  0.00  0.00    +0.087 C 
ATOM      4  N   UNL     1       1.261  -0.305  -0.120  0.00  0.00    -0.274 NA
ATOM      5  C   UNL     1      -0.048   0.355  -0.058  0.00  0.00    +0.172 C 
ATOM      6  C   UNL     1      -0.741  -0.008   1.262  0.00  0.00    +0.068 C 
ATOM      7  C   UNL     1      -0.654  -1.502   1.445  0.00  0.00    -0.016 A 
ATOM      8  C   UNL     1      -1.394  -2.359   2.345  0.00  0.00    +0.003 A 
ATOM      9  C   UNL     1      -2.386  -2.107   3.297  0.00  0.00    +0.010 A 
ATOM     10  C   UNL     1      -2.875  -3.189   3.986  0.00  0.00    +0.001 A 
ATOM     11  C   UNL     1      -2.415  -4.476   3.759  0.00  0.00    +0.002 A 
ATOM     12  C   UNL     1      -1.435  -4.755   2.822  0.00  0.00    +0.026 A 
ATOM     13  C   UNL     1      -0.920  -3.676   2.107  0.00  0.00    +0.047 A 
ATOM     14  N   UNL     1       0.033  -3.596   1.131  0.00  0.00    -0.356 N 
ATOM     15  H   UNL     1       0.541  -4.507   0.783  0.00  0.00    +0.166 HD
ATOM     16  C   UNL     1       0.186  -2.294   0.740  0.00  0.00    +0.038 A 
ATOM     17  C   UNL     1       1.129  -1.757  -0.308  0.00  0.00    +0.103 C 
ATOM     18  C   UNL     1       2.503  -2.413  -0.158  0.00  0.00    +0.009 C 
ENDROOT
BRANCH   3  19
ATOM     19  C   UNL     1       1.548  -0.023  -2.516  0.00  0.00    -0.029 A 
ATOM     20  C   UNL     1       0.249   0.342  -2.818  0.00  0.00    +0.005 A 
ATOM     21  C   UNL     1      -0.274   0.066  -4.068  0.00  0.00    +0.002 A 
ATOM     22  C   UNL     1       0.498  -0.584  -5.012  0.00  0.00    +0.020 A 
ATOM     23  C   UNL     1       1.796  -0.954  -4.708  0.00  0.00    +0.041 A 
ATOM     24  C   UNL     1       2.321  -0.673  -3.459  0.00  0.00    +0.025 A 
ATOM     25 CL   UNL     1       2.766  -1.771  -5.894  0.00  0.00    -0.084 Cl
ENDBRANCH   3  19
BRANCH   1  26
ATOM     26  N   UNL     1       4.790  -2.410  -1.038  0.00  0.00    +0.382 N 
ATOM     27  H   UNL     1       4.684  -3.453  -0.706  0.00  0.00    -0.085 HD
ATOM     28  H   UNL     1       5.326  -1.833  -0.269  0.00  0.00    -0.085 HD
BRANCH  26  29
ATOM     29  C   UNL     1       5.548  -2.372  -2.296  0.00  0.00    -0.063 C 
BRANCH  29  30
ATOM     30  C   UNL     1       6.934  -2.981  -2.075  0.00  0.00    +0.085 C 
BRANCH  30  34
ATOM     31  C   UNL     1       9.723  -3.391  -4.666  0.00  0.00    +0.109 C 
ATOM     32  C   UNL     1       8.945  -3.430  -3.375  0.00  0.00    +0.210 C 
ATOM     33  O   UNL     1       9.450  -3.899  -2.377  0.00  0.00    -0.276 OA
ATOM     34  N   UNL     1       7.689  -2.943  -3.330  0.00  0.00    -0.317 N 
ATOM     35  H   UNL     1       7.231  -2.518  -4.235  0.00  0.00    +0.149 HD
ENDBRANCH  30  34
ENDBRANCH  29  30
ENDBRANCH  26  29
ENDBRANCH   1  26
BRANCH   5  36
ATOM     36  C   UNL     1       0.139   1.849  -0.134  0.00  0.00    +0.325 C 
ATOM     37  O   UNL     1      -0.664   2.528  -0.727  0.00  0.00    -0.249 OA
BRANCH  36  38
ATOM     38  O   UNL     1       1.194   2.424   0.464  0.00  0.00    -0.467 OA
ATOM     39  C   UNL     1       1.310   3.867   0.350  0.00  0.00    +0.280 C 
ENDBRANCH  36  38
ENDBRANCH   5  36
TORSDOF 7
