REMARK  Name = ZINC67101977
REMARK  10 active torsions:
REMARK  status: ('A' for Active; 'I' for Inactive)
REMARK    1  A    between atoms: C_1  and  C_2
REMARK    2  A    between atoms: C_6  and  C_7
REMARK    3  A    between atoms: N_9  and  N_10
REMARK    4  A    between atoms: N_13  and  C_14
REMARK    5  A    between atoms: C_14  and  C_15
REMARK    6  A    between atoms: C_15  and  C_17
REMARK    7  A    between atoms: C_15  and  N_20
REMARK    8  A    between atoms: C_17  and  C_18
REMARK    9  A    between atoms: C_17  and  C_19
REMARK   10  A    between atoms: N_20  and  C_21
REMARK                            x       y       z     vdW  Elec       q    Type
REMARK                         _______ _______ _______ _____ _____    ______ ____
ROOT
ATOM      1  N   UNL     1       2.336  -1.126   5.201  0.00  0.00    -0.218 N 
ATOM      2  C   UNL     1       1.908  -1.984   6.148  0.00  0.00    +0.316 C 
ATOM      3  O   UNL     1       2.073  -1.724   7.324  0.00  0.00    -0.251 OA
ATOM      4  N   UNL     1       1.296  -3.131   5.790  0.00  0.00    -0.296 N 
ATOM      5  H   UNL     1       2.777  -0.301   5.458  0.00  0.00    +0.174 HD
ATOM      6  H   UNL     1       1.164  -3.338   4.852  0.00  0.00    +0.150 HD
ENDROOT
BRANCH   1   9
ATOM      7  C   UNL     1       2.575  -0.568   2.899  0.00  0.00    +0.267 C 
ATOM      8  O   UNL     1       3.127   0.468   3.221  0.00  0.00    -0.268 OA
ATOM      9  N   UNL     1       2.146  -1.426   3.846  0.00  0.00    -0.229 N 
ATOM     10  H   UNL     1       1.706  -2.251   3.589  0.00  0.00    +0.173 HD
BRANCH   7  16
ATOM     11  C   UNL     1       3.439   1.185   0.473  0.00  0.00    +0.045 C 
ATOM     12  C   UNL     1       2.737  -0.144   0.364  0.00  0.00    -0.031 A 
ATOM     13  C   UNL     1       2.419  -0.705  -0.850  0.00  0.00    +0.011 A 
ATOM     14  C   UNL     1       1.788  -1.905  -0.876  0.00  0.00    +0.046 A 
ATOM     15  S   UNL     1       1.605  -2.309   0.744  0.00  0.00    -0.092 S 
ATOM     16  C   UNL     1       2.376  -0.881   1.481  0.00  0.00    +0.078 A 
ENDBRANCH   7  16
ENDBRANCH   1   9
BRANCH   4  17
ATOM     17  C   UNL     1       0.830  -4.064   6.819  0.00  0.00    +0.128 C 
BRANCH  17  18
ATOM     18  C   UNL     1       0.176  -5.275   6.151  0.00  0.00    +0.090 C 
BRANCH  18  19
ATOM     19  C   UNL     1      -0.198  -6.306   7.218  0.00  0.00    +0.005 C 
ATOM     20  C   UNL     1      -1.283  -5.727   8.128  0.00  0.00    +0.009 C 
ATOM     21  C   UNL     1      -0.724  -7.573   6.541  0.00  0.00    +0.009 C 
ENDBRANCH  18  19
BRANCH  18  22
ATOM     22  N   UNL     1       1.116  -5.875   5.201  0.00  0.00    -0.339 N 
ATOM     23  H   UNL     1       2.032  -6.049   5.470  0.00  0.00    +0.146 HD
BRANCH  22  24
ATOM     24  C   UNL     1       0.694  -6.198   3.910  0.00  0.00    +0.027 A 
ATOM     25  C   UNL     1      -0.656  -6.149   3.587  0.00  0.00    +0.023 A 
ATOM     26  C   UNL     1      -1.071  -6.468   2.308  0.00  0.00    +0.002 A 
ATOM     27  C   UNL     1      -0.143  -6.837   1.351  0.00  0.00    +0.000 A 
ATOM     28  C   UNL     1       1.202  -6.886   1.669  0.00  0.00    +0.002 A 
ATOM     29  C   UNL     1       1.623  -6.563   2.944  0.00  0.00    +0.023 A 
ENDBRANCH  22  24
ENDBRANCH  18  22
ENDBRANCH  17  18
ENDBRANCH   4  17
TORSDOF 7
