REMARK  Name = ZINC61844383
REMARK  2 active torsions:
REMARK  status: ('A' for Active; 'I' for Inactive)
REMARK    1  A    between atoms: C_5  and  C_6
REMARK    2  A    between atoms: C_9  and  C_11
REMARK                            x       y       z     vdW  Elec       q    Type
REMARK                         _______ _______ _______ _____ _____    ______ ____
ROOT
ATOM      1  C   UNL     1      -1.134  -0.951   0.008  0.00  0.00    +0.086 A 
ATOM      2  C   UNL     1      -0.907  -2.305   0.004  0.00  0.00    +0.076 A 
ATOM      3  S   UNL     1      -2.586  -2.922   0.013  0.00  0.00    -0.072 S 
ATOM      4  C   UNL     1      -3.407  -1.334   0.022  0.00  0.00    +0.148 A 
ATOM      5  N   UNL     1      -2.376  -0.503   0.022  0.00  0.00    -0.235 NA
ENDROOT
BRANCH   1  10
ATOM      6  C   UNL     1      -0.017   1.364   0.009  0.00  0.00    +0.019 A 
ATOM      7  C   UNL     1       1.184   2.043   0.002  0.00  0.00    +0.023 A 
ATOM      8  C   UNL     1       2.343   1.337  -0.013  0.00  0.00    +0.056 A 
ATOM      9  S   UNL     1       1.754  -0.348  -0.017  0.00  0.00    -0.080 S 
ATOM     10  C   UNL     1       0.002  -0.004   0.002  0.00  0.00    +0.039 A 
ATOM     11 BR   UNL     1       4.123   1.974  -0.027  0.00  0.00    -0.043 Br
ENDBRANCH   1  10
BRANCH   4  12
ATOM     12  C   UNL     1      -4.854  -1.029   0.032  0.00  0.00    +0.206 A 
ATOM     13  N   UNL     1      -5.844  -1.933   0.036  0.00  0.00    -0.213 NA
ATOM     14  H   UNL     1      -7.449   0.703   0.051  0.00  0.00    +0.190 HD
ATOM     15  C   UNL     1      -6.999  -1.324   0.045  0.00  0.00    +0.216 A 
ATOM     16  N   UNL     1      -6.778   0.003   0.046  0.00  0.00    -0.265 N 
ATOM     17  N   UNL     1      -5.384   0.176   0.043  0.00  0.00    -0.150 NA
ENDBRANCH   4  12
TORSDOF 2
