REMARK  Name = ZINC39673302
REMARK  6 active torsions:
REMARK  status: ('A' for Active; 'I' for Inactive)
REMARK    1  A    between atoms: C_3  and  O_31
REMARK    2  A    between atoms: C_6  and  C_7
REMARK    3  A    between atoms: C_7  and  N_8
REMARK    4  A    between atoms: C_9  and  C_11
REMARK    5  A    between atoms: C_22  and  C_24
REMARK    6  A    between atoms: O_31  and  C_32
REMARK                            x       y       z     vdW  Elec       q    Type
REMARK                         _______ _______ _______ _____ _____    ______ ____
ROOT
ATOM      1  C   UNL     1      -3.626  -1.441  -2.644  0.00  0.00    +0.100 C 
ATOM      2  C   UNL     1      -3.874  -0.264  -3.614  0.00  0.00    +0.121 C 
ATOM      3  N   UNL     1      -5.006  -0.709  -4.460  0.00  0.00    -0.296 N 
ATOM      4  C   UNL     1      -5.911  -1.418  -3.523  0.00  0.00    +0.115 C 
ATOM      5  C   UNL     1      -4.965  -2.195  -2.587  0.00  0.00    -0.004 C 
ATOM      6  C   UNL     1      -4.787  -3.626  -3.086  0.00  0.00    -0.010 C 
ATOM      7  C   UNL     1      -6.118  -4.372  -2.967  0.00  0.00    -0.082 C 
ATOM      8  N   UNL     1      -6.557  -4.373  -1.566  0.00  0.00    +0.379 N 
ATOM      9  C   UNL     1      -6.815  -2.998  -1.122  0.00  0.00    -0.082 C 
ATOM     10  C   UNL     1      -5.513  -2.193  -1.163  0.00  0.00    -0.010 C 
ATOM     11  C   UNL     1      -5.176  -0.513  -5.783  0.00  0.00    +0.247 C 
ATOM     12  O   UNL     1      -4.282  -0.022  -6.444  0.00  0.00    -0.270 OA
ATOM     13  H   UNL     1      -7.403  -4.917  -1.480  0.00  0.00    -0.086 HD
ATOM     14  H   UNL     1      -5.837  -4.782  -0.990  0.00  0.00    -0.086 HD
ENDROOT
BRANCH  11  15
ATOM     15  C   UNL     1      -6.449  -0.896  -6.429  0.00  0.00    +0.037 A 
ATOM     16  C   UNL     1      -7.606  -1.046  -5.664  0.00  0.00    +0.014 A 
ATOM     17  C   UNL     1      -8.791  -1.403  -6.273  0.00  0.00    +0.016 A 
ATOM     18  C   UNL     1      -8.834  -1.613  -7.641  0.00  0.00    +0.018 A 
ATOM     19  C   UNL     1      -7.689  -1.465  -8.406  0.00  0.00    +0.016 A 
ATOM     20  C   UNL     1      -6.499  -1.103  -7.809  0.00  0.00    +0.014 A 
ATOM     21 BR   UNL     1     -10.462  -2.103  -8.468  0.00  0.00    -0.050 Br
ENDBRANCH  11  15
BRANCH   1  23
ATOM     22  N   UNL     1      -2.444  -1.650  -0.481  0.00  0.00    -0.311 N 
ATOM     23  C   UNL     1      -3.255  -0.926  -1.278  0.00  0.00    +0.218 C 
ATOM     24  O   UNL     1      -3.687   0.141  -0.894  0.00  0.00    -0.275 OA
ATOM     25  H   UNL     1      -2.099  -2.503  -0.788  0.00  0.00    +0.149 HD
BRANCH  22  26
ATOM     26  C   UNL     1      -2.084  -1.149   0.848  0.00  0.00    +0.139 C 
BRANCH  26  32
ATOM     27  C   UNL     1       0.195  -2.039   1.373  0.00  0.00    +0.009 A 
ATOM     28  C   UNL     1       1.030  -2.946   1.996  0.00  0.00    +0.046 A 
ATOM     29  C   UNL     1       0.493  -3.958   2.779  0.00  0.00    +0.127 A 
ATOM     30  C   UNL     1      -0.882  -4.056   2.934  0.00  0.00    +0.046 A 
ATOM     31  C   UNL     1      -1.713  -3.147   2.308  0.00  0.00    +0.009 A 
ATOM     32  C   UNL     1      -1.175  -2.140   1.529  0.00  0.00    -0.030 A 
BRANCH  29  33
ATOM     33  O   UNL     1       1.313  -4.851   3.393  0.00  0.00    -0.434 OA
BRANCH  33  34
ATOM     34  C   UNL     1       0.690  -5.866   4.184  0.00  0.00    +0.541 C 
ATOM     35  F   UNL     1      -0.051  -5.269   5.209  0.00  0.00    -0.166 F 
ATOM     36  F   UNL     1      -0.160  -6.629   3.377  0.00  0.00    -0.166 F 
ENDBRANCH  33  34
ENDBRANCH  29  33
ENDBRANCH  26  32
ENDBRANCH  22  26
ENDBRANCH   1  23
TORSDOF 6
