REMARK  Name = ZINC39686185
REMARK  8 active torsions:
REMARK  status: ('A' for Active; 'I' for Inactive)
REMARK    1  A    between atoms: C_1  and  C_2
REMARK    2  A    between atoms: C_2  and  C_3
REMARK    3  A    between atoms: C_2  and  C_4
REMARK    4  A    between atoms: C_4  and  C_5
REMARK    5  A    between atoms: C_10  and  N_13
REMARK    6  A    between atoms: C_14  and  C_16
REMARK    7  A    between atoms: C_27  and  C_29
REMARK    8  A    between atoms: C_34  and  C_35
REMARK                            x       y       z     vdW  Elec       q    Type
REMARK                         _______ _______ _______ _____ _____    ______ ____
ROOT
ATOM      1  C   UNL     1       0.533  -3.708   9.013  0.00  0.00    +0.100 C 
ATOM      2  C   UNL     1       1.446  -4.912   8.691  0.00  0.00    +0.121 C 
ATOM      3  N   UNL     1       2.438  -4.935   9.792  0.00  0.00    -0.296 N 
ATOM      4  C   UNL     1       1.653  -4.594  11.002  0.00  0.00    +0.115 C 
ATOM      5  C   UNL     1       0.669  -3.505  10.532  0.00  0.00    -0.004 C 
ATOM      6  C   UNL     1      -0.685  -3.687  11.212  0.00  0.00    -0.010 C 
ATOM      7  C   UNL     1      -0.536  -3.422  12.713  0.00  0.00    -0.082 C 
ATOM      8  N   UNL     1      -0.039  -2.058  12.925  0.00  0.00    +0.379 N 
ATOM      9  C   UNL     1       1.304  -1.919  12.347  0.00  0.00    -0.082 C 
ATOM     10  C   UNL     1       1.233  -2.119  10.831  0.00  0.00    -0.010 C 
ATOM     11  C   UNL     1       3.756  -5.205   9.711  0.00  0.00    +0.247 C 
ATOM     12  O   UNL     1       4.424  -5.283  10.723  0.00  0.00    -0.270 OA
ATOM     13  H   UNL     1      -0.663  -1.401  12.481  0.00  0.00    -0.086 HD
ATOM     14  H   UNL     1       0.001  -1.865  13.914  0.00  0.00    -0.086 HD
ENDROOT
BRANCH  11  15
ATOM     15  C   UNL     1       4.390  -5.406   8.390  0.00  0.00    +0.049 A 
ATOM     16  C   UNL     1       3.696  -6.063   7.372  0.00  0.00    +0.013 A 
ATOM     17  C   UNL     1       4.292  -6.247   6.142  0.00  0.00    +0.001 A 
ATOM     18  C   UNL     1       5.576  -5.782   5.916  0.00  0.00    +0.001 A 
ATOM     19  C   UNL     1       6.270  -5.131   6.921  0.00  0.00    +0.013 A 
ATOM     20  C   UNL     1       5.682  -4.936   8.154  0.00  0.00    +0.067 A 
BRANCH  20  21
ATOM     21  C   UNL     1       6.437  -4.221   9.245  0.00  0.00    +0.418 C 
ATOM     22  F   UNL     1       7.699  -3.848   8.772  0.00  0.00    -0.166 F 
ATOM     23  F   UNL     1       5.727  -3.078   9.631  0.00  0.00    -0.166 F 
ATOM     24  F   UNL     1       6.584  -5.072  10.345  0.00  0.00    -0.166 F 
ENDBRANCH  20  21
ENDBRANCH  11  15
BRANCH   1  26
ATOM     25  N   UNL     1       0.130  -1.498   7.978  0.00  0.00    -0.312 N 
ATOM     26  C   UNL     1       1.003  -2.481   8.276  0.00  0.00    +0.218 C 
ATOM     27  O   UNL     1       2.166  -2.377   7.950  0.00  0.00    -0.275 OA
ATOM     28  H   UNL     1      -0.801  -1.581   8.239  0.00  0.00    +0.149 HD
BRANCH  25  34
ATOM     29  C   UNL     1       0.206   3.755   6.762  0.00  0.00    +0.216 C 
ATOM     30  O   UNL     1       0.778   4.497   7.531  0.00  0.00    -0.276 OA
ATOM     31  N   UNL     1       0.575   2.461   6.672  0.00  0.00    -0.301 N 
ATOM     32  C   UNL     1      -0.105   1.552   5.740  0.00  0.00    +0.109 C 
ATOM     33  C   UNL     1      -0.593   0.325   6.516  0.00  0.00    +0.041 C 
ATOM     34  C   UNL     1       0.586  -0.305   7.261  0.00  0.00    +0.076 C 
ATOM     35  C   UNL     1       1.157   0.703   8.261  0.00  0.00    +0.041 C 
ATOM     36  C   UNL     1       1.669   1.936   7.500  0.00  0.00    +0.109 C 
BRANCH  29  37
ATOM     37  C   UNL     1      -0.918   4.279   5.905  0.00  0.00    +0.099 C 
BRANCH  37  39
ATOM     38  C   UNL     1       0.104   6.554   5.770  0.00  0.00    +0.008 C 
ATOM     39  C   UNL     1      -1.134   5.764   6.200  0.00  0.00    -0.008 C 
ATOM     40  C   UNL     1      -2.353   6.266   5.424  0.00  0.00    +0.008 C 
ENDBRANCH  37  39
ENDBRANCH  29  37
ENDBRANCH  25  34
ENDBRANCH   1  26
TORSDOF 6
