REMARK  Name = ZINC13403137
REMARK  8 active torsions:
REMARK  status: ('A' for Active; 'I' for Inactive)
REMARK    1  A    between atoms: C_1  and  C_2
REMARK    2  A    between atoms: C_2  and  C_4
REMARK    3  A    between atoms: C_2  and  N_6
REMARK    4  A    between atoms: C_7  and  C_24
REMARK    5  A    between atoms: C_10  and  S_11
REMARK    6  A    between atoms: S_11  and  C_12
REMARK    7  A    between atoms: C_12  and  C_14
REMARK    8  A    between atoms: C_12  and  C_21
REMARK                            x       y       z     vdW  Elec       q    Type
REMARK                         _______ _______ _______ _____ _____    ______ ____
ROOT
ATOM      1  N   UNL     1      -5.791   0.353   2.389  0.00  0.00    -0.288 N 
ATOM      2  C   UNL     1      -6.691  -0.558   1.882  0.00  0.00    +0.172 A 
ATOM      3  N   UNL     1      -6.208  -0.976   0.733  0.00  0.00    -0.128 NA
ATOM      4  N   UNL     1      -5.088  -0.394   0.490  0.00  0.00    -0.122 NA
ATOM      5  C   UNL     1      -4.782   0.425   1.470  0.00  0.00    +0.194 A 
ENDROOT
BRANCH   2   6
ATOM      6  C   UNL     1      -7.953  -0.983   2.508  0.00  0.00    +0.056 A 
ATOM      7  C   UNL     1      -9.013  -1.651   1.949  0.00  0.00    +0.019 A 
ATOM      8  C   UNL     1     -10.099  -1.948   2.742  0.00  0.00    +0.008 A 
ATOM      9  C   UNL     1     -10.093  -1.563   4.044  0.00  0.00    +0.046 A 
ATOM     10  S   UNL     1      -8.508  -0.756   4.190  0.00  0.00    -0.094 S 
ENDBRANCH   2   6
BRANCH   1  12
ATOM     11  C   UNL     1      -4.697   0.750   4.541  0.00  0.00    +0.043 C 
ATOM     12  C   UNL     1      -5.894   1.091   3.651  0.00  0.00    +0.201 C 
BRANCH  12  13
ATOM     13  C   UNL     1      -5.903   2.571   3.368  0.00  0.00    +0.378 C 
ATOM     14  O   UNL     1      -5.040   3.280   3.830  0.00  0.00    -0.244 OA
ATOM     15  O   UNL     1      -6.868   3.103   2.601  0.00  0.00    -0.244 OA
ENDBRANCH  12  13
ENDBRANCH   1  12
BRANCH   5  16
ATOM     16  S   UNL     1      -3.341   1.434   1.576  0.00  0.00    -0.068 S 
BRANCH  16  17
ATOM     17  C   UNL     1      -2.523   0.979   0.027  0.00  0.00    +0.169 C 
BRANCH  17  18
ATOM     18  C   UNL     1      -1.175   1.647  -0.044  0.00  0.00    -0.025 A 
ATOM     19  C   UNL     1      -0.054   0.907  -0.372  0.00  0.00    +0.008 A 
ATOM     20  C   UNL     1       1.183   1.520  -0.443  0.00  0.00    +0.038 A 
ATOM     21  C   UNL     1       1.300   2.874  -0.180  0.00  0.00    +0.123 A 
ATOM     22  C   UNL     1       0.177   3.613   0.154  0.00  0.00    +0.038 A 
ATOM     23  C   UNL     1      -1.058   2.998   0.224  0.00  0.00    +0.008 A 
ATOM     24  F   UNL     1       2.508   3.475  -0.249  0.00  0.00    -0.205 F 
ENDBRANCH  17  18
BRANCH  17  25
ATOM     25  C   UNL     1      -3.368   1.427  -1.138  0.00  0.00    +0.228 C 
ATOM     26  O   UNL     1      -3.922   0.605  -1.837  0.00  0.00    -0.274 OA
ATOM     27  N   UNL     1      -3.508   2.741  -1.403  0.00  0.00    -0.328 N 
ATOM     28  H   UNL     1      -3.002   3.395  -0.895  0.00  0.00    +0.145 HD
ATOM     29  H   UNL     1      -4.114   3.033  -2.101  0.00  0.00    +0.145 HD
ENDBRANCH  17  25
ENDBRANCH  16  17
ENDBRANCH   5  16
TORSDOF 7
