REMARK  Name = ZINC20396390
REMARK  8 active torsions:
REMARK  status: ('A' for Active; 'I' for Inactive)
REMARK    1  A    between atoms: C_1  and  C_2
REMARK    2  A    between atoms: C_5  and  C_8
REMARK    3  A    between atoms: C_8  and  C_9
REMARK    4  A    between atoms: C_12  and  S_15
REMARK    5  A    between atoms: N_13  and  N_14
REMARK    6  A    between atoms: S_15  and  C_16
REMARK    7  A    between atoms: C_16  and  C_17
REMARK    8  A    between atoms: C_20  and  N_23
REMARK                            x       y       z     vdW  Elec       q    Type
REMARK                         _______ _______ _______ _____ _____    ______ ____
ROOT
ATOM      1  C   UNL     1      -1.764   2.351   1.444  0.00  0.00    +0.155 A 
ATOM      2  N   UNL     1      -2.502   1.560   2.169  0.00  0.00    -0.132 NA
ATOM      3  N   UNL     1      -2.675   2.066   3.338  0.00  0.00    -0.121 NA
ATOM      4  C   UNL     1      -2.059   3.222   3.419  0.00  0.00    +0.209 A 
ATOM      5  N   UNL     1      -1.458   3.440   2.213  0.00  0.00    -0.228 N 
ENDROOT
BRANCH   5   6
ATOM      6  N   UNL     1      -0.707   4.522   1.849  0.00  0.00    -0.295 N 
ATOM      7  H   UNL     1      -0.534   5.338   2.566  0.00  0.00    +0.163 HD
ATOM      8  H   UNL     1      -0.276   4.578   0.839  0.00  0.00    +0.163 HD
ENDBRANCH   5   6
BRANCH   1   9
ATOM      9  C   UNL     1      -1.332   2.114   0.020  0.00  0.00    +0.113 C 
BRANCH   9  14
ATOM     10  C   UNL     1       3.711  -0.707  -0.037  0.00  0.00    +0.044 C 
ATOM     11  C   UNL     1       2.396   0.029  -0.021  0.00  0.00    -0.050 A 
ATOM     12  C   UNL     1       1.208  -0.679  -0.013  0.00  0.00    +0.003 A 
ATOM     13  C   UNL     1       0.002  -0.004   0.002  0.00  0.00    +0.004 A 
ATOM     14  C   UNL     1      -0.017   1.378   0.010  0.00  0.00    -0.040 A 
ATOM     15  C   UNL     1       1.171   2.086   0.002  0.00  0.00    +0.004 A 
ATOM     16  C   UNL     1       2.377   1.411  -0.015  0.00  0.00    +0.003 A 
ENDBRANCH   9  14
ENDBRANCH   1   9
BRANCH   4  17
ATOM     17  S   UNL     1      -2.015   4.290   4.820  0.00  0.00    -0.080 S 
BRANCH  17  18
ATOM     18  C   UNL     1      -3.015   3.327   5.981  0.00  0.00    +0.112 C 
BRANCH  18  19
ATOM     19  C   UNL     1      -3.119   4.067   7.289  0.00  0.00    -0.037 A 
ATOM     20  C   UNL     1      -2.182   3.848   8.282  0.00  0.00    +0.006 A 
ATOM     21  C   UNL     1      -2.270   4.529   9.480  0.00  0.00    +0.023 A 
ATOM     22  C   UNL     1      -3.309   5.427   9.692  0.00  0.00    +0.025 A 
ATOM     23  C   UNL     1      -4.252   5.641   8.694  0.00  0.00    +0.023 A 
ATOM     24  C   UNL     1      -4.154   4.960   7.497  0.00  0.00    +0.006 A 
BRANCH  22  25
ATOM     25  N   UNL     1      -3.404   6.114  10.904  0.00  0.00    -0.358 N 
ATOM     26  H   UNL     1      -4.227   6.824  11.070  0.00  0.00    +0.142 HD
ATOM     27  H   UNL     1      -2.657   5.944  11.693  0.00  0.00    +0.142 HD
ENDBRANCH  22  25
ENDBRANCH  18  19
ENDBRANCH  17  18
ENDBRANCH   4  17
TORSDOF 7
