REMARK  Name = ZINC41473475
REMARK  9 active torsions:
REMARK  status: ('A' for Active; 'I' for Inactive)
REMARK    1  A    between atoms: C_1  and  O_2
REMARK    2  A    between atoms: O_2  and  C_3
REMARK    3  A    between atoms: C_3  and  C_5
REMARK    4  A    between atoms: C_5  and  C_6
REMARK    5  A    between atoms: C_8  and  N_16
REMARK    6  A    between atoms: N_16  and  C_17
REMARK    7  A    between atoms: C_17  and  C_18
REMARK    8  A    between atoms: C_18  and  C_20
REMARK    9  A    between atoms: C_18  and  O_27
REMARK                            x       y       z     vdW  Elec       q    Type
REMARK                         _______ _______ _______ _____ _____    ______ ____
ROOT
ATOM      1  C   UNL     1      -2.683  -2.582   0.014  0.00  0.00    +0.029 A 
ATOM      2  C   UNL     1      -3.349  -2.683   1.228  0.00  0.00    +0.045 A 
ATOM      3  C   UNL     1      -4.673  -3.092   1.253  0.00  0.00    +0.038 A 
ATOM      4  C   UNL     1      -5.296  -3.394   0.019  0.00  0.00    +0.019 A 
ATOM      5  C   UNL     1      -6.632  -3.814  -0.040  0.00  0.00    +0.012 A 
ATOM      6  C   UNL     1      -7.197  -4.096  -1.248  0.00  0.00    +0.001 A 
ATOM      7  C   UNL     1      -6.463  -3.971  -2.425  0.00  0.00    +0.002 A 
ATOM      8  C   UNL     1      -5.164  -3.566  -2.402  0.00  0.00    +0.026 A 
ATOM      9  C   UNL     1      -4.548  -3.267  -1.175  0.00  0.00    +0.048 A 
ATOM     10  N   UNL     1      -3.273  -2.861  -1.125  0.00  0.00    -0.357 N 
ATOM     11  H   UNL     1      -2.772  -2.774  -1.951  0.00  0.00    +0.166 HD
ENDROOT
BRANCH   3  12
ATOM     12  N   UNL     1      -5.364  -3.202   2.450  0.00  0.00    -0.340 N 
ATOM     13  H   UNL     1      -6.291  -3.490   2.450  0.00  0.00    +0.146 HD
BRANCH  12  14
ATOM     14  C   UNL     1      -4.696  -2.884   3.714  0.00  0.00    +0.137 C 
BRANCH  14  15
ATOM     15  C   UNL     1      -5.674  -3.086   4.873  0.00  0.00    +0.161 C 
BRANCH  15  16
ATOM     16  C   UNL     1      -5.028  -2.642   6.160  0.00  0.00    -0.018 A 
ATOM     17  C   UNL     1      -4.134  -3.475   6.807  0.00  0.00    +0.007 A 
ATOM     18  C   UNL     1      -3.540  -3.068   7.987  0.00  0.00    +0.020 A 
ATOM     19  C   UNL     1      -3.841  -1.828   8.521  0.00  0.00    +0.041 A 
ATOM     20  C   UNL     1      -4.736  -0.995   7.873  0.00  0.00    +0.020 A 
ATOM     21  C   UNL     1      -5.324  -1.400   6.690  0.00  0.00    +0.007 A 
ATOM     22 CL   UNL     1      -3.096  -1.317  10.003  0.00  0.00    -0.084 Cl
ENDBRANCH  15  16
BRANCH  15  23
ATOM     23  O   UNL     1      -6.022  -4.469   4.967  0.00  0.00    -0.386 OA
ATOM     24  H   UNL     1      -5.268  -5.054   5.124  0.00  0.00    +0.210 HD
ENDBRANCH  15  23
ENDBRANCH  14  15
ENDBRANCH  12  14
ENDBRANCH   3  12
BRANCH   1  25
ATOM     25  C   UNL     1      -1.244  -2.135   0.003  0.00  0.00    +0.173 C 
BRANCH  25  26
ATOM     26  C   UNL     1      -1.185  -0.630   0.010  0.00  0.00    +0.313 C 
ATOM     27  O   UNL     1      -2.208   0.015   0.023  0.00  0.00    -0.250 OA
BRANCH  26  29
ATOM     28  C   UNL     1      -0.017   1.425   0.010  0.00  0.00    +0.280 C 
ATOM     29  O   UNL     1       0.002  -0.004   0.002  0.00  0.00    -0.468 OA
ENDBRANCH  26  29
ENDBRANCH  25  26
ENDBRANCH   1  25
TORSDOF 8
