REMARK  Name = ZINC49111584
REMARK  6 active torsions:
REMARK  status: ('A' for Active; 'I' for Inactive)
REMARK    1  A    between atoms: C_1  and  N_2
REMARK    2  A    between atoms: N_10  and  C_11
REMARK    3  A    between atoms: C_14  and  C_18
REMARK    4  A    between atoms: C_25  and  C_34
REMARK    5  A    between atoms: C_26  and  C_27
REMARK    6  A    between atoms: C_31  and  O_33
REMARK                            x       y       z     vdW  Elec       q    Type
REMARK                         _______ _______ _______ _____ _____    ______ ____
ROOT
ATOM      1  C   UNL     1       8.058   1.059  -2.520  0.00  0.00    +0.079 A 
ATOM      2  C   UNL     1       8.318   1.934  -3.558  0.00  0.00    +0.048 A 
ATOM      3  C   UNL     1       9.643   2.237  -3.874  0.00  0.00    +0.115 A 
ATOM      4  N   UNL     1      10.630   1.698  -3.194  0.00  0.00    -0.236 NA
ATOM      5  C   UNL     1      10.398   0.849  -2.187  0.00  0.00    +0.164 A 
ATOM      6  N   UNL     1       9.117   0.519  -1.829  0.00  0.00    -0.213 N 
ATOM      7  N   UNL     1       9.180  -0.371  -0.752  0.00  0.00    -0.164 NA
ATOM      8  C   UNL     1      10.444  -0.588  -0.443  0.00  0.00    +0.103 A 
ATOM      9  C   UNL     1      11.255   0.154  -1.325  0.00  0.00    +0.054 A 
ENDROOT
BRANCH   1  13
ATOM     10  C   UNL     1       4.061   0.069  -1.474  0.00  0.00    +0.033 A 
ATOM     11  C   UNL     1       4.638  -0.480  -2.616  0.00  0.00    +0.024 A 
ATOM     12  C   UNL     1       5.933  -0.161  -2.958  0.00  0.00    +0.014 A 
ATOM     13  C   UNL     1       6.670   0.716  -2.157  0.00  0.00    +0.036 A 
ATOM     14  C   UNL     1       6.088   1.266  -1.009  0.00  0.00    +0.134 A 
ATOM     15  C   UNL     1       4.788   0.946  -0.677  0.00  0.00    +0.062 A 
ATOM     16  F   UNL     1       6.796   2.114  -0.232  0.00  0.00    -0.205 F 
BRANCH  10  24
ATOM     17  C   UNL     1      -0.083   1.600  -1.051  0.00  0.00    -0.096 C 
ATOM     18  N   UNL     1      -0.084   0.141  -1.218  0.00  0.00    +0.382 N 
ATOM     19  C   UNL     1       0.711  -0.237  -2.412  0.00  0.00    -0.056 C 
ATOM     20  C   UNL     1       1.833  -1.175  -1.871  0.00  0.00    +0.055 C 
ATOM     21  C   UNL     1       1.055  -1.867  -0.695  0.00  0.00    +0.007 C 
ATOM     22  C   UNL     1       0.588  -0.513  -0.051  0.00  0.00    -0.050 C 
ATOM     23  C   UNL     1       1.964   0.215   0.051  0.00  0.00    +0.090 C 
ATOM     24  N   UNL     1       2.751  -0.258  -1.133  0.00  0.00    -0.330 N 
ATOM     25  H   UNL     1      -1.030  -0.198  -1.309  0.00  0.00    -0.082 HD
ENDBRANCH  10  24
ENDBRANCH   1  13
BRANCH   9  26
ATOM     26  C   UNL     1      12.734   0.201  -1.331  0.00  0.00    -0.009 A 
ATOM     27  C   UNL     1      13.469  -0.935  -1.673  0.00  0.00    +0.009 A 
ATOM     28  C   UNL     1      14.848  -0.888  -1.677  0.00  0.00    +0.004 A 
ATOM     29  C   UNL     1      15.505   0.282  -1.343  0.00  0.00    +0.045 A 
ATOM     30  C   UNL     1      14.782   1.417  -1.001  0.00  0.00    +0.117 A 
ATOM     31  C   UNL     1      13.397   1.381  -0.999  0.00  0.00    +0.054 A 
BRANCH  30  32
ATOM     32  O   UNL     1      15.432   2.564  -0.673  0.00  0.00    -0.507 OA
ATOM     33  H   UNL     1      15.610   3.144  -1.426  0.00  0.00    +0.292 HD
ENDBRANCH  30  32
ENDBRANCH   9  26
BRANCH   8  34
ATOM     34  C   UNL     1      10.931  -1.472   0.643  0.00  0.00    +0.006 A 
ATOM     35  C   UNL     1      12.007  -1.092   1.451  0.00  0.00    +0.030 A 
ATOM     36  C   UNL     1      12.428  -1.946   2.450  0.00  0.00    +0.111 A 
ATOM     37  N   UNL     1      11.830  -3.105   2.647  0.00  0.00    -0.263 NA
ATOM     38  C   UNL     1      10.812  -3.501   1.907  0.00  0.00    +0.111 A 
ATOM     39  C   UNL     1      10.323  -2.707   0.890  0.00  0.00    +0.030 A 
ENDBRANCH   8  34
TORSDOF 5
