REMARK  Name = ZINC40758271
REMARK  6 active torsions:
REMARK  status: ('A' for Active; 'I' for Inactive)
REMARK    1  A    between atoms: C_1  and  C_2
REMARK    2  A    between atoms: C_2  and  C_4
REMARK    3  A    between atoms: C_2  and  N_10
REMARK    4  A    between atoms: C_12  and  N_28
REMARK    5  A    between atoms: C_13  and  N_17
REMARK    6  A    between atoms: N_17  and  C_18
REMARK                            x       y       z     vdW  Elec       q    Type
REMARK                         _______ _______ _______ _____ _____    ______ ____
ROOT
ATOM      1  N   UNL     1       0.706  -0.540   1.173  0.00  0.00    -0.321 N 
ATOM      2  C   UNL     1       2.092  -0.634   1.163  0.00  0.00    +0.145 A 
ATOM      3  C   UNL     1       2.779  -1.096   2.288  0.00  0.00    +0.105 A 
ATOM      4  C   UNL     1       4.171  -1.172   2.225  0.00  0.00    +0.149 A 
ATOM      5  N   UNL     1       4.787  -0.804   1.103  0.00  0.00    -0.219 NA
ATOM      6  C   UNL     1       4.101  -0.374   0.064  0.00  0.00    +0.225 A 
ATOM      7  N   UNL     1       2.785  -0.292   0.080  0.00  0.00    -0.219 NA
ATOM      8  H   UNL     1       0.208  -0.791   1.966  0.00  0.00    +0.148 HD
ENDROOT
BRANCH   3   9
ATOM      9  N   UNL     1       2.088  -1.473   3.451  0.00  0.00    -0.353 N 
ATOM     10  H   UNL     1       1.120  -1.414   3.480  0.00  0.00    +0.143 HD
ATOM     11  H   UNL     1       2.578  -1.791   4.225  0.00  0.00    +0.143 HD
ENDBRANCH   3   9
BRANCH   1  13
ATOM     12  C   UNL     1      -0.046   1.469  -0.002  0.00  0.00    +0.033 C 
ATOM     13  C   UNL     1      -0.004  -0.060  -0.016  0.00  0.00    +0.099 C 
BRANCH  13  14
ATOM     14  C   UNL     1      -1.410  -0.601  -0.014  0.00  0.00    -0.028 A 
ATOM     15  C   UNL     1      -2.126  -0.661   1.167  0.00  0.00    +0.005 A 
ATOM     16  C   UNL     1      -3.417  -1.157   1.169  0.00  0.00    +0.000 A 
ATOM     17  C   UNL     1      -3.991  -1.594  -0.011  0.00  0.00    +0.000 A 
ATOM     18  C   UNL     1      -3.275  -1.534  -1.192  0.00  0.00    +0.000 A 
ATOM     19  C   UNL     1      -1.986  -1.033  -1.194  0.00  0.00    +0.005 A 
ENDBRANCH  13  14
ENDBRANCH   1  13
BRANCH   4  20
ATOM     20  N   UNL     1       4.904  -1.624   3.317  0.00  0.00    -0.296 N 
ATOM     21  H   UNL     1       4.457  -1.807   4.158  0.00  0.00    +0.154 HD
BRANCH  20  22
ATOM     22  C   UNL     1       6.281  -1.814   3.202  0.00  0.00    +0.059 A 
ATOM     23  C   UNL     1       6.848  -2.058   1.970  0.00  0.00    +0.025 A 
ATOM     24  C   UNL     1       8.220  -2.249   1.842  0.00  0.00    +0.003 A 
ATOM     25  C   UNL     1       9.039  -2.201   2.929  0.00  0.00    +0.010 A 
ATOM     26  C   UNL     1       8.500  -1.954   4.202  0.00  0.00    +0.002 A 
ATOM     27  C   UNL     1       7.106  -1.752   4.347  0.00  0.00    +0.092 A 
ATOM     28  N   UNL     1       6.590  -1.514   5.556  0.00  0.00    -0.253 NA
ATOM     29  C   UNL     1       7.350  -1.456   6.622  0.00  0.00    +0.111 A 
ATOM     30  C   UNL     1       8.729  -1.639   6.550  0.00  0.00    +0.020 A 
ATOM     31  C   UNL     1       9.319  -1.898   5.345  0.00  0.00    +0.011 A 
ENDBRANCH  20  22
ENDBRANCH   4  20
TORSDOF 5
