REMARK  Name = ZINC39914038
REMARK  8 active torsions:
REMARK  status: ('A' for Active; 'I' for Inactive)
REMARK    1  A    between atoms: C_1  and  C_2
REMARK    2  A    between atoms: C_4  and  O_32
REMARK    3  A    between atoms: C_5  and  C_9
REMARK    4  A    between atoms: N_17  and  C_28
REMARK    5  A    between atoms: C_18  and  C_20
REMARK    6  A    between atoms: C_28  and  C_29
REMARK    7  A    between atoms: C_29  and  O_30
REMARK    8  A    between atoms: O_30  and  C_31
REMARK                            x       y       z     vdW  Elec       q    Type
REMARK                         _______ _______ _______ _____ _____    ______ ____
ROOT
ATOM      1  C   UNL     1      -0.600  -3.657   0.523  0.00  0.00    +0.102 A 
ATOM      2  C   UNL     1      -0.175  -4.712   1.337  0.00  0.00    +0.035 A 
ATOM      3  C   UNL     1       0.011  -5.789   0.491  0.00  0.00    +0.126 A 
ATOM      4  N   UNL     1      -0.303  -5.345  -0.762  0.00  0.00    -0.272 N 
ATOM      5  H   UNL     1      -0.267  -5.883  -1.569  0.00  0.00    +0.189 HD
ATOM      6  N   UNL     1      -0.658  -4.111  -0.714  0.00  0.00    -0.173 NA
ATOM      7  C   UNL     1       0.460  -6.936   1.288  0.00  0.00    +0.266 C 
ATOM      8  O   UNL     1       0.712  -8.038   0.838  0.00  0.00    -0.268 OA
ATOM      9  N   UNL     1       0.554  -6.597   2.586  0.00  0.00    -0.283 N 
ATOM     10  C   UNL     1       0.167  -5.187   2.723  0.00  0.00    +0.141 C 
ENDROOT
BRANCH   1  15
ATOM     11  C   UNL     1      -1.890   1.685   2.263  0.00  0.00    +0.045 C 
ATOM     12  C   UNL     1      -1.553   0.289   1.805  0.00  0.00    -0.029 A 
ATOM     13  C   UNL     1      -1.537  -0.008   0.455  0.00  0.00    +0.050 A 
ATOM     14  C   UNL     1      -1.228  -1.290   0.030  0.00  0.00    +0.126 A 
ATOM     15  C   UNL     1      -0.932  -2.281   0.970  0.00  0.00    +0.045 A 
ATOM     16  C   UNL     1      -0.950  -1.973   2.328  0.00  0.00    +0.034 A 
ATOM     17  C   UNL     1      -1.255  -0.689   2.739  0.00  0.00    +0.045 A 
ATOM     18 CL   UNL     1      -1.271  -0.304   4.431  0.00  0.00    -0.083 Cl
BRANCH  14  19
ATOM     19  O   UNL     1      -1.213  -1.583  -1.297  0.00  0.00    -0.506 OA
ATOM     20  H   UNL     1      -0.353  -1.448  -1.719  0.00  0.00    +0.292 HD
ENDBRANCH  14  19
ENDBRANCH   1  15
BRANCH  10  21
ATOM     21  C   UNL     1       1.316  -4.385   3.277  0.00  0.00    -0.021 A 
ATOM     22  C   UNL     1       1.096  -3.473   4.292  0.00  0.00    +0.007 A 
ATOM     23  C   UNL     1       2.149  -2.736   4.801  0.00  0.00    +0.022 A 
ATOM     24  C   UNL     1       3.425  -2.912   4.294  0.00  0.00    +0.059 A 
ATOM     25  C   UNL     1       3.645  -3.825   3.278  0.00  0.00    +0.060 A 
ATOM     26  C   UNL     1       2.591  -4.565   2.773  0.00  0.00    +0.027 A 
ATOM     27 CL   UNL     1       5.245  -4.046   2.640  0.00  0.00    -0.082 Cl
ATOM     28 CL   UNL     1       4.747  -1.986   4.932  0.00  0.00    -0.082 Cl
ENDBRANCH  10  21
BRANCH   9  29
ATOM     29  C   UNL     1       0.970  -7.482   3.676  0.00  0.00    +0.137 C 
BRANCH  29  30
ATOM     30  C   UNL     1      -0.267  -8.091   4.340  0.00  0.00    +0.178 C 
BRANCH  30  31
ATOM     31  O   UNL     1      -0.936  -8.943   3.409  0.00  0.00    -0.381 OA
ATOM     32  C   UNL     1      -2.154  -9.503   3.905  0.00  0.00    +0.194 C 
ENDBRANCH  30  31
ENDBRANCH  29  30
ENDBRANCH   9  29
TORSDOF 6
