REMARK  Name = ZINC08740248
REMARK  16 active torsions:
REMARK  status: ('A' for Active; 'I' for Inactive)
REMARK    1  A    between atoms: C_1  and  C_2
REMARK    2  A    between atoms: C_4  and  O_39
REMARK    3  A    between atoms: C_6  and  O_35
REMARK    4  A    between atoms: C_8  and  O_31
REMARK    5  A    between atoms: C_10  and  O_13
REMARK    6  A    between atoms: O_13  and  C_14
REMARK    7  A    between atoms: C_19  and  O_20
REMARK    8  A    between atoms: O_20  and  C_21
REMARK    9  A    between atoms: C_25  and  O_26
REMARK   10  A    between atoms: O_26  and  C_27
REMARK   11  A    between atoms: O_31  and  C_32
REMARK   12  A    between atoms: C_32  and  C_34
REMARK   13  A    between atoms: O_35  and  C_36
REMARK   14  A    between atoms: C_36  and  C_38
REMARK   15  A    between atoms: O_39  and  C_40
REMARK   16  A    between atoms: C_40  and  C_42
REMARK                            x       y       z     vdW  Elec       q    Type
REMARK                         _______ _______ _______ _____ _____    ______ ____
ROOT
ATOM      1  C   UNL     1      -0.019   1.526   0.010  0.00  0.00    +0.042 C 
ATOM      2  C   UNL     1       0.002  -0.004   0.002  0.00  0.00    +0.164 C 
ATOM      3  C   UNL     1       0.719  -0.498  -1.257  0.00  0.00    +0.249 C 
ATOM      4  C   UNL     1       0.789  -2.028  -1.229  0.00  0.00    +0.266 C 
ATOM      5  C   UNL     1       1.496  -2.472   0.055  0.00  0.00    +0.289 C 
ATOM      6  C   UNL     1       0.749  -1.902   1.264  0.00  0.00    +0.353 C 
ATOM      7  O   UNL     1       0.694  -0.478   1.159  0.00  0.00    -0.332 OA
ENDROOT
BRANCH   6   8
ATOM      8  O   UNL     1      -0.578  -2.430   1.296  0.00  0.00    -0.456 OA
BRANCH   8   9
ATOM      9  C   UNL     1      -1.346  -2.104   2.370  0.00  0.00    +0.168 A 
ATOM     10  C   UNL     1      -0.821  -1.282   3.370  0.00  0.00    +0.050 A 
ATOM     11  C   UNL     1      -1.567  -0.941   4.455  0.00  0.00    +0.017 A 
ATOM     12  C   UNL     1      -2.884  -1.417   4.578  0.00  0.00    +0.045 A 
ATOM     13  C   UNL     1      -3.431  -2.251   3.571  0.00  0.00    +0.098 A 
ATOM     14  C   UNL     1      -2.636  -2.584   2.455  0.00  0.00    +0.186 A 
ATOM     15  N   UNL     1      -4.682  -2.711   3.674  0.00  0.00    -0.322 N 
ATOM     16  C   UNL     1      -5.451  -2.413   4.704  0.00  0.00    +0.209 A 
ATOM     17  C   UNL     1      -4.972  -1.587   5.744  0.00  0.00    +0.080 A 
ATOM     18  C   UNL     1      -3.678  -1.078   5.693  0.00  0.00    +0.142 A 
ATOM     19  C   UNL     1      -6.080  -1.474   6.702  0.00  0.00    +0.055 A 
ATOM     20  C   UNL     1      -7.085  -2.198   6.195  0.00  0.00    +0.198 A 
ATOM     21  O   UNL     1      -6.719  -2.750   5.024  0.00  0.00    -0.447 OA
ATOM     22  H   UNL     1      -5.034  -3.280   2.972  0.00  0.00    +0.169 HD
BRANCH  14  23
ATOM     23  O   UNL     1      -3.137  -3.379   1.472  0.00  0.00    -0.490 OA
ATOM     24  C   UNL     1      -2.951  -4.788   1.619  0.00  0.00    +0.277 C 
ENDBRANCH  14  23
BRANCH  18  25
ATOM     25  O   UNL     1      -3.197  -0.284   6.681  0.00  0.00    -0.494 OA
ATOM     26  C   UNL     1      -3.396   1.124   6.536  0.00  0.00    +0.277 C 
ENDBRANCH  18  25
ENDBRANCH   8   9
ENDBRANCH   6   8
BRANCH   5  27
ATOM     27  O   UNL     1       1.504  -3.899   0.127  0.00  0.00    -0.451 OA
BRANCH  27  28
ATOM     28  C   UNL     1       2.535  -4.471   0.769  0.00  0.00    +0.305 C 
ATOM     29  O   UNL     1       3.402  -3.783   1.253  0.00  0.00    -0.251 OA
ATOM     30  C   UNL     1       2.611  -5.972   0.884  0.00  0.00    +0.136 C 
ENDBRANCH  27  28
ENDBRANCH   5  27
BRANCH   4  31
ATOM     31  O   UNL     1      -0.534  -2.567  -1.258  0.00  0.00    -0.454 OA
BRANCH  31  32
ATOM     32  C   UNL     1      -0.690  -3.767  -1.841  0.00  0.00    +0.304 C 
ATOM     33  O   UNL     1       0.265  -4.340  -2.309  0.00  0.00    -0.251 OA
ATOM     34  C   UNL     1      -2.057  -4.399  -1.910  0.00  0.00    +0.136 C 
ENDBRANCH  31  32
ENDBRANCH   4  31
BRANCH   3  35
ATOM     35  O   UNL     1      -0.002  -0.073  -2.415  0.00  0.00    -0.455 OA
BRANCH  35  36
ATOM     36  C   UNL     1       0.332   1.117  -2.939  0.00  0.00    +0.304 C 
ATOM     37  O   UNL     1       1.208   1.776  -2.431  0.00  0.00    -0.251 OA
ATOM     38  C   UNL     1      -0.385   1.631  -4.161  0.00  0.00    +0.136 C 
ENDBRANCH  35  36
ENDBRANCH   3  35
TORSDOF 10
