REMARK  Name = ZINC21323379
REMARK  8 active torsions:
REMARK  status: ('A' for Active; 'I' for Inactive)
REMARK    1  A    between atoms: C_1  and  C_2
REMARK    2  A    between atoms: C_2  and  C_24
REMARK    3  A    between atoms: N_3  and  N_4
REMARK    4  A    between atoms: C_8  and  S_11
REMARK    5  A    between atoms: N_9  and  N_10
REMARK    6  A    between atoms: S_11  and  C_12
REMARK    7  A    between atoms: C_12  and  C_13
REMARK    8  A    between atoms: N_15  and  C_16
REMARK                            x       y       z     vdW  Elec       q    Type
REMARK                         _______ _______ _______ _____ _____    ______ ____
ROOT
ATOM      1  N   UNL     1       0.044   0.064  -2.338  0.00  0.00    -0.204 N 
ATOM      2  C   UNL     1       0.032  -0.624  -3.543  0.00  0.00    +0.254 A 
ATOM      3  N   UNL     1       0.046  -1.927  -3.686  0.00  0.00    -0.109 NA
ATOM      4  N   UNL     1       0.025  -2.212  -5.058  0.00  0.00    -0.119 NA
ATOM      5  C   UNL     1      -0.001  -1.073  -5.708  0.00  0.00    +0.210 A 
ATOM      6  N   UNL     1      -0.002  -0.062  -4.789  0.00  0.00    -0.211 N 
ATOM      7  H   UNL     1       0.030   1.163  -2.332  0.00  0.00    +0.178 HD
ENDROOT
BRANCH   1  10
ATOM      8  C   UNL     1       0.066   1.508   0.007  0.00  0.00    +0.068 C 
ATOM      9  C   UNL     1       0.085   0.001  -0.001  0.00  0.00    +0.063 C 
ATOM     10  N   UNL     1       0.074  -0.643  -1.128  0.00  0.00    -0.184 NA
BRANCH   9  11
ATOM     11  C   UNL     1       0.117  -0.742   1.272  0.00  0.00    -0.002 A 
ATOM     12  C   UNL     1       0.135  -0.052   2.487  0.00  0.00    +0.012 A 
ATOM     13  C   UNL     1       0.160  -0.753   3.674  0.00  0.00    +0.039 A 
ATOM     14  C   UNL     1       0.177  -2.139   3.664  0.00  0.00    +0.123 A 
ATOM     15  C   UNL     1       0.165  -2.829   2.462  0.00  0.00    +0.039 A 
ATOM     16  C   UNL     1       0.135  -2.139   1.268  0.00  0.00    +0.012 A 
ATOM     17  F   UNL     1       0.206  -2.820   4.830  0.00  0.00    -0.205 F 
ENDBRANCH   9  11
ENDBRANCH   1  10
BRANCH   6  18
ATOM     18  N   UNL     1      -0.030   1.275  -5.066  0.00  0.00    -0.294 N 
ATOM     19  H   UNL     1      -0.057   1.620  -6.110  0.00  0.00    +0.163 HD
ATOM     20  H   UNL     1      -0.025   2.007  -4.245  0.00  0.00    +0.163 HD
ENDBRANCH   6  18
BRANCH   5  21
ATOM     21  S   UNL     1      -0.035  -0.880  -7.459  0.00  0.00    -0.075 S 
BRANCH  21  22
ATOM     22  C   UNL     1      -0.025  -2.581  -8.088  0.00  0.00    +0.173 C 
BRANCH  22  23
ATOM     23  C   UNL     1      -0.053  -2.559  -9.595  0.00  0.00    +0.228 C 
ATOM     24  O   UNL     1      -0.077  -1.501 -10.186  0.00  0.00    -0.275 OA
ATOM     25  N   UNL     1      -0.051  -3.717 -10.285  0.00  0.00    -0.284 N 
ATOM     26  H   UNL     1       0.046  -4.675  -9.753  0.00  0.00    +0.155 HD
BRANCH  25  27
ATOM     27  C   UNL     1      -0.171  -3.700 -11.680  0.00  0.00    +0.053 A 
ATOM     28  C   UNL     1       0.399  -2.669 -12.415  0.00  0.00    +0.025 A 
ATOM     29  C   UNL     1       0.279  -2.655 -13.791  0.00  0.00    +0.003 A 
ATOM     30  C   UNL     1      -0.407  -3.666 -14.438  0.00  0.00    +0.021 A 
ATOM     31  C   UNL     1      -0.977  -4.695 -13.710  0.00  0.00    +0.061 A 
ATOM     32  C   UNL     1      -0.856  -4.718 -12.332  0.00  0.00    +0.080 A 
ATOM     33 CL   UNL     1      -1.565  -6.013 -11.418  0.00  0.00    -0.080 Cl
ATOM     34 CL   UNL     1      -1.839  -5.962 -14.526  0.00  0.00    -0.082 Cl
ENDBRANCH  25  27
ENDBRANCH  22  23
ENDBRANCH  21  22
ENDBRANCH   5  21
TORSDOF 7
