REMARK  Name = ZINC63362904
REMARK  3 active torsions:
REMARK  status: ('A' for Active; 'I' for Inactive)
REMARK    1  A    between atoms: C_8  and  C_16
REMARK    2  A    between atoms: N_21  and  C_24
REMARK    3  A    between atoms: C_24  and  C_25
REMARK                            x       y       z     vdW  Elec       q    Type
REMARK                         _______ _______ _______ _____ _____    ______ ____
ROOT
ATOM      1  C   UNL     1       3.422  -2.269   2.317  0.00  0.00    +0.070 A 
ATOM      2  C   UNL     1       2.183  -1.781   2.606  0.00  0.00    +0.257 A 
ATOM      3  N   UNL     1       1.964  -1.167   3.813  0.00  0.00    -0.302 N 
ATOM      4  C   UNL     1       2.963  -1.045   4.707  0.00  0.00    +0.164 A 
ATOM      5  S   UNL     1       2.664  -0.274   6.206  0.00  0.00    -0.013 S 
ATOM      6  N   UNL     1       4.193  -1.521   4.440  0.00  0.00    -0.284 N 
ATOM      7  C   UNL     1       4.449  -2.136   3.268  0.00  0.00    +0.260 A 
ATOM      8  O   UNL     1       5.564  -2.569   3.033  0.00  0.00    -0.267 OA
ATOM      9  O   UNL     1       1.178  -1.900   1.712  0.00  0.00    -0.267 OA
ATOM     10  H   UNL     1       1.084  -0.818   4.024  0.00  0.00    +0.171 HD
ENDROOT
BRANCH   1  17
ATOM     11  C   UNL     1       0.359   1.589  -0.094  0.00  0.00    +0.001 A 
ATOM     12  C   UNL     1       1.592   2.254  -0.049  0.00  0.00    +0.002 A 
ATOM     13  C   UNL     1       2.771   1.598  -0.026  0.00  0.00    +0.026 A 
ATOM     14  C   UNL     1       2.807   0.177  -0.045  0.00  0.00    +0.043 A 
ATOM     15  N   UNL     1       3.810  -0.672  -0.004  0.00  0.00    -0.379 N 
ATOM     16  C   UNL     1       3.277  -2.022  -0.150  0.00  0.00    +0.097 C 
ATOM     17  C   UNL     1       3.687  -2.948   0.998  0.00  0.00    -0.003 C 
ATOM     18  N   UNL     1       2.890  -4.181   0.906  0.00  0.00    +0.386 N 
ATOM     19  C   UNL     1       1.474  -3.940   1.193  0.00  0.00    -0.077 C 
ATOM     20  C   UNL     1       0.852  -3.059   0.094  0.00  0.00    +0.014 C 
ATOM     21  C   UNL     1       1.766  -1.866  -0.081  0.00  0.00    -0.041 C 
ATOM     22  C   UNL     1       1.515  -0.552  -0.083  0.00  0.00    -0.001 A 
ATOM     23  C   UNL     1       0.278   0.240  -0.111  0.00  0.00    +0.010 A 
ATOM     24  H   UNL     1       2.976  -4.560  -0.026  0.00  0.00    -0.085 HD
ATOM     25  H   UNL     1       4.745  -0.440   0.104  0.00  0.00    +0.160 HD
ATOM     26  H   UNL     1       3.249  -4.854   1.567  0.00  0.00    -0.085 HD
ENDBRANCH   1  17
BRANCH   6  27
ATOM     27  C   UNL     1       5.260  -1.374   5.432  0.00  0.00    +0.162 C 
BRANCH  27  28
ATOM     28  C   UNL     1       5.357  -2.631   6.257  0.00  0.00    -0.027 A 
ATOM     29  C   UNL     1       4.536  -2.800   7.357  0.00  0.00    +0.008 A 
ATOM     30  C   UNL     1       4.623  -3.954   8.114  0.00  0.00    +0.038 A 
ATOM     31  C   UNL     1       5.532  -4.940   7.770  0.00  0.00    +0.123 A 
ATOM     32  C   UNL     1       6.353  -4.769   6.668  0.00  0.00    +0.038 A 
ATOM     33  C   UNL     1       6.261  -3.618   5.910  0.00  0.00    +0.008 A 
ATOM     34  F   UNL     1       5.619  -6.067   8.509  0.00  0.00    -0.205 F 
ENDBRANCH  27  28
ENDBRANCH   6  27
TORSDOF 3
