REMARK  Name = ZINC12658805
REMARK  6 active torsions:
REMARK  status: ('A' for Active; 'I' for Inactive)
REMARK    1  A    between atoms: C_6  and  N_11
REMARK    2  A    between atoms: C_12  and  C_14
REMARK    3  A    between atoms: C_14  and  N_21
REMARK    4  A    between atoms: C_15  and  C_16
REMARK    5  A    between atoms: C_22  and  C_24
REMARK    6  A    between atoms: C_28  and  N_30
REMARK                            x       y       z     vdW  Elec       q    Type
REMARK                         _______ _______ _______ _____ _____    ______ ____
ROOT
ATOM      1  C   UNL     1       0.870   7.470  -0.299  0.00  0.00    +0.100 C 
ATOM      2  C   UNL     1      -0.338   8.035  -0.036  0.00  0.00    +0.074 C 
ENDROOT
BRANCH   2   3
ATOM      3  C   UNL     1      -1.508   7.237  -0.038  0.00  0.00    +0.130 A 
ATOM      4  C   UNL     1      -2.802   7.691   0.118  0.00  0.00    +0.049 A 
ATOM      5  C   UNL     1      -3.632   6.560   0.051  0.00  0.00    +0.042 A 
ATOM      6  C   UNL     1      -2.833   5.488  -0.138  0.00  0.00    +0.195 A 
ATOM      7  O   UNL     1      -1.557   5.898  -0.197  0.00  0.00    -0.463 OA
ENDBRANCH   2   3
BRANCH   1   9
ATOM      8  N   UNL     1       1.963   9.647  -0.260  0.00  0.00    -0.280 N 
ATOM      9  C   UNL     1       2.063   8.312  -0.414  0.00  0.00    +0.263 C 
ATOM     10  O   UNL     1       3.145   7.806  -0.650  0.00  0.00    -0.268 OA
ATOM     11  H   UNL     1       1.115  10.044  -0.005  0.00  0.00    +0.155 HD
BRANCH   8  17
ATOM     12  C   UNL     1       6.295  14.098  -1.624  0.00  0.00    +0.001 A 
ATOM     13  C   UNL     1       5.035  14.565  -1.991  0.00  0.00    +0.001 A 
ATOM     14  C   UNL     1       3.924  13.802  -1.806  0.00  0.00    +0.008 A 
ATOM     15  C   UNL     1       4.046  12.523  -1.235  0.00  0.00    -0.016 A 
ATOM     16  C   UNL     1       2.920  11.708  -1.029  0.00  0.00    +0.031 A 
ATOM     17  C   UNL     1       3.080  10.461  -0.467  0.00  0.00    +0.034 A 
ATOM     18  C   UNL     1       4.350  10.002  -0.096  0.00  0.00    +0.024 A 
ATOM     19  C   UNL     1       5.454  10.769  -0.290  0.00  0.00    +0.010 A 
ATOM     20  C   UNL     1       5.328  12.048  -0.862  0.00  0.00    -0.018 A 
ATOM     21  C   UNL     1       6.452  12.865  -1.069  0.00  0.00    +0.008 A 
ENDBRANCH   8  17
ENDBRANCH   1   9
BRANCH   1  22
ATOM     22  N   UNL     1       0.975   6.083  -0.460  0.00  0.00    -0.277 N 
ATOM     23  C   UNL     1       1.444   5.572  -1.615  0.00  0.00    +0.248 C 
ATOM     24  O   UNL     1       1.856   6.314  -2.485  0.00  0.00    -0.270 OA
ATOM     25  H   UNL     1       0.709   5.491   0.261  0.00  0.00    +0.155 HD
BRANCH  23  26
ATOM     26  C   UNL     1       1.457   4.109  -1.824  0.00  0.00    +0.039 A 
ATOM     27  C   UNL     1       1.089   3.249  -0.788  0.00  0.00    +0.013 A 
ATOM     28  C   UNL     1       1.104   1.885  -0.990  0.00  0.00    +0.003 A 
ATOM     29  C   UNL     1       1.482   1.368  -2.216  0.00  0.00    +0.033 A 
ATOM     30  C   UNL     1       1.853   2.214  -3.246  0.00  0.00    +0.127 A 
ATOM     31  C   UNL     1       1.837   3.581  -3.059  0.00  0.00    +0.045 A 
BRANCH  30  32
ATOM     32  N   UNL     1       2.263   1.652  -4.552  0.00  0.00    +0.056 N 
ATOM     33  O   UNL     1       2.273   0.446  -4.720  0.00  0.00    -0.126 OA
ATOM     34  O   UNL     1       2.590   2.396  -5.460  0.00  0.00    -0.126 OA
ENDBRANCH  30  32
ENDBRANCH  23  26
ENDBRANCH   1  22
TORSDOF 6
