REMARK  Name = ZINC31028782
REMARK  4 active torsions:
REMARK  status: ('A' for Active; 'I' for Inactive)
REMARK    1  A    between atoms: C_4  and  C_7
REMARK    2  A    between atoms: C_7  and  C_8
REMARK    3  A    between atoms: C_8  and  N_9
REMARK    4  A    between atoms: C_15  and  C_18
REMARK                            x       y       z     vdW  Elec       q    Type
REMARK                         _______ _______ _______ _____ _____    ______ ____
ROOT
ATOM      1  N   UNL     1      -0.447   5.162   2.085  0.00  0.00    -0.299 N 
ATOM      2  C   UNL     1      -0.417   3.820   2.205  0.00  0.00    +0.302 C 
ATOM      3  O   UNL     1       0.007   3.310   3.224  0.00  0.00    -0.253 OA
ATOM      4  N   UNL     1      -0.856   3.043   1.195  0.00  0.00    -0.286 N 
ATOM      5  C   UNL     1      -0.729   1.581   1.267  0.00  0.00    +0.110 C 
ATOM      6  C   UNL     1      -0.009   1.087   0.008  0.00  0.00    +0.030 C 
ATOM      7  C   UNL     1      -0.750   1.594  -1.232  0.00  0.00    +0.058 C 
ATOM      8  C   UNL     1      -0.743   3.124  -1.241  0.00  0.00    +0.030 C 
ATOM      9  C   UNL     1      -1.472   3.642   0.004  0.00  0.00    +0.110 C 
ATOM     10  H   UNL     1      -0.906   5.624   1.199  0.00  0.00    +0.150 HD
ENDROOT
BRANCH   7  11
ATOM     11  C   UNL     1      -0.063   1.082  -2.471  0.00  0.00    +0.111 A 
ATOM     12  N   UNL     1       1.000   1.677  -3.076  0.00  0.00    -0.342 N 
ATOM     13  H   UNL     1       1.419   2.606  -2.662  0.00  0.00    +0.167 HD
ATOM     14  C   UNL     1       1.335   0.906  -4.171  0.00  0.00    +0.066 A 
ATOM     15  C   UNL     1       2.310   0.995  -5.155  0.00  0.00    +0.028 A 
ATOM     16  C   UNL     1       2.375   0.035  -6.142  0.00  0.00    +0.002 A 
ATOM     17  C   UNL     1       1.472  -1.018  -6.158  0.00  0.00    +0.002 A 
ATOM     18  C   UNL     1       0.505  -1.123  -5.198  0.00  0.00    +0.030 A 
ATOM     19  C   UNL     1       0.420  -0.161  -4.188  0.00  0.00    +0.089 A 
ATOM     20  N   UNL     1      -0.404   0.008  -3.123  0.00  0.00    -0.232 NA
ENDBRANCH   7  11
BRANCH   1  21
ATOM     21  C   UNL     1       0.133   6.004   3.134  0.00  0.00    +0.110 C 
BRANCH  21  22
ATOM     22  C   UNL     1      -0.032   7.477   2.754  0.00  0.00    +0.054 C 
BRANCH  22  26
ATOM     23  C   UNL     1       1.657   9.934   5.813  0.00  0.00    +0.000 A 
ATOM     24  C   UNL     1       2.441   9.510   4.756  0.00  0.00    +0.000 A 
ATOM     25  C   UNL     1       1.894   8.715   3.766  0.00  0.00    +0.004 A 
ATOM     26  C   UNL     1       0.564   8.344   3.833  0.00  0.00    -0.046 A 
ATOM     27  C   UNL     1      -0.221   8.773   4.887  0.00  0.00    +0.004 A 
ATOM     28  C   UNL     1       0.327   9.564   5.880  0.00  0.00    +0.000 A 
ENDBRANCH  22  26
ENDBRANCH  21  22
ENDBRANCH   1  21
TORSDOF 4
