REMARK  Name = ZINC20357385
REMARK  11 active torsions:
REMARK  status: ('A' for Active; 'I' for Inactive)
REMARK    1  A    between atoms: C_1  and  C_2
REMARK    2  A    between atoms: C_5  and  C_8
REMARK    3  A    between atoms: C_10  and  N_35
REMARK    4  A    between atoms: C_11  and  C_31
REMARK    5  A    between atoms: C_14  and  C_27
REMARK    6  A    between atoms: C_16  and  C_20
REMARK    7  A    between atoms: C_23  and  C_26
REMARK    8  A    between atoms: C_27  and  O_29
REMARK    9  A    between atoms: O_29  and  C_30
REMARK   10  A    between atoms: C_31  and  O_33
REMARK   11  A    between atoms: O_33  and  C_34
REMARK                            x       y       z     vdW  Elec       q    Type
REMARK                         _______ _______ _______ _____ _____    ______ ____
ROOT
ATOM      1  C   UNL     1       3.057  -0.124  -4.167  0.00  0.00    +0.019 C 
ATOM      2  C   UNL     1       2.835   0.919  -3.291  0.00  0.00    +0.024 A 
ATOM      3  C   UNL     1       3.846   1.692  -2.546  0.00  0.00    +0.065 A 
ATOM      4  C   UNL     1       3.167   2.592  -1.756  0.00  0.00    +0.155 A 
ATOM      5  N   UNL     1       1.785   2.435  -1.911  0.00  0.00    -0.270 N 
ATOM      6  C   UNL     1       1.543   1.494  -2.900  0.00  0.00    +0.079 A 
ATOM      7  C   UNL     1       0.306   1.207  -3.449  0.00  0.00    +0.118 C 
ATOM      8  S   UNL     1      -1.077   2.167  -2.904  0.00  0.00    -0.099 S 
ATOM      9  C   UNL     1      -0.597   2.657  -1.222  0.00  0.00    +0.170 C 
ATOM     10  C   UNL     1       0.842   3.101  -1.217  0.00  0.00    +0.250 C 
ATOM     11  O   UNL     1       1.158   4.079  -0.573  0.00  0.00    -0.271 OA
ENDROOT
BRANCH   1  16
ATOM     12  C   UNL     1       8.325  -2.349  -4.709  0.00  0.00    +0.044 C 
ATOM     13  C   UNL     1       6.943  -1.765  -4.567  0.00  0.00    -0.050 A 
ATOM     14  C   UNL     1       6.455  -1.449  -3.310  0.00  0.00    +0.004 A 
ATOM     15  C   UNL     1       5.193  -0.915  -3.170  0.00  0.00    +0.008 A 
ATOM     16  C   UNL     1       4.402  -0.692  -4.305  0.00  0.00    -0.024 A 
ATOM     17  C   UNL     1       4.901  -1.020  -5.573  0.00  0.00    +0.008 A 
ATOM     18  C   UNL     1       6.168  -1.549  -5.694  0.00  0.00    +0.004 A 
ENDBRANCH   1  16
BRANCH   9  19
ATOM     19  C   UNL     1      -1.475   3.792  -0.762  0.00  0.00    -0.025 A 
ATOM     20  C   UNL     1      -1.486   4.985  -1.461  0.00  0.00    +0.005 A 
ATOM     21  C   UNL     1      -2.294   6.025  -1.041  0.00  0.00    +0.003 A 
ATOM     22  C   UNL     1      -3.084   5.875   0.084  0.00  0.00    -0.050 A 
ATOM     23  C   UNL     1      -3.069   4.685   0.786  0.00  0.00    +0.003 A 
ATOM     24  C   UNL     1      -2.264   3.643   0.363  0.00  0.00    +0.005 A 
ATOM     25  C   UNL     1      -3.961   7.011   0.545  0.00  0.00    +0.044 C 
ENDBRANCH   9  19
BRANCH   3  26
ATOM     26  N   UNL     1       5.218   1.540  -2.626  0.00  0.00    -0.356 N 
ATOM     27  H   UNL     1       5.877   2.178  -2.019  0.00  0.00    +0.142 HD
ATOM     28  H   UNL     1       5.649   0.782  -3.296  0.00  0.00    +0.142 HD
ENDBRANCH   3  26
BRANCH   7  29
ATOM     29  C   UNL     1       0.152   0.180  -4.410  0.00  0.00    +0.347 C 
ATOM     30  O   UNL     1       0.115   0.457  -5.595  0.00  0.00    -0.244 OA
BRANCH  29  31
ATOM     31  O   UNL     1       0.046  -1.106  -4.013  0.00  0.00    -0.464 OA
ATOM     32  C   UNL     1      -0.108  -2.090  -5.038  0.00  0.00    +0.280 C 
ENDBRANCH  29  31
ENDBRANCH   7  29
BRANCH   4  33
ATOM     33  C   UNL     1       3.779   3.541  -0.908  0.00  0.00    +0.358 C 
ATOM     34  O   UNL     1       3.328   3.745   0.204  0.00  0.00    -0.243 OA
BRANCH  33  35
ATOM     35  O   UNL     1       4.866   4.223  -1.330  0.00  0.00    -0.463 OA
ATOM     36  C   UNL     1       5.434   5.167  -0.420  0.00  0.00    +0.280 C 
ENDBRANCH  33  35
ENDBRANCH   4  33
TORSDOF 7
