REMARK  Name = ZINC04489112
REMARK  8 active torsions:
REMARK  status: ('A' for Active; 'I' for Inactive)
REMARK    1  A    between atoms: C_2  and  O_15
REMARK    2  A    between atoms: C_5  and  O_13
REMARK    3  A    between atoms: C_6  and  C_7
REMARK    4  A    between atoms: C_7  and  N_56
REMARK    5  A    between atoms: O_15  and  C_16
REMARK    6  A    between atoms: C_18  and  C_24
REMARK    7  A    between atoms: C_19  and  O_23
REMARK    8  A    between atoms: C_24  and  N_58
REMARK                            x       y       z     vdW  Elec       q    Type
REMARK                         _______ _______ _______ _____ _____    ______ ____
ROOT
ATOM      1  O   UNL     1      -0.016   1.355   0.009  0.00  0.00    -0.456 OA
ENDROOT
BRANCH   1   3
ATOM      2  C   UNL     1       0.665  -0.627   1.134  0.00  0.00    +0.051 A 
ATOM      3  C   UNL     1       0.101   0.001   0.033  0.00  0.00    +0.130 A 
ATOM      4  C   UNL     1      -0.347  -0.752  -1.042  0.00  0.00    +0.070 A 
ATOM      5  C   UNL     1      -0.223  -2.129  -1.020  0.00  0.00    +0.086 A 
ATOM      6  C   UNL     1       0.341  -2.757   0.081  0.00  0.00    +0.137 A 
ATOM      7  C   UNL     1       0.785  -2.003   1.158  0.00  0.00    -0.018 A 
ATOM      8 CL   UNL     1      -0.777  -3.072  -2.368  0.00  0.00    -0.080 Cl
BRANCH   6   9
ATOM      9  O   UNL     1       0.460  -4.112   0.105  0.00  0.00    -0.505 OA
ATOM     10  H   UNL     1      -0.304  -4.567   0.485  0.00  0.00    +0.292 HD
ENDBRANCH   6   9
BRANCH   7  11
ATOM     11  C   UNL     1       1.398  -2.686   2.353  0.00  0.00    -0.039 C 
BRANCH  11  17
ATOM     12  C   UNL     1      -0.547  -2.313   3.748  0.00  0.00    -0.050 C 
ATOM     13  C   UNL     1      -1.667  -3.018   4.518  0.00  0.00    +0.141 C 
ATOM     14  O   UNL     1      -1.091  -3.883   5.500  0.00  0.00    -0.383 OA
ATOM     15  C   UNL     1      -0.221  -4.878   4.953  0.00  0.00    +0.141 C 
ATOM     16  C   UNL     1       0.913  -4.191   4.187  0.00  0.00    -0.050 C 
ATOM     17  N   UNL     1       0.324  -3.337   3.135  0.00  0.00    +0.385 N 
ATOM     18  H   UNL     1      -0.239  -3.921   2.506  0.00  0.00    -0.081 HD
ENDBRANCH  11  17
ENDBRANCH   7  11
ENDBRANCH   1   3
BRANCH   1  19
ATOM     19  C   UNL     1       1.123   2.094  -0.051  0.00  0.00    +0.130 A 
ATOM     20  C   UNL     1       1.060   3.476   0.051  0.00  0.00    +0.051 A 
ATOM     21  C   UNL     1       2.218   4.227  -0.011  0.00  0.00    -0.018 A 
ATOM     22  C   UNL     1       3.444   3.600  -0.175  0.00  0.00    +0.137 A 
ATOM     23  C   UNL     1       3.508   2.217  -0.277  0.00  0.00    +0.086 A 
ATOM     24  C   UNL     1       2.350   1.466  -0.210  0.00  0.00    +0.070 A 
ATOM     25 CL   UNL     1       5.042   1.432  -0.483  0.00  0.00    -0.080 Cl
BRANCH  22  26
ATOM     26  O   UNL     1       4.583   4.340  -0.236  0.00  0.00    -0.505 OA
ATOM     27  H   UNL     1       4.999   4.494   0.623  0.00  0.00    +0.292 HD
ENDBRANCH  22  26
BRANCH  21  28
ATOM     28  C   UNL     1       2.149   5.729   0.099  0.00  0.00    -0.039 C 
BRANCH  28  34
ATOM     29  C   UNL     1       1.692   5.680   2.478  0.00  0.00    -0.050 C 
ATOM     30  C   UNL     1       2.243   6.082   3.848  0.00  0.00    +0.141 C 
ATOM     31  O   UNL     1       2.434   7.499   3.883  0.00  0.00    -0.383 OA
ATOM     32  C   UNL     1       3.326   7.985   2.877  0.00  0.00    +0.141 C 
ATOM     33  C   UNL     1       2.785   7.603   1.496  0.00  0.00    -0.050 C 
ATOM     34  N   UNL     1       2.637   6.133   1.435  0.00  0.00    +0.385 N 
ATOM     35  H   UNL     1       3.552   5.698   1.602  0.00  0.00    -0.081 HD
ENDBRANCH  28  34
ENDBRANCH  21  28
ENDBRANCH   1  19
TORSDOF 8
