REMARK  Name = ZINC09105082
REMARK  13 active torsions:
REMARK  status: ('A' for Active; 'I' for Inactive)
REMARK    1  A    between atoms: C_1  and  C_2
REMARK    2  A    between atoms: C_2  and  C_3
REMARK    3  A    between atoms: C_2  and  C_4
REMARK    4  A    between atoms: C_7  and  S_10
REMARK    5  A    between atoms: S_10  and  C_13
REMARK    6  A    between atoms: C_13  and  C_15
REMARK    7  A    between atoms: C_13  and  C_31
REMARK    8  A    between atoms: C_15  and  N_16
REMARK    9  A    between atoms: C_17  and  C_19
REMARK   10  A    between atoms: N_21  and  C_22
REMARK   11  A    between atoms: C_22  and  C_23
REMARK   12  A    between atoms: C_23  and  C_24
REMARK   13  A    between atoms: C_27  and  O_30
REMARK                            x       y       z     vdW  Elec       q    Type
REMARK                         _______ _______ _______ _____ _____    ______ ____
ROOT
ATOM      1  C   UNL     1       1.262  -8.450  -3.830  0.00  0.00    +0.136 C 
ENDROOT
BRANCH   1   2
ATOM      2  N   UNL     1       1.245  -6.985  -3.822  0.00  0.00    -0.305 N 
ATOM      3  C   UNL     1       1.248  -6.317  -2.652  0.00  0.00    +0.299 C 
ATOM      4  O   UNL     1       1.266  -6.929  -1.604  0.00  0.00    -0.265 OA
ATOM      5  H   UNL     1       1.231  -6.496  -4.660  0.00  0.00    +0.149 HD
BRANCH   3   6
ATOM      6  C   UNL     1       1.231  -4.823  -2.644  0.00  0.00    +0.299 C 
ATOM      7  O   UNL     1       1.214  -4.211  -3.692  0.00  0.00    -0.265 OA
ATOM      8  N   UNL     1       1.234  -4.155  -1.474  0.00  0.00    -0.307 N 
ATOM      9  H   UNL     1       1.248  -4.644  -0.636  0.00  0.00    +0.149 HD
BRANCH   8  10
ATOM     10  C   UNL     1       1.217  -2.690  -1.466  0.00  0.00    +0.109 C 
BRANCH  10  11
ATOM     11  C   UNL     1       1.226  -2.187  -0.021  0.00  0.00    +0.054 C 
BRANCH  11  12
ATOM     12  C   UNL     1       1.208  -0.680  -0.013  0.00  0.00    -0.046 A 
ATOM     13  C   UNL     1       0.002  -0.004   0.002  0.00  0.00    +0.007 A 
ATOM     14  C   UNL     1      -0.017   1.377   0.010  0.00  0.00    +0.045 A 
ATOM     15  C   UNL     1       1.176   2.086   0.002  0.00  0.00    +0.117 A 
ATOM     16  C   UNL     1       2.385   1.405  -0.013  0.00  0.00    +0.045 A 
ATOM     17  C   UNL     1       2.398   0.024  -0.021  0.00  0.00    +0.007 A 
BRANCH  15  18
ATOM     18  O   UNL     1       1.160   3.445   0.009  0.00  0.00    -0.507 OA
ATOM     19  H   UNL     1       1.164   3.834   0.894  0.00  0.00    +0.292 HD
ENDBRANCH  15  18
ENDBRANCH  11  12
ENDBRANCH  10  11
ENDBRANCH   8  10
ENDBRANCH   3   6
ENDBRANCH   1   2
BRANCH   1  20
ATOM     20  C   UNL     1       1.254  -8.953  -5.275  0.00  0.00    +0.189 C 
BRANCH  20  21
ATOM     21  C   UNL     1       1.271 -10.459  -5.283  0.00  0.00    +0.016 A 
ATOM     22  C   UNL     1       2.185 -11.300  -5.827  0.00  0.00    +0.013 A 
ATOM     23  C   UNL     1       1.996 -12.664  -5.707  0.00  0.00    +0.008 A 
ATOM     24  C   UNL     1       0.897 -13.121  -5.059  0.00  0.00    +0.045 A 
ATOM     25  S   UNL     1       0.090 -11.601  -4.584  0.00  0.00    -0.100 S 
ENDBRANCH  20  21
BRANCH  20  26
ATOM     26  S   UNL     1      -0.243  -8.361  -6.113  0.00  0.00    +0.006 S 
ATOM     27  O   UNL     1      -1.399  -8.895  -5.483  0.00  0.00    -0.169 OA
ATOM     28  O   UNL     1      -0.138  -6.968  -6.375  0.00  0.00    -0.169 OA
BRANCH  26  32
ATOM     29  C   UNL     1      -0.142 -10.317 -10.194  0.00  0.00    -0.045 A 
ATOM     30  C   UNL     1      -0.768 -10.952  -9.138  0.00  0.00    +0.006 A 
ATOM     31  C   UNL     1      -0.799 -10.355  -7.892  0.00  0.00    +0.027 A 
ATOM     32  C   UNL     1      -0.203  -9.122  -7.701  0.00  0.00    +0.089 A 
ATOM     33  C   UNL     1       0.418  -8.484  -8.758  0.00  0.00    +0.027 A 
ATOM     34  C   UNL     1       0.453  -9.084 -10.003  0.00  0.00    +0.006 A 
BRANCH  29  36
ATOM     35  C   UNL     1      -0.802 -10.062 -12.570  0.00  0.00    +0.012 C 
ATOM     36  C   UNL     1      -0.107 -10.968 -11.552  0.00  0.00    +0.013 C 
ATOM     37  C   UNL     1       1.346 -11.190 -11.975  0.00  0.00    +0.012 C 
ENDBRANCH  29  36
ENDBRANCH  26  32
ENDBRANCH  20  26
ENDBRANCH   1  20
TORSDOF 11
