REMARK  Name = ZINC38669595
REMARK  4 active torsions:
REMARK  status: ('A' for Active; 'I' for Inactive)
REMARK    1  A    between atoms: C_1  and  C_2
REMARK    2  A    between atoms: C_4  and  C_12
REMARK    3  A    between atoms: C_13  and  C_14
REMARK    4  A    between atoms: N_25  and  C_26
REMARK                            x       y       z     vdW  Elec       q    Type
REMARK                         _______ _______ _______ _____ _____    ______ ____
ROOT
ATOM      1  C   UNL     1       1.342  -0.386  -4.492  0.00  0.00    +0.190 C 
ATOM      2  N   UNL     1       0.807  -1.644  -5.025  0.00  0.00    -0.322 N 
ATOM      3  C   UNL     1       1.581  -2.376  -5.918  0.00  0.00    +0.041 A 
ATOM      4  C   UNL     1       1.474  -3.753  -6.017  0.00  0.00    +0.024 A 
ATOM      5  C   UNL     1       2.256  -4.436  -6.928  0.00  0.00    +0.002 A 
ATOM      6  C   UNL     1       3.146  -3.754  -7.743  0.00  0.00    +0.001 A 
ATOM      7  C   UNL     1       3.268  -2.383  -7.654  0.00  0.00    +0.015 A 
ATOM      8  C   UNL     1       2.488  -1.682  -6.737  0.00  0.00    +0.058 A 
ATOM      9  C   UNL     1       2.599  -0.220  -6.588  0.00  0.00    +0.254 C 
ATOM     10  O   UNL     1       3.247   0.430  -7.385  0.00  0.00    -0.270 OA
ATOM     11  N   UNL     1       1.977   0.385  -5.561  0.00  0.00    -0.245 N 
ATOM     12  H   UNL     1      -0.071  -1.959  -4.758  0.00  0.00    +0.148 HD
ENDROOT
BRANCH  11  13
ATOM     13  C   UNL     1       1.938   1.783  -5.516  0.00  0.00    +0.039 A 
ATOM     14  C   UNL     1       2.990   2.490  -4.950  0.00  0.00    +0.024 A 
ATOM     15  C   UNL     1       2.950   3.870  -4.907  0.00  0.00    +0.017 A 
ATOM     16  C   UNL     1       1.862   4.548  -5.428  0.00  0.00    +0.018 A 
ATOM     17  C   UNL     1       0.811   3.846  -5.993  0.00  0.00    +0.017 A 
ATOM     18  C   UNL     1       0.850   2.466  -6.043  0.00  0.00    +0.024 A 
ATOM     19 BR   UNL     1       1.809   6.437  -5.369  0.00  0.00    -0.050 Br
ENDBRANCH  11  13
BRANCH   1  21
ATOM     20  C   UNL     1       2.172  -0.248  -2.171  0.00  0.00    +0.005 C 
ATOM     21  C   UNL     1       2.361  -0.690  -3.424  0.00  0.00    +0.015 C 
BRANCH  20  24
ATOM     22  C   UNL     1       3.778  -2.954  -1.706  0.00  0.00    +0.035 C 
ATOM     23  C   UNL     1       4.247  -1.565  -1.267  0.00  0.00    +0.107 C 
ATOM     24  C   UNL     1       3.063  -0.630  -1.148  0.00  0.00    -0.017 C 
ATOM     25  C   UNL     1       3.038  -0.226   0.181  0.00  0.00    +0.003 A 
ATOM     26  C   UNL     1       2.179   0.637   0.901  0.00  0.00    +0.010 A 
ATOM     27  C   UNL     1       2.398   0.854   2.221  0.00  0.00    +0.001 A 
ATOM     28  C   UNL     1       3.458   0.244   2.900  0.00  0.00    +0.002 A 
ATOM     29  C   UNL     1       4.319  -0.594   2.276  0.00  0.00    +0.026 A 
ATOM     30  C   UNL     1       4.157  -0.872   0.892  0.00  0.00    +0.043 A 
ATOM     31  N   UNL     1       4.846  -1.634   0.069  0.00  0.00    -0.378 N 
ATOM     32  H   UNL     1       5.627  -2.158   0.308  0.00  0.00    +0.160 HD
ENDBRANCH  20  24
ENDBRANCH   1  21
TORSDOF 3
