REMARK  Name = ZINC62777441
REMARK  5 active torsions:
REMARK  status: ('A' for Active; 'I' for Inactive)
REMARK    1  A    between atoms: C_1  and  C_2
REMARK    2  A    between atoms: C_2  and  N_3
REMARK    3  A    between atoms: N_3  and  C_4
REMARK    4  A    between atoms: C_4  and  C_6
REMARK    5  A    between atoms: C_4  and  C_12
REMARK                            x       y       z     vdW  Elec       q    Type
REMARK                         _______ _______ _______ _____ _____    ______ ____
ROOT
ATOM      1  C   UNL     1      -2.766  -2.502  -0.109  0.00  0.00    -0.040 A 
ATOM      2  C   UNL     1      -3.830  -1.685   0.219  0.00  0.00    +0.031 A 
ATOM      3  C   UNL     1      -5.126  -2.164   0.115  0.00  0.00    +0.067 A 
ATOM      4  C   UNL     1      -5.352  -3.471  -0.321  0.00  0.00    +0.068 A 
ATOM      5  C   UNL     1      -4.279  -4.285  -0.648  0.00  0.00    +0.043 A 
ATOM      6  C   UNL     1      -2.989  -3.797  -0.547  0.00  0.00    +0.022 A 
ATOM      7 BR   UNL     1      -1.525  -4.904  -1.001  0.00  0.00    -0.050 Br
ATOM      8  N   UNL     1      -6.732  -3.662  -0.323  0.00  0.00    -0.306 N 
ATOM      9  H   UNL     1      -7.192  -4.477  -0.580  0.00  0.00    +0.170 HD
ATOM     10  C   UNL     1      -7.318  -2.524   0.093  0.00  0.00    +0.325 A 
ATOM     11  O   UNL     1      -8.518  -2.355   0.206  0.00  0.00    -0.247 OA
ATOM     12  N   UNL     1      -6.376  -1.601   0.365  0.00  0.00    -0.306 N 
ATOM     13  H   UNL     1      -6.540  -0.699   0.681  0.00  0.00    +0.170 HD
ENDROOT
BRANCH   1  14
ATOM     14  C   UNL     1      -1.356  -1.981   0.004  0.00  0.00    +0.012 C 
BRANCH  14  15
ATOM     15  C   UNL     1      -0.737  -2.482   1.284  0.00  0.00    +0.053 A 
ATOM     16  C   UNL     1      -0.097  -3.714   1.458  0.00  0.00    +0.042 A 
ATOM     17  C   UNL     1       0.321  -3.788   2.742  0.00  0.00    +0.105 A 
ATOM     18  N   UNL     1      -0.041  -2.644   3.360  0.00  0.00    -0.285 N 
ATOM     19  N   UNL     1      -0.699  -1.838   2.422  0.00  0.00    -0.180 NA
ATOM     20  H   UNL     1       0.127  -2.418   4.288  0.00  0.00    +0.188 HD
ENDBRANCH  14  15
BRANCH  14  21
ATOM     21  N   UNL     1      -1.376  -0.512   0.012  0.00  0.00    +0.387 N 
ATOM     22  H   UNL     1      -1.848  -0.187   0.843  0.00  0.00    -0.085 HD
ATOM     23  H   UNL     1      -1.864  -0.178  -0.805  0.00  0.00    -0.085 HD
BRANCH  21  25
ATOM     24  C   UNL     1      -0.019   1.526   0.010  0.00  0.00    -0.017 C 
ATOM     25  C   UNL     1       0.002  -0.004   0.002  0.00  0.00    -0.085 C 
ENDBRANCH  21  25
ENDBRANCH  14  21
ENDBRANCH   1  14
TORSDOF 4
