REMARK  Name = ZINC36013867
REMARK  10 active torsions:
REMARK  status: ('A' for Active; 'I' for Inactive)
REMARK    1  A    between atoms: C_1  and  C_2
REMARK    2  A    between atoms: C_2  and  N_3
REMARK    3  A    between atoms: C_4  and  C_23
REMARK    4  A    between atoms: C_5  and  C_18
REMARK    5  A    between atoms: C_6  and  C_11
REMARK    6  A    between atoms: C_18  and  O_20
REMARK    7  A    between atoms: O_20  and  C_21
REMARK    8  A    between atoms: C_21  and  C_22
REMARK    9  A    between atoms: C_23  and  N_24
REMARK   10  A    between atoms: C_31  and  C_33
REMARK                            x       y       z     vdW  Elec       q    Type
REMARK                         _______ _______ _______ _____ _____    ______ ____
ROOT
ATOM      1  N   UNL     1       1.005  -0.202   1.457  0.00  0.00    -0.261 N 
ATOM      2  C   UNL     1       2.192  -0.777   1.102  0.00  0.00    +0.010 C 
ATOM      3  C   UNL     1       2.894  -1.525   1.980  0.00  0.00    +0.076 C 
ATOM      4  C   UNL     1       2.321  -1.704   3.371  0.00  0.00    +0.143 C 
ATOM      5  N   UNL     1       1.036  -1.043   3.653  0.00  0.00    -0.288 N 
ATOM      6  C   UNL     1       0.456  -0.323   2.672  0.00  0.00    +0.307 C 
ATOM      7  O   UNL     1      -0.603   0.230   2.896  0.00  0.00    -0.252 OA
ATOM      8  H   UNL     1       0.618  -1.120   4.525  0.00  0.00    +0.151 HD
ENDROOT
BRANCH   4   9
ATOM      9  C   UNL     1       3.334  -1.190   4.361  0.00  0.00    -0.022 A 
ATOM     10  C   UNL     1       3.439   0.167   4.601  0.00  0.00    +0.007 A 
ATOM     11  C   UNL     1       4.368   0.639   5.509  0.00  0.00    +0.020 A 
ATOM     12  C   UNL     1       5.194  -0.247   6.177  0.00  0.00    +0.041 A 
ATOM     13  C   UNL     1       5.089  -1.605   5.937  0.00  0.00    +0.020 A 
ATOM     14  C   UNL     1       4.155  -2.077   5.033  0.00  0.00    +0.007 A 
ATOM     15 CL   UNL     1       6.361   0.345   7.317  0.00  0.00    -0.084 Cl
ENDBRANCH   4   9
BRANCH   1  17
ATOM     16  C   UNL     1       0.767   2.050   0.535  0.00  0.00    +0.025 C 
ATOM     17  C   UNL     1       0.297   0.597   0.454  0.00  0.00    +0.111 C 
ENDBRANCH   1  17
BRANCH   3  18
ATOM     18  C   UNL     1       4.123  -2.122   1.613  0.00  0.00    +0.339 C 
ATOM     19  O   UNL     1       4.610  -1.892   0.522  0.00  0.00    -0.245 OA
BRANCH  18  20
ATOM     20  O   UNL     1       4.756  -2.946   2.474  0.00  0.00    -0.462 OA
BRANCH  20  21
ATOM     21  C   UNL     1       5.993  -3.514   2.038  0.00  0.00    +0.229 C 
ATOM     22  C   UNL     1       6.558  -4.413   3.139  0.00  0.00    +0.048 C 
ENDBRANCH  20  21
ENDBRANCH  18  20
ENDBRANCH   3  18
BRANCH   2  23
ATOM     23  C   UNL     1       2.727  -0.574  -0.292  0.00  0.00    -0.026 C 
BRANCH  23  24
ATOM     24  N   UNL     1       2.433  -1.760  -1.107  0.00  0.00    +0.384 N 
ATOM     25  C   UNL     1       3.185  -1.659  -2.356  0.00  0.00    -0.077 C 
ATOM     26  C   UNL     1       3.503  -3.050  -2.861  0.00  0.00    +0.000 C 
ATOM     27  C   UNL     1       2.412  -3.498  -3.849  0.00  0.00    +0.106 C 
ATOM     28  N   UNL     1       1.073  -3.077  -3.389  0.00  0.00    -0.303 N 
ATOM     29  C   UNL     1       0.667  -3.167  -2.002  0.00  0.00    +0.089 C 
ATOM     30  C   UNL     1       1.032  -1.859  -1.262  0.00  0.00    -0.059 C 
ATOM     31  C   UNL     1       0.198  -2.592  -4.292  0.00  0.00    +0.219 C 
ATOM     32  O   UNL     1      -0.908  -2.241  -3.938  0.00  0.00    -0.275 OA
ATOM     33  H   UNL     1       2.756  -2.575  -0.608  0.00  0.00    -0.081 HD
BRANCH  31  34
ATOM     34  C   UNL     1       0.592  -2.487  -5.743  0.00  0.00    +0.075 C 
ATOM     35  C   UNL     1       1.402  -1.222  -6.071  0.00  0.00    +0.013 C 
ATOM     36  C   UNL     1       0.589  -1.134  -7.373  0.00  0.00    +0.001 C 
ATOM     37  C   UNL     1      -0.516  -1.916  -6.643  0.00  0.00    +0.013 C 
ENDBRANCH  31  34
ENDBRANCH  23  24
ENDBRANCH   2  23
TORSDOF 8
