REMARK  Name = ZINC49508601
REMARK  11 active torsions:
REMARK  status: ('A' for Active; 'I' for Inactive)
REMARK    1  A    between atoms: C_1  and  N_2
REMARK    2  A    between atoms: C_10  and  C_12
REMARK    3  A    between atoms: C_12  and  C_14
REMARK    4  A    between atoms: C_12  and  N_35
REMARK    5  A    between atoms: C_14  and  N_15
REMARK    6  A    between atoms: C_16  and  C_18
REMARK    7  A    between atoms: N_20  and  C_21
REMARK    8  A    between atoms: N_27  and  S_31
REMARK    9  A    between atoms: S_31  and  C_34
REMARK   10  A    between atoms: N_35  and  C_36
REMARK   11  A    between atoms: N_35  and  C_37
REMARK                            x       y       z     vdW  Elec       q    Type
REMARK                         _______ _______ _______ _____ _____    ______ ____
ROOT
ATOM      1  N   UNL     1       6.516  -4.454   1.175  0.00  0.00    -0.309 N 
ATOM      2  C   UNL     1       7.301  -3.881   2.109  0.00  0.00    +0.299 C 
ATOM      3  O   UNL     1       6.803  -3.239   3.010  0.00  0.00    -0.265 OA
ATOM      4  H   UNL     1       6.914  -4.967   0.455  0.00  0.00    +0.149 HD
ENDROOT
BRANCH   2   5
ATOM      5  C   UNL     1       8.784  -4.037   2.035  0.00  0.00    +0.303 C 
ATOM      6  O   UNL     1       9.283  -4.680   1.133  0.00  0.00    -0.265 OA
ATOM      7  N   UNL     1       9.570  -3.465   2.968  0.00  0.00    -0.278 N 
ATOM      8  H   UNL     1       9.170  -3.017   3.730  0.00  0.00    +0.155 HD
BRANCH   7   9
ATOM      9  C   UNL     1      10.960  -3.517   2.839  0.00  0.00    +0.036 A 
ATOM     10  C   UNL     1      11.546  -3.469   1.579  0.00  0.00    +0.024 A 
ATOM     11  C   UNL     1      12.919  -3.522   1.453  0.00  0.00    +0.007 A 
ATOM     12  C   UNL     1      13.724  -3.622   2.577  0.00  0.00    -0.025 A 
ATOM     13  C   UNL     1      13.143  -3.667   3.835  0.00  0.00    +0.056 A 
ATOM     14  C   UNL     1      11.761  -3.610   3.968  0.00  0.00    +0.048 A 
ATOM     15  N   UNL     1      13.933  -3.758   4.987  0.00  0.00    -0.207 N 
ATOM     16  C   UNL     1      15.353  -4.109   4.848  0.00  0.00    +0.131 C 
ATOM     17  C   UNL     1      15.929  -3.284   3.690  0.00  0.00    +0.025 C 
ATOM     18  C   UNL     1      15.218  -3.683   2.397  0.00  0.00    +0.038 C 
BRANCH  15  19
ATOM     19  S   UNL     1      13.278  -3.475   6.481  0.00  0.00    +0.043 S 
ATOM     20  O   UNL     1      14.394  -3.225   7.325  0.00  0.00    -0.155 OA
ATOM     21  O   UNL     1      12.296  -2.472   6.263  0.00  0.00    -0.155 OA
ATOM     22  C   UNL     1      12.482  -5.038   6.945  0.00  0.00    +0.218 C 
ENDBRANCH  15  19
ENDBRANCH   7   9
ENDBRANCH   2   5
BRANCH   1  23
ATOM     23  C   UNL     1       5.061  -4.301   1.248  0.00  0.00    +0.094 C 
BRANCH  23  24
ATOM     24  C   UNL     1       4.418  -4.936   0.013  0.00  0.00    -0.021 C 
BRANCH  24  34
ATOM     25  C   UNL     1       4.980 -11.364   0.993  0.00  0.00    +0.129 C 
ATOM     26  N   UNL     1       5.548 -10.495  -0.041  0.00  0.00    -0.333 N 
ATOM     27  C   UNL     1       6.402 -11.052  -1.098  0.00  0.00    +0.105 C 
ATOM     28  C   UNL     1       7.614 -10.125  -1.259  0.00  0.00    +0.024 C 
ATOM     29  C   UNL     1       7.127  -8.753  -1.725  0.00  0.00    +0.038 C 
ATOM     30  C   UNL     1       6.023  -8.254  -0.830  0.00  0.00    -0.026 A 
ATOM     31  C   UNL     1       5.280  -9.121  -0.042  0.00  0.00    +0.033 A 
ATOM     32  C   UNL     1       4.260  -8.630   0.766  0.00  0.00    +0.023 A 
ATOM     33  C   UNL     1       3.983  -7.278   0.782  0.00  0.00    +0.004 A 
ATOM     34  C   UNL     1       4.720  -6.413  -0.005  0.00  0.00    -0.059 A 
ATOM     35  C   UNL     1       5.743  -6.898  -0.803  0.00  0.00    +0.007 A 
ENDBRANCH  24  34
BRANCH  24  36
ATOM     36  N   UNL     1       2.964  -4.735   0.059  0.00  0.00    +0.382 N 
ATOM     37  C   UNL     1       2.666  -3.300  -0.040  0.00  0.00    -0.096 C 
ATOM     38  C   UNL     1       2.336  -5.444  -1.064  0.00  0.00    -0.096 C 
ATOM     39  H   UNL     1       2.602  -5.094   0.929  0.00  0.00    -0.082 HD
ENDBRANCH  24  36
ENDBRANCH  23  24
ENDBRANCH   1  23
TORSDOF 7
