REMARK  Name = ZINC01883727
REMARK  10 active torsions:
REMARK  status: ('A' for Active; 'I' for Inactive)
REMARK    1  A    between atoms: C_10  and  C_11
REMARK    2  A    between atoms: C_11  and  S_12
REMARK    3  A    between atoms: S_12  and  C_13
REMARK    4  A    between atoms: C_16  and  S_18
REMARK    5  A    between atoms: S_18  and  C_19
REMARK    6  A    between atoms: C_19  and  C_20
REMARK    7  A    between atoms: N_22  and  N_23
REMARK    8  A    between atoms: C_24  and  C_25
REMARK    9  A    between atoms: C_26  and  C_27
REMARK   10  A    between atoms: C_32  and  N_33
REMARK                            x       y       z     vdW  Elec       q    Type
REMARK                         _______ _______ _______ _____ _____    ______ ____
ROOT
ATOM      1  S   UNL     1       1.082  -1.468   6.735  0.00  0.00    -0.088 S 
ENDROOT
BRANCH   1   5
ATOM      2  C   UNL     1      -0.735  -0.405   2.831  0.00  0.00    +0.160 A 
ATOM      3  N   UNL     1       0.489  -0.895   2.787  0.00  0.00    -0.134 NA
ATOM      4  N   UNL     1       1.126  -1.251   3.953  0.00  0.00    -0.134 NA
ATOM      5  C   UNL     1       0.510  -1.101   5.110  0.00  0.00    +0.160 A 
ATOM      6  S   UNL     1      -1.056  -0.417   4.588  0.00  0.00    -0.033 S 
BRANCH   2   7
ATOM      7  S   UNL     1      -1.774   0.126   1.510  0.00  0.00    -0.092 S 
BRANCH   7   8
ATOM      8  C   UNL     1      -0.771  -0.152   0.025  0.00  0.00    +0.112 C 
BRANCH   8  18
ATOM      9  C   UNL     1      -1.325   4.177  -2.650  0.00  0.00    +0.001 A 
ATOM     10  C   UNL     1      -0.595   3.809  -1.521  0.00  0.00    +0.001 A 
ATOM     11  C   UNL     1      -0.655   2.540  -1.031  0.00  0.00    +0.009 A 
ATOM     12  C   UNL     1      -1.465   1.586  -1.670  0.00  0.00    -0.014 A 
ATOM     13  C   UNL     1      -2.207   1.961  -2.818  0.00  0.00    -0.018 A 
ATOM     14  C   UNL     1      -2.119   3.280  -3.295  0.00  0.00    +0.008 A 
ATOM     15  C   UNL     1      -3.015   1.006  -3.458  0.00  0.00    +0.008 A 
ATOM     16  C   UNL     1      -3.075  -0.262  -2.968  0.00  0.00    +0.001 A 
ATOM     17  C   UNL     1      -2.341  -0.633  -1.844  0.00  0.00    +0.005 A 
ATOM     18  C   UNL     1      -1.552   0.267  -1.194  0.00  0.00    -0.029 A 
ENDBRANCH   8  18
ENDBRANCH   7   8
ENDBRANCH   2   7
ENDBRANCH   1   5
BRANCH   1  19
ATOM     19  C   UNL     1       2.754  -2.121   6.475  0.00  0.00    +0.173 C 
BRANCH  19  20
ATOM     20  C   UNL     1       3.366  -2.480   7.805  0.00  0.00    +0.242 C 
ATOM     21  O   UNL     1       2.735  -2.312   8.828  0.00  0.00    -0.273 OA
ATOM     22  N   UNL     1       4.613  -2.987   7.858  0.00  0.00    -0.206 N 
ATOM     23  H   UNL     1       5.118  -3.121   7.040  0.00  0.00    +0.177 HD
BRANCH  22  24
ATOM     24  N   UNL     1       5.182  -3.321   9.094  0.00  0.00    -0.188 NA
ATOM     25  C   UNL     1       6.387  -3.811   9.145  0.00  0.00    +0.130 C 
BRANCH  25  26
ATOM     26  C   UNL     1       6.963  -4.149  10.396  0.00  0.00    +0.022 C 
ATOM     27  C   UNL     1       8.211  -4.656  10.450  0.00  0.00    +0.012 C 
BRANCH  27  28
ATOM     28  C   UNL     1       8.809  -5.007  11.748  0.00  0.00    +0.005 A 
ATOM     29  C   UNL     1       8.263  -4.502  12.933  0.00  0.00    +0.010 A 
ATOM     30  C   UNL     1       8.828  -4.835  14.145  0.00  0.00    +0.001 A 
ATOM     31  C   UNL     1       9.933  -5.667  14.193  0.00  0.00    +0.002 A 
ATOM     32  C   UNL     1      10.479  -6.171  13.025  0.00  0.00    +0.033 A 
ATOM     33  C   UNL     1       9.922  -5.851  11.805  0.00  0.00    +0.133 A 
BRANCH  33  34
ATOM     34  N   UNL     1      10.504  -6.397  10.557  0.00  0.00    +0.057 N 
ATOM     35  O   UNL     1      11.388  -7.232  10.613  0.00  0.00    -0.126 OA
ATOM     36  O   UNL     1      10.098  -6.010   9.476  0.00  0.00    -0.126 OA
ENDBRANCH  33  34
ENDBRANCH  27  28
ENDBRANCH  25  26
ENDBRANCH  22  24
ENDBRANCH  19  20
ENDBRANCH   1  19
TORSDOF 10
