REMARK  Name = ZINC01627394
REMARK  3 active torsions:
REMARK  status: ('A' for Active; 'I' for Inactive)
REMARK    1  A    between atoms: C_3  and  O_17
REMARK    2  A    between atoms: C_4  and  C_8
REMARK    3  A    between atoms: N_9  and  N_10
REMARK                            x       y       z     vdW  Elec       q    Type
REMARK                         _______ _______ _______ _____ _____    ______ ____
ROOT
ATOM      1  C   UNL     1       1.128   2.038  -0.677  0.00  0.00    +0.023 A 
ATOM      2  C   UNL     1       2.341   1.374  -0.706  0.00  0.00    +0.047 A 
ATOM      3  C   UNL     1       2.391   0.008  -0.490  0.00  0.00    +0.126 A 
ATOM      4  C   UNL     1       1.208  -0.701  -0.241  0.00  0.00    +0.037 A 
ATOM      5  C   UNL     1      -0.011  -0.021  -0.213  0.00  0.00    +0.033 A 
ATOM      6  C   UNL     1      -0.044   1.342  -0.431  0.00  0.00    +0.042 A 
ATOM      7 CL   UNL     1      -1.560   2.186  -0.404  0.00  0.00    -0.084 Cl
ENDROOT
BRANCH   4   8
ATOM      8  C   UNL     1       1.250  -2.156  -0.010  0.00  0.00    +0.141 C 
ATOM      9  N   UNL     1       2.385  -2.785  -0.036  0.00  0.00    -0.192 NA
BRANCH   9  10
ATOM     10  N   UNL     1       2.414  -4.182   0.061  0.00  0.00    -0.256 N 
ATOM     11  C   UNL     1       1.147  -4.952   0.075  0.00  0.00    +0.126 C 
ATOM     12  C   UNL     1       1.266  -6.219  -0.733  0.00  0.00    +0.020 C 
ATOM     13  C   UNL     1       1.756  -7.362   0.170  0.00  0.00    +0.002 C 
ATOM     14  C   UNL     1       3.205  -7.315   0.395  0.00  0.00    +0.002 C 
ATOM     15  C   UNL     1       3.644  -6.039   1.128  0.00  0.00    +0.020 C 
ATOM     16  C   UNL     1       3.712  -4.892   0.157  0.00  0.00    +0.126 C 
ENDBRANCH   9  10
ENDBRANCH   4   8
BRANCH   3  17
ATOM     17  O   UNL     1       3.583  -0.644  -0.519  0.00  0.00    -0.506 OA
ATOM     18  H   UNL     1       3.829  -0.974  -1.395  0.00  0.00    +0.292 HD
ENDBRANCH   3  17
TORSDOF 3
