REMARK  Name = ZINC21323512
REMARK  8 active torsions:
REMARK  status: ('A' for Active; 'I' for Inactive)
REMARK    1  A    between atoms: C_1  and  C_2
REMARK    2  A    between atoms: C_2  and  C_22
REMARK    3  A    between atoms: N_3  and  N_4
REMARK    4  A    between atoms: C_8  and  S_11
REMARK    5  A    between atoms: N_9  and  N_10
REMARK    6  A    between atoms: S_11  and  C_12
REMARK    7  A    between atoms: C_12  and  C_13
REMARK    8  A    between atoms: N_15  and  C_16
REMARK                            x       y       z     vdW  Elec       q    Type
REMARK                         _______ _______ _______ _____ _____    ______ ____
ROOT
ATOM      1  N   UNL     1       1.755  -1.722   0.003  0.00  0.00    -0.204 N 
ATOM      2  C   UNL     1       1.309  -0.409   0.010  0.00  0.00    +0.254 A 
ATOM      3  N   UNL     1       2.065   0.662   0.014  0.00  0.00    -0.109 NA
ATOM      4  N   UNL     1       1.226   1.784   0.022  0.00  0.00    -0.119 NA
ATOM      5  C   UNL     1      -0.016   1.362   0.022  0.00  0.00    +0.210 A 
ATOM      6  N   UNL     1       0.003  -0.004   0.015  0.00  0.00    -0.211 N 
ATOM      7  H   UNL     1       1.030  -2.550   0.001  0.00  0.00    +0.178 HD
ENDROOT
BRANCH   1  10
ATOM      8  C   UNL     1       2.554  -4.358  -0.011  0.00  0.00    +0.068 C 
ATOM      9  C   UNL     1       3.548  -3.225  -0.008  0.00  0.00    +0.063 C 
ATOM     10  N   UNL     1       3.130  -1.995  -0.001  0.00  0.00    -0.184 NA
BRANCH   9  11
ATOM     11  C   UNL     1       4.993  -3.512  -0.013  0.00  0.00    -0.002 A 
ATOM     12  C   UNL     1       5.441  -4.846  -0.020  0.00  0.00    +0.010 A 
ATOM     13  C   UNL     1       6.766  -5.135  -0.025  0.00  0.00    +0.009 A 
ATOM     14  C   UNL     1       7.714  -4.095  -0.023  0.00  0.00    -0.018 A 
ATOM     15  C   UNL     1       9.092  -4.370  -0.029  0.00  0.00    +0.008 A 
ATOM     16  C   UNL     1       9.985  -3.343  -0.028  0.00  0.00    +0.001 A 
ATOM     17  C   UNL     1       9.556  -2.018  -0.020  0.00  0.00    +0.001 A 
ATOM     18  C   UNL     1       8.230  -1.712  -0.014  0.00  0.00    +0.008 A 
ATOM     19  C   UNL     1       7.277  -2.746  -0.015  0.00  0.00    -0.017 A 
ATOM     20  C   UNL     1       5.902  -2.465  -0.016  0.00  0.00    +0.018 A 
ENDBRANCH   9  11
ENDBRANCH   1  10
BRANCH   6  21
ATOM     21  N   UNL     1      -1.091  -0.822   0.013  0.00  0.00    -0.294 N 
ATOM     22  H   UNL     1      -2.102  -0.388   0.017  0.00  0.00    +0.163 HD
ATOM     23  H   UNL     1      -0.962  -1.914   0.006  0.00  0.00    +0.163 HD
ENDBRANCH   6  21
BRANCH   5  24
ATOM     24  S   UNL     1      -1.455   2.378   0.024  0.00  0.00    -0.075 S 
BRANCH  24  25
ATOM     25  C   UNL     1      -0.799   4.069   0.035  0.00  0.00    +0.173 C 
BRANCH  25  26
ATOM     26  C   UNL     1      -1.942   5.051   0.037  0.00  0.00    +0.227 C 
ATOM     27  O   UNL     1      -3.086   4.650   0.033  0.00  0.00    -0.275 OA
ATOM     28  N   UNL     1      -1.692   6.376   0.045  0.00  0.00    -0.285 N 
ATOM     29  H   UNL     1      -0.657   6.740   0.126  0.00  0.00    +0.155 HD
BRANCH  28  30
ATOM     30  C   UNL     1      -2.749   7.288  -0.050  0.00  0.00    +0.033 A 
ATOM     31  C   UNL     1      -2.577   8.483  -0.736  0.00  0.00    +0.023 A 
ATOM     32  C   UNL     1      -3.624   9.378  -0.834  0.00  0.00    +0.002 A 
ATOM     33  C   UNL     1      -4.839   9.091  -0.239  0.00  0.00    +0.000 A 
ATOM     34  C   UNL     1      -5.011   7.904   0.449  0.00  0.00    +0.002 A 
ATOM     35  C   UNL     1      -3.970   7.002   0.545  0.00  0.00    +0.023 A 
ENDBRANCH  28  30
ENDBRANCH  25  26
ENDBRANCH  24  25
ENDBRANCH   5  24
TORSDOF 7
