REMARK  Name = ZINC24892503
REMARK  15 active torsions:
REMARK  status: ('A' for Active; 'I' for Inactive)
REMARK    1  A    between atoms: C_1  and  C_2
REMARK    2  A    between atoms: C_2  and  C_3
REMARK    3  A    between atoms: C_3  and  N_4
REMARK    4  A    between atoms: C_5  and  N_35
REMARK    5  A    between atoms: C_6  and  C_13
REMARK    6  A    between atoms: C_13  and  C_15
REMARK    7  A    between atoms: C_15  and  N_16
REMARK    8  A    between atoms: N_16  and  C_17
REMARK    9  A    between atoms: N_16  and  C_26
REMARK   10  A    between atoms: C_17  and  C_18
REMARK   11  A    between atoms: C_21  and  O_24
REMARK   12  A    between atoms: O_24  and  C_25
REMARK   13  A    between atoms: C_26  and  C_28
REMARK   14  A    between atoms: C_26  and  C_29
REMARK   15  A    between atoms: C_29  and  C_30
REMARK                            x       y       z     vdW  Elec       q    Type
REMARK                         _______ _______ _______ _____ _____    ______ ____
ROOT
ATOM      1  C   UNL     1       2.727  -5.872   0.450  0.00  0.00    +0.165 C 
ENDROOT
BRANCH   1   2
ATOM      2  C   UNL     1       1.759  -5.958   1.602  0.00  0.00    +0.185 C 
ATOM      3  O   UNL     1       2.097  -6.490   2.641  0.00  0.00    -0.290 OA
BRANCH   2   6
ATOM      4  N   UNL     1      -1.676  -4.876   2.389  0.00  0.00    -0.281 N 
ATOM      5  C   UNL     1      -0.430  -5.408   2.562  0.00  0.00    +0.116 A 
ATOM      6  C   UNL     1       0.461  -5.420   1.474  0.00  0.00    +0.121 A 
ATOM      7  C   UNL     1      -0.003  -4.854   0.201  0.00  0.00    +0.266 A 
ATOM      8  O   UNL     1       0.725  -4.839  -0.774  0.00  0.00    -0.267 OA
ATOM      9  N   UNL     1      -1.254  -4.353   0.134  0.00  0.00    -0.274 N 
ATOM     10  H   UNL     1      -1.574  -3.976  -0.700  0.00  0.00    +0.173 HD
ATOM     11  C   UNL     1      -2.062  -4.373   1.206  0.00  0.00    +0.331 A 
ATOM     12  O   UNL     1      -3.183  -3.916   1.103  0.00  0.00    -0.246 OA
BRANCH   5  13
ATOM     13  N   UNL     1      -0.056  -5.917   3.767  0.00  0.00    -0.344 N 
ATOM     14  H   UNL     1      -0.634  -5.810   4.539  0.00  0.00    +0.144 HD
ATOM     15  H   UNL     1       0.787  -6.388   3.854  0.00  0.00    +0.144 HD
ENDBRANCH   5  13
BRANCH   4  16
ATOM     16  C   UNL     1      -2.611  -4.859   3.517  0.00  0.00    +0.128 C 
BRANCH  16  18
ATOM     17  C   UNL     1      -4.408  -6.134   4.696  0.00  0.00    +0.005 C 
ATOM     18  C   UNL     1      -3.431  -6.151   3.519  0.00  0.00    +0.018 C 
ENDBRANCH  16  18
ENDBRANCH   4  16
ENDBRANCH   2   6
ENDBRANCH   1   2
BRANCH   1  19
ATOM     19  N   UNL     1       3.958  -6.599   0.790  0.00  0.00    -0.288 NA
BRANCH  19  20
ATOM     20  C   UNL     1       5.075  -6.168  -0.061  0.00  0.00    +0.059 C 
ATOM     21  C   UNL     1       4.673  -6.293  -1.532  0.00  0.00    +0.024 C 
BRANCH  20  22
ATOM     22  C   UNL     1       5.422  -4.711   0.251  0.00  0.00    +0.061 C 
BRANCH  22  23
ATOM     23  C   UNL     1       5.892  -4.601   1.679  0.00  0.00    -0.009 A 
ATOM     24  C   UNL     1       7.150  -4.702   2.173  0.00  0.00    +0.011 A 
ATOM     25  C   UNL     1       7.348  -4.565   3.534  0.00  0.00    +0.008 A 
ATOM     26  C   UNL     1       6.279  -4.333   4.334  0.00  0.00    +0.045 A 
ATOM     27  S   UNL     1       4.938  -4.297   3.156  0.00  0.00    -0.102 S 
ENDBRANCH  22  23
ENDBRANCH  20  22
ENDBRANCH  19  20
BRANCH  19  28
ATOM     28  C   UNL     1       3.755  -8.051   0.697  0.00  0.00    +0.120 C 
BRANCH  28  29
ATOM     29  C   UNL     1       4.947  -8.763   1.283  0.00  0.00    -0.033 A 
ATOM     30  C   UNL     1       6.021  -9.089   0.476  0.00  0.00    +0.008 A 
ATOM     31  C   UNL     1       7.114  -9.743   1.010  0.00  0.00    +0.046 A 
ATOM     32  C   UNL     1       7.134 -10.072   2.358  0.00  0.00    +0.120 A 
ATOM     33  C   UNL     1       6.055  -9.743   3.166  0.00  0.00    +0.046 A 
ATOM     34  C   UNL     1       4.966  -9.085   2.627  0.00  0.00    +0.008 A 
BRANCH  32  35
ATOM     35  O   UNL     1       8.209 -10.715   2.886  0.00  0.00    -0.495 OA
ATOM     36  C   UNL     1       8.160 -11.022   4.280  0.00  0.00    +0.277 C 
ENDBRANCH  32  35
ENDBRANCH  28  29
ENDBRANCH  19  28
ENDBRANCH   1  19
TORSDOF 12
