REMARK  Name = ZINC36485503
REMARK  18 active torsions:
REMARK  status: ('A' for Active; 'I' for Inactive)
REMARK    1  A    between atoms: C_1  and  C_2
REMARK    2  A    between atoms: C_2  and  C_3
REMARK    3  A    between atoms: C_2  and  C_4
REMARK    4  A    between atoms: C_2  and  C_5
REMARK    5  A    between atoms: C_5  and  C_6
REMARK    6  A    between atoms: C_6  and  C_7
REMARK    7  A    between atoms: C_6  and  C_8
REMARK    8  A    between atoms: C_6  and  N_9
REMARK    9  A    between atoms: C_10  and  C_12
REMARK   10  A    between atoms: C_12  and  C_14
REMARK   11  A    between atoms: C_12  and  N_23
REMARK   12  A    between atoms: C_15  and  O_22
REMARK   13  A    between atoms: C_17  and  O_21
REMARK   14  A    between atoms: C_19  and  O_20
REMARK   15  A    between atoms: N_23  and  C_24
REMARK   16  A    between atoms: C_31  and  C_33
REMARK   17  A    between atoms: C_33  and  C_34
REMARK   18  A    between atoms: C_34  and  S_35
REMARK                            x       y       z     vdW  Elec       q    Type
REMARK                         _______ _______ _______ _____ _____    ______ ____
ROOT
ATOM      1  C   UNL     1       5.444  -0.216  -4.523  0.00  0.00    +0.204 C 
ENDROOT
BRANCH   1   2
ATOM      2  C   UNL     1       5.170   0.333  -5.899  0.00  0.00    +0.065 A 
ATOM      3  C   UNL     1       5.942   1.370  -6.399  0.00  0.00    +0.129 A 
ATOM      4  C   UNL     1       5.690   1.875  -7.666  0.00  0.00    +0.091 A 
ATOM      5  C   UNL     1       4.664   1.343  -8.433  0.00  0.00    +0.124 A 
ATOM      6  C   UNL     1       3.892   0.305  -7.933  0.00  0.00    +0.091 A 
ATOM      7  C   UNL     1       4.147  -0.203  -6.668  0.00  0.00    +0.129 A 
BRANCH   7   8
ATOM      8  O   UNL     1       3.393  -1.223  -6.181  0.00  0.00    -0.506 OA
ATOM      9  H   UNL     1       2.609  -0.934  -5.694  0.00  0.00    +0.292 HD
ENDBRANCH   7   8
BRANCH   5  10
ATOM     10  O   UNL     1       4.416   1.839  -9.673  0.00  0.00    -0.507 OA
ATOM     11  H   UNL     1       4.907   1.396 -10.379  0.00  0.00    +0.292 HD
ENDBRANCH   5  10
BRANCH   3  12
ATOM     12  O   UNL     1       6.947   1.892  -5.648  0.00  0.00    -0.506 OA
ATOM     13  H   UNL     1       7.817   1.514  -5.838  0.00  0.00    +0.292 HD
ENDBRANCH   3  12
ENDBRANCH   1   2
BRANCH   1  15
ATOM     14  N   UNL     1       3.808   1.075  -3.190  0.00  0.00    -0.308 N 
ATOM     15  C   UNL     1       5.098   0.825  -3.489  0.00  0.00    +0.239 C 
ATOM     16  O   UNL     1       5.981   1.437  -2.926  0.00  0.00    -0.273 OA
ATOM     17  H   UNL     1       3.102   0.585  -3.640  0.00  0.00    +0.149 HD
BRANCH  14  18
ATOM     18  C   UNL     1       3.472   2.086  -2.185  0.00  0.00    +0.030 C 
ATOM     19  C   UNL     1       4.179   3.400  -2.527  0.00  0.00    +0.031 C 
ATOM     20  C   UNL     1       3.929   1.606  -0.806  0.00  0.00    +0.031 C 
BRANCH  18  21
ATOM     21  C   UNL     1       1.959   2.309  -2.172  0.00  0.00    +0.031 C 
BRANCH  21  23
ATOM     22  C   UNL     1       1.296   0.978  -4.180  0.00  0.00    +0.010 C 
ATOM     23  C   UNL     1       1.443   2.391  -3.610  0.00  0.00    -0.036 C 
ATOM     24  C   UNL     1       2.435   3.184  -4.464  0.00  0.00    +0.010 C 
ATOM     25  C   UNL     1       0.083   3.091  -3.626  0.00  0.00    +0.010 C 
ENDBRANCH  21  23
ENDBRANCH  18  21
ENDBRANCH  14  18
ENDBRANCH   1  15
BRANCH   1  26
ATOM     26  N   UNL     1       6.863  -0.564  -4.410  0.00  0.00    -0.255 N 
ATOM     27  C   UNL     1       7.478  -1.218  -5.415  0.00  0.00    +0.221 C 
ATOM     28  O   UNL     1       6.878  -1.453  -6.443  0.00  0.00    -0.275 OA
BRANCH  26  29
ATOM     29  C   UNL     1       7.579  -0.217  -3.259  0.00  0.00    +0.039 A 
ATOM     30  C   UNL     1       7.301  -0.845  -2.051  0.00  0.00    +0.023 A 
ATOM     31  C   UNL     1       8.009  -0.500  -0.917  0.00  0.00    +0.003 A 
ATOM     32  C   UNL     1       8.994   0.468  -0.982  0.00  0.00    +0.020 A 
ATOM     33  C   UNL     1       9.273   1.096  -2.183  0.00  0.00    +0.043 A 
ATOM     34  C   UNL     1       8.572   0.751  -3.323  0.00  0.00    +0.043 A 
ATOM     35 CL   UNL     1      10.510   2.312  -2.260  0.00  0.00    -0.083 Cl
ENDBRANCH  26  29
BRANCH  27  36
ATOM     36  C   UNL     1       8.911  -1.658  -5.262  0.00  0.00    +0.107 C 
BRANCH  36  37
ATOM     37  C   UNL     1       9.324  -2.485  -6.481  0.00  0.00    +0.075 C 
BRANCH  37  38
ATOM     38  S   UNL     1      11.049  -3.015  -6.296  0.00  0.00    -0.178 S 
ATOM     39  H   UNL     1      11.293  -3.724  -7.413  0.00  0.00    +0.102 HD
ENDBRANCH  37  38
ENDBRANCH  36  37
ENDBRANCH  27  36
ENDBRANCH   1  26
TORSDOF 13
