REMARK  Name = ZINC01807288
REMARK  7 active torsions:
REMARK  status: ('A' for Active; 'I' for Inactive)
REMARK    1  A    between atoms: C_1  and  O_2
REMARK    2  A    between atoms: O_2  and  C_3
REMARK    3  A    between atoms: N_13  and  C_16
REMARK    4  A    between atoms: C_16  and  C_17
REMARK    5  A    between atoms: C_27  and  C_29
REMARK    6  A    between atoms: C_34  and  O_35
REMARK    7  A    between atoms: O_35  and  C_36
REMARK                            x       y       z     vdW  Elec       q    Type
REMARK                         _______ _______ _______ _____ _____    ______ ____
ROOT
ATOM      1  C   UNL     1      -1.201  -0.638   0.010  0.00  0.00    +0.162 A 
ATOM      2  C   UNL     1      -2.373   0.101   0.019  0.00  0.00    +0.049 A 
ATOM      3  C   UNL     1      -3.602  -0.533   0.026  0.00  0.00    +0.004 A 
ATOM      4  C   UNL     1      -3.665  -1.917   0.015  0.00  0.00    +0.009 A 
ATOM      5  C   UNL     1      -2.507  -2.650   0.001  0.00  0.00    +0.021 A 
ATOM      6  C   UNL     1      -1.255  -2.027   0.003  0.00  0.00    +0.170 A 
ATOM      7  O   UNL     1      -0.121  -2.770   0.030  0.00  0.00    -0.466 OA
ATOM      8  C   UNL     1      -0.099  -4.108  -0.487  0.00  0.00    +0.177 C 
ATOM      9  C   UNL     1       0.991  -4.201  -1.562  0.00  0.00    +0.048 C 
ATOM     10  C   UNL     1       2.347  -3.876  -0.933  0.00  0.00    -0.073 C 
ATOM     11  N   UNL     1       2.638  -4.837   0.138  0.00  0.00    +0.383 N 
ATOM     12  C   UNL     1       1.636  -4.713   1.204  0.00  0.00    -0.073 C 
ATOM     13  C   UNL     1       0.253  -5.070   0.654  0.00  0.00    +0.048 C 
ATOM     14  N   UNL     1      -1.388  -4.434  -1.044  0.00  0.00    -0.177 NA
ATOM     15  C   UNL     1      -2.466  -4.149  -0.036  0.00  0.00    +0.138 C 
ATOM     16  C   UNL     1      -3.643  -4.815  -0.694  0.00  0.00    +0.023 C 
ATOM     17  C   UNL     1      -3.112  -5.702  -1.559  0.00  0.00    +0.050 C 
ATOM     18  N   UNL     1      -1.709  -5.653  -1.509  0.00  0.00    -0.273 N 
ATOM     19  H   UNL     1      -1.094  -6.363  -1.751  0.00  0.00    +0.167 HD
ATOM     20  H   UNL     1       2.615  -5.773  -0.236  0.00  0.00    -0.081 HD
ENDROOT
BRANCH  17  21
ATOM     21  C   UNL     1      -3.893  -6.589  -2.452  0.00  0.00    +0.039 A 
ATOM     22  C   UNL     1      -3.237  -7.474  -3.306  0.00  0.00    +0.013 A 
ATOM     23  C   UNL     1      -3.969  -8.299  -4.136  0.00  0.00    +0.001 A 
ATOM     24  C   UNL     1      -5.352  -8.250  -4.124  0.00  0.00    +0.004 A 
ATOM     25  C   UNL     1      -6.012  -7.376  -3.281  0.00  0.00    +0.046 A 
ATOM     26  C   UNL     1      -5.291  -6.546  -2.438  0.00  0.00    +0.136 A 
BRANCH  26  27
ATOM     27  O   UNL     1      -5.939  -5.691  -1.605  0.00  0.00    -0.434 OA
BRANCH  27  28
ATOM     28  C   UNL     1      -7.367  -5.703  -1.646  0.00  0.00    +0.541 C 
ATOM     29  F   UNL     1      -7.800  -5.372  -2.934  0.00  0.00    -0.166 F 
ATOM     30  F   UNL     1      -7.832  -6.979  -1.310  0.00  0.00    -0.166 F 
ENDBRANCH  27  28
ENDBRANCH  26  27
ENDBRANCH  17  21
BRANCH   1  32
ATOM     31  C   UNL     1      -0.017   1.425   0.010  0.00  0.00    +0.277 C 
ATOM     32  O   UNL     1       0.002  -0.004   0.002  0.00  0.00    -0.491 OA
ENDBRANCH   1  32
BRANCH  11  33
ATOM     33  C   UNL     1       3.972  -4.565   0.689  0.00  0.00    -0.043 C 
BRANCH  33  34
ATOM     34  C   UNL     1       4.322  -5.624   1.702  0.00  0.00    -0.064 A 
ATOM     35  C   UNL     1       3.986  -5.447   3.031  0.00  0.00    +0.002 A 
ATOM     36  C   UNL     1       4.307  -6.418   3.961  0.00  0.00    +0.000 A 
ATOM     37  C   UNL     1       4.964  -7.567   3.561  0.00  0.00    +0.000 A 
ATOM     38  C   UNL     1       5.300  -7.744   2.232  0.00  0.00    +0.000 A 
ATOM     39  C   UNL     1       4.975  -6.775   1.302  0.00  0.00    +0.002 A 
ENDBRANCH  33  34
ENDBRANCH  11  33
TORSDOF 6
