REMARK  Name = ZINC40679715
REMARK  9 active torsions:
REMARK  status: ('A' for Active; 'I' for Inactive)
REMARK    1  A    between atoms: C_1  and  C_2
REMARK    2  A    between atoms: C_2  and  N_3
REMARK    3  A    between atoms: N_3  and  C_4
REMARK    4  A    between atoms: C_11  and  N_28
REMARK    5  A    between atoms: C_12  and  N_16
REMARK    6  A    between atoms: N_16  and  N_17
REMARK    7  A    between atoms: N_17  and  S_18
REMARK    8  A    between atoms: S_18  and  C_21
REMARK    9  A    between atoms: C_24  and  C_27
REMARK                            x       y       z     vdW  Elec       q    Type
REMARK                         _______ _______ _______ _____ _____    ______ ____
ROOT
ATOM      1  N   UNL     1       0.665  -0.466  -1.198  0.00  0.00    -0.284 N 
ATOM      2  C   UNL     1      -0.059  -0.726  -2.356  0.00  0.00    +0.151 A 
ATOM      3  C   UNL     1       0.567  -1.272  -3.478  0.00  0.00    +0.107 A 
ATOM      4  C   UNL     1      -0.207  -1.512  -4.614  0.00  0.00    +0.159 A 
ATOM      5  N   UNL     1      -1.504  -1.214  -4.585  0.00  0.00    -0.218 NA
ATOM      6  C   UNL     1      -2.057  -0.700  -3.505  0.00  0.00    +0.225 A 
ATOM      7  N   UNL     1      -1.363  -0.462  -2.410  0.00  0.00    -0.218 NA
ENDROOT
BRANCH   1   8
ATOM      8  C   UNL     1       1.189   0.810  -0.973  0.00  0.00    +0.035 A 
ATOM      9  C   UNL     1       1.820   1.101   0.230  0.00  0.00    +0.023 A 
ATOM     10  C   UNL     1       2.337   2.362   0.450  0.00  0.00    +0.002 A 
ATOM     11  C   UNL     1       2.225   3.336  -0.526  0.00  0.00    +0.000 A 
ATOM     12  C   UNL     1       1.597   3.050  -1.725  0.00  0.00    +0.002 A 
ATOM     13  C   UNL     1       1.084   1.789  -1.953  0.00  0.00    +0.023 A 
ENDBRANCH   1   8
BRANCH   3  14
ATOM     14  N   UNL     1       1.939  -1.570  -3.464  0.00  0.00    -0.353 N 
ATOM     15  H   UNL     1       2.450  -1.466  -2.645  0.00  0.00    +0.143 HD
ATOM     16  H   UNL     1       2.377  -1.880  -4.272  0.00  0.00    +0.143 HD
ENDBRANCH   3  14
BRANCH   1  18
ATOM     17  C   UNL     1      -0.260  -1.522   0.804  0.00  0.00    +0.025 C 
ATOM     18  C   UNL     1       0.881  -1.531  -0.215  0.00  0.00    +0.109 C 
ENDBRANCH   1  18
BRANCH   4  19
ATOM     19  N   UNL     1       0.367  -2.054  -5.758  0.00  0.00    -0.244 N 
ATOM     20  H   UNL     1       1.313  -2.268  -5.771  0.00  0.00    +0.169 HD
BRANCH  19  21
ATOM     21  N   UNL     1      -0.420  -2.291  -6.892  0.00  0.00    -0.109 NA
ATOM     22  H   UNL     1      -1.220  -2.836  -6.822  0.00  0.00    +0.172 HD
BRANCH  21  23
ATOM     23  S   UNL     1       0.013  -1.639  -8.352  0.00  0.00    +0.074 S 
ATOM     24  O   UNL     1      -0.885  -2.171  -9.316  0.00  0.00    -0.152 OA
ATOM     25  O   UNL     1       0.168  -0.242  -8.143  0.00  0.00    -0.152 OA
BRANCH  23  26
ATOM     26  C   UNL     1       1.609  -2.270  -8.750  0.00  0.00    +0.107 A 
ATOM     27  C   UNL     1       2.742  -1.593  -8.338  0.00  0.00    +0.029 A 
ATOM     28  C   UNL     1       3.995  -2.087  -8.650  0.00  0.00    +0.005 A 
ATOM     29  C   UNL     1       4.114  -3.259  -9.374  0.00  0.00    -0.050 A 
ATOM     30  C   UNL     1       2.982  -3.936  -9.786  0.00  0.00    +0.005 A 
ATOM     31  C   UNL     1       1.729  -3.443  -9.470  0.00  0.00    +0.029 A 
ATOM     32  C   UNL     1       5.480  -3.797  -9.716  0.00  0.00    +0.044 C 
ENDBRANCH  23  26
ENDBRANCH  21  23
ENDBRANCH  19  21
ENDBRANCH   4  19
TORSDOF 7
