REMARK  Name = ZINC01474353
REMARK  11 active torsions:
REMARK  status: ('A' for Active; 'I' for Inactive)
REMARK    1  A    between atoms: C_1  and  C_2
REMARK    2  A    between atoms: C_2  and  N_3
REMARK    3  A    between atoms: C_4  and  C_23
REMARK    4  A    between atoms: C_7  and  S_8
REMARK    5  A    between atoms: S_8  and  C_9
REMARK    6  A    between atoms: C_9  and  C_10
REMARK    7  A    between atoms: N_12  and  N_13
REMARK    8  A    between atoms: C_14  and  C_15
REMARK    9  A    between atoms: C_18  and  O_22
REMARK   10  A    between atoms: C_20  and  O_21
REMARK   11  A    between atoms: C_26  and  C_29
REMARK                            x       y       z     vdW  Elec       q    Type
REMARK                         _______ _______ _______ _____ _____    ______ ____
ROOT
ATOM      1  C   UNL     1      -3.768   6.325  -0.436  0.00  0.00    +0.174 C 
ENDROOT
BRANCH   1   2
ATOM      2  C   UNL     1      -2.429   5.646  -0.571  0.00  0.00    +0.242 C 
ATOM      3  O   UNL     1      -1.408   6.290  -0.446  0.00  0.00    -0.273 OA
ATOM      4  N   UNL     1      -2.366   4.325  -0.829  0.00  0.00    -0.206 N 
ATOM      5  H   UNL     1      -3.183   3.811  -0.929  0.00  0.00    +0.177 HD
BRANCH   4   6
ATOM      6  N   UNL     1      -1.121   3.695  -0.954  0.00  0.00    -0.188 NA
ATOM      7  C   UNL     1      -1.060   2.422  -1.204  0.00  0.00    +0.142 C 
BRANCH   7   8
ATOM      8  C   UNL     1       0.248   1.759  -1.335  0.00  0.00    +0.036 A 
ATOM      9  C   UNL     1       0.317   0.389  -1.603  0.00  0.00    +0.016 A 
ATOM     10  C   UNL     1       1.543  -0.226  -1.731  0.00  0.00    +0.046 A 
ATOM     11  C   UNL     1       2.713   0.511  -1.594  0.00  0.00    +0.120 A 
ATOM     12  C   UNL     1       2.656   1.871  -1.328  0.00  0.00    +0.091 A 
ATOM     13  C   UNL     1       1.430   2.501  -1.197  0.00  0.00    +0.129 A 
BRANCH  13  14
ATOM     14  O   UNL     1       1.372   3.832  -0.936  0.00  0.00    -0.506 OA
ATOM     15  H   UNL     1       1.361   4.048   0.006  0.00  0.00    +0.292 HD
ENDBRANCH  13  14
BRANCH  11  16
ATOM     16  O   UNL     1       3.918  -0.103  -1.722  0.00  0.00    -0.507 OA
ATOM     17  H   UNL     1       4.262  -0.111  -2.626  0.00  0.00    +0.292 HD
ENDBRANCH  11  16
ENDBRANCH   7   8
ENDBRANCH   4   6
ENDBRANCH   1   2
BRANCH   1  18
ATOM     18  S   UNL     1      -3.521   8.084  -0.092  0.00  0.00    -0.077 S 
BRANCH  18  23
ATOM     19  N   UNL     1      -5.633   9.883   0.268  0.00  0.00    -0.302 N 
ATOM     20  C   UNL     1      -7.007   9.816   0.251  0.00  0.00    +0.165 A 
ATOM     21  N   UNL     1      -7.329   8.567   0.007  0.00  0.00    -0.128 NA
ATOM     22  N   UNL     1      -6.265   7.859  -0.133  0.00  0.00    -0.122 NA
ATOM     23  C   UNL     1      -5.199   8.614   0.014  0.00  0.00    +0.192 A 
BRANCH  20  24
ATOM     24  C   UNL     1      -7.944  10.938   0.471  0.00  0.00    +0.019 A 
ATOM     25  C   UNL     1      -9.272  10.684   0.818  0.00  0.00    +0.012 A 
ATOM     26  C   UNL     1     -10.140  11.736   1.027  0.00  0.00    +0.004 A 
ATOM     27  C   UNL     1      -9.700  13.039   0.884  0.00  0.00    -0.050 A 
ATOM     28  C   UNL     1      -8.386  13.298   0.535  0.00  0.00    +0.004 A 
ATOM     29  C   UNL     1      -7.506  12.256   0.328  0.00  0.00    +0.012 A 
ATOM     30  C   UNL     1     -10.655  14.183   1.109  0.00  0.00    +0.044 C 
ENDBRANCH  20  24
BRANCH  19  32
ATOM     31  C   UNL     1      -4.442  11.715  -0.831  0.00  0.00    +0.027 C 
ATOM     32  C   UNL     1      -4.807  11.070   0.507  0.00  0.00    +0.122 C 
ENDBRANCH  19  32
ENDBRANCH  18  23
ENDBRANCH   1  18
TORSDOF 9
