REMARK  Name = ZINC04371744
REMARK  7 active torsions:
REMARK  status: ('A' for Active; 'I' for Inactive)
REMARK    1  A    between atoms: C_1  and  C_2
REMARK    2  A    between atoms: C_4  and  N_11
REMARK    3  A    between atoms: C_6  and  C_9
REMARK    4  A    between atoms: C_7  and  O_8
REMARK    5  A    between atoms: N_11  and  S_12
REMARK    6  A    between atoms: S_12  and  C_15
REMARK    7  A    between atoms: C_19  and  N_21
REMARK                            x       y       z     vdW  Elec       q    Type
REMARK                         _______ _______ _______ _____ _____    ______ ____
ROOT
ATOM      1  N   UNL     1      -0.096   6.100  -1.547  0.00  0.00    -0.215 N 
ATOM      2  H   UNL     1       0.651   6.605  -1.904  0.00  0.00    +0.174 HD
ENDROOT
BRANCH   1   6
ATOM      3  C   UNL     1      -4.901   5.298  -2.210  0.00  0.00    +0.047 C 
ATOM      4  C   UNL     1      -3.488   5.321  -2.734  0.00  0.00    -0.007 A 
ATOM      5  C   UNL     1      -2.449   5.692  -1.903  0.00  0.00    +0.032 A 
ATOM      6  C   UNL     1      -1.148   5.719  -2.387  0.00  0.00    +0.063 A 
ATOM      7  C   UNL     1      -0.891   5.361  -3.705  0.00  0.00    +0.047 A 
ATOM      8  C   UNL     1      -1.931   4.985  -4.533  0.00  0.00    +0.007 A 
ATOM      9  C   UNL     1      -3.231   4.964  -4.049  0.00  0.00    +0.124 A 
ATOM     10  C   UNL     1      -1.653   4.597  -5.963  0.00  0.00    +0.049 C 
ATOM     11 BR   UNL     1       0.881   5.390  -4.364  0.00  0.00    -0.048 Br
BRANCH   9  12
ATOM     12  O   UNL     1      -4.254   4.594  -4.865  0.00  0.00    -0.506 OA
ATOM     13  H   UNL     1      -4.444   3.646  -4.853  0.00  0.00    +0.292 HD
ENDBRANCH   9  12
ENDBRANCH   1   6
BRANCH   1  14
ATOM     14  S   UNL     1      -0.126   5.689   0.057  0.00  0.00    +0.072 S 
ATOM     15  O   UNL     1      -1.369   6.149   0.571  0.00  0.00    -0.150 OA
ATOM     16  O   UNL     1       1.121   6.095   0.604  0.00  0.00    -0.150 OA
BRANCH  14  17
ATOM     17  C   UNL     1      -0.165   3.930   0.143  0.00  0.00    +0.111 A 
ATOM     18  C   UNL     1       1.016   3.213   0.193  0.00  0.00    +0.029 A 
ATOM     19  C   UNL     1       0.986   1.833   0.261  0.00  0.00    +0.004 A 
ATOM     20  C   UNL     1      -0.227   1.169   0.279  0.00  0.00    +0.033 A 
ATOM     21  C   UNL     1      -1.408   1.885   0.224  0.00  0.00    +0.128 A 
ATOM     22  C   UNL     1      -1.377   3.265   0.161  0.00  0.00    +0.061 A 
BRANCH  21  23
ATOM     23  N   UNL     1      -2.705   1.173   0.237  0.00  0.00    +0.056 N 
ATOM     24  O   UNL     1      -2.733  -0.043   0.296  0.00  0.00    -0.126 OA
ATOM     25  O   UNL     1      -3.746   1.804   0.188  0.00  0.00    -0.126 OA
ENDBRANCH  21  23
ENDBRANCH  14  17
ENDBRANCH   1  14
TORSDOF 5
