REMARK  Name = ZINC38577765
REMARK  11 active torsions:
REMARK  status: ('A' for Active; 'I' for Inactive)
REMARK    1  A    between atoms: C_1  and  C_2
REMARK    2  A    between atoms: C_2  and  C_3
REMARK    3  A    between atoms: C_3  and  C_4
REMARK    4  A    between atoms: C_6  and  C_18
REMARK    5  A    between atoms: C_8  and  C_16
REMARK    6  A    between atoms: C_9  and  N_15
REMARK    7  A    between atoms: C_21  and  O_32
REMARK    8  A    between atoms: C_22  and  C_24
REMARK    9  A    between atoms: C_24  and  S_25
REMARK   10  A    between atoms: S_25  and  C_26
REMARK   11  A    between atoms: O_32  and  C_33
REMARK                            x       y       z     vdW  Elec       q    Type
REMARK                         _______ _______ _______ _____ _____    ______ ____
ROOT
ATOM      1  C   UNL     1      -1.766  -1.901   0.137  0.00  0.00    +0.069 C 
ATOM      2  C   UNL     1      -1.763  -2.627   1.228  0.00  0.00    +0.030 C 
ATOM      3  C   UNL     1      -1.658  -2.297   2.692  0.00  0.00    +0.098 C 
ATOM      4  C   UNL     1      -0.716  -3.334   3.276  0.00  0.00    +0.097 C 
ATOM      5  C   UNL     1      -0.301  -4.399   2.559  0.00  0.00    +0.195 C 
ATOM      6  O   UNL     1      -0.615  -4.679   1.281  0.00  0.00    -0.448 OA
ATOM      7  C   UNL     1      -1.795  -4.077   0.744  0.00  0.00    +0.343 C 
ATOM      8  N   UNL     1      -1.720  -3.913  -0.712  0.00  0.00    -0.138 NA
ATOM      9  N   UNL     1      -1.737  -2.700  -0.960  0.00  0.00    -0.155 NA
ENDROOT
BRANCH   3  10
ATOM     10  C   UNL     1      -1.091  -0.913   2.875  0.00  0.00    -0.034 A 
ATOM     11  C   UNL     1       0.188  -0.627   2.434  0.00  0.00    +0.008 A 
ATOM     12  C   UNL     1       0.710   0.641   2.600  0.00  0.00    +0.046 A 
ATOM     13  C   UNL     1      -0.050   1.629   3.210  0.00  0.00    +0.124 A 
ATOM     14  C   UNL     1      -1.333   1.339   3.651  0.00  0.00    +0.005 A 
ATOM     15  C   UNL     1      -1.852   0.071   3.478  0.00  0.00    +0.012 A 
BRANCH  13  16
ATOM     16  O   UNL     1       0.462   2.877   3.376  0.00  0.00    -0.495 OA
ATOM     17  C   UNL     1       1.789   3.102   2.897  0.00  0.00    +0.277 C 
ENDBRANCH  13  16
BRANCH  14  18
ATOM     18  C   UNL     1      -2.161   2.410   4.315  0.00  0.00    +0.114 C 
BRANCH  18  19
ATOM     19  S   UNL     1      -3.121   3.297   3.057  0.00  0.00    -0.101 S 
BRANCH  19  20
ATOM     20  C   UNL     1      -4.023   4.498   3.979  0.00  0.00    +0.097 A 
ATOM     21  C   UNL     1      -4.886   5.369   3.319  0.00  0.00    +0.035 A 
ATOM     22  C   UNL     1      -5.588   6.306   4.054  0.00  0.00    +0.004 A 
ATOM     23  C   UNL     1      -5.404   6.341   5.431  0.00  0.00    +0.020 A 
ATOM     24  C   UNL     1      -4.532   5.448   6.020  0.00  0.00    +0.112 A 
ATOM     25  N   UNL     1      -3.879   4.560   5.294  0.00  0.00    -0.249 NA
ENDBRANCH  19  20
ENDBRANCH  18  19
ENDBRANCH  14  18
ENDBRANCH   3  10
BRANCH   5  26
ATOM     26  N   UNL     1       0.525  -5.288   3.199  0.00  0.00    -0.329 N 
ATOM     27  H   UNL     1       0.783  -5.133   4.121  0.00  0.00    +0.145 HD
ATOM     28  H   UNL     1       0.852  -6.071   2.729  0.00  0.00    +0.145 HD
ENDBRANCH   5  26
BRANCH   4  29
ATOM     29  C   UNL     1      -0.255  -3.178   4.623  0.00  0.00    +0.101 C 
ATOM     30  N   UNL     1       0.111  -3.054   5.691  0.00  0.00    -0.191 NA
ENDBRANCH   4  29
BRANCH   1  31
ATOM     31  C   UNL     1      -1.802  -0.395   0.104  0.00  0.00    +0.057 C 
BRANCH  31  33
ATOM     32  C   UNL     1      -3.256   1.597  -0.297  0.00  0.00    +0.004 C 
ATOM     33  C   UNL     1      -3.239   0.076  -0.131  0.00  0.00    +0.003 C 
ENDBRANCH  31  33
ENDBRANCH   1  31
TORSDOF 9
