REMARK  Name = ZINC03623113
REMARK  5 active torsions:
REMARK  status: ('A' for Active; 'I' for Inactive)
REMARK    1  A    between atoms: C_4  and  C_7
REMARK    2  A    between atoms: C_7  and  C_8
REMARK    3  A    between atoms: N_10  and  C_11
REMARK    4  A    between atoms: C_11  and  C_30
REMARK    5  A    between atoms: N_19  and  C_24
REMARK                            x       y       z     vdW  Elec       q    Type
REMARK                         _______ _______ _______ _____ _____    ______ ____
ROOT
ATOM      1  C   UNL     1      -2.381   1.098   0.086  0.00  0.00    +0.240 C 
ATOM      2  C   UNL     1      -3.643   1.928   0.098  0.00  0.00    +0.097 A 
ATOM      3  C   UNL     1      -4.195   2.845  -0.805  0.00  0.00    +0.262 A 
ATOM      4  O   UNL     1      -3.622   3.101  -1.850  0.00  0.00    -0.267 OA
ATOM      5  N   UNL     1      -5.369   3.441  -0.507  0.00  0.00    -0.274 N 
ATOM      6  H   UNL     1      -5.771   4.097  -1.145  0.00  0.00    +0.173 HD
ATOM      7  C   UNL     1      -5.998   3.155   0.648  0.00  0.00    +0.335 A 
ATOM      8  O   UNL     1      -7.054   3.701   0.900  0.00  0.00    -0.246 OA
ATOM      9  N   UNL     1      -5.484   2.278   1.527  0.00  0.00    -0.249 N 
ATOM     10  C   UNL     1      -4.286   1.643   1.266  0.00  0.00    +0.125 A 
ATOM     11  N   UNL     1      -3.580   0.724   2.004  0.00  0.00    -0.269 N 
ATOM     12  C   UNL     1      -2.440   0.337   1.396  0.00  0.00    +0.256 C 
ATOM     13  O   UNL     1      -1.626  -0.459   1.811  0.00  0.00    -0.272 OA
ATOM     14  H   UNL     1      -3.869   0.390   2.868  0.00  0.00    +0.156 HD
ENDROOT
BRANCH   9  15
ATOM     15  C   UNL     1      -6.169   2.006   2.718  0.00  0.00    +0.053 A 
ATOM     16  C   UNL     1      -6.311   2.996   3.681  0.00  0.00    +0.026 A 
ATOM     17  C   UNL     1      -6.992   2.726   4.852  0.00  0.00    +0.002 A 
ATOM     18  C   UNL     1      -7.524   1.468   5.070  0.00  0.00    +0.000 A 
ATOM     19  C   UNL     1      -7.379   0.478   4.115  0.00  0.00    +0.002 A 
ATOM     20  C   UNL     1      -6.704   0.744   2.940  0.00  0.00    +0.026 A 
ENDBRANCH   9  15
BRANCH   1  23
ATOM     21  C   UNL     1      -0.955   2.822   1.052  0.00  0.00    +0.219 C 
ATOM     22  O   UNL     1      -1.766   2.955   1.945  0.00  0.00    -0.275 OA
ATOM     23  N   UNL     1      -1.197   1.960   0.045  0.00  0.00    -0.290 N 
ATOM     24  H   UNL     1      -0.587   1.911  -0.708  0.00  0.00    +0.150 HD
BRANCH  21  25
ATOM     25  C   UNL     1       0.325   3.616   1.074  0.00  0.00    +0.131 C 
BRANCH  25  29
ATOM     26  C   UNL     1       0.403   6.101   4.548  0.00  0.00    +0.000 A 
ATOM     27  C   UNL     1       0.924   4.822   4.601  0.00  0.00    +0.000 A 
ATOM     28  C   UNL     1       0.899   4.018   3.477  0.00  0.00    +0.004 A 
ATOM     29  C   UNL     1       0.352   4.493   2.300  0.00  0.00    -0.039 A 
ATOM     30  C   UNL     1      -0.164   5.774   2.245  0.00  0.00    +0.004 A 
ATOM     31  C   UNL     1      -0.143   6.576   3.370  0.00  0.00    +0.000 A 
ENDBRANCH  25  29
ENDBRANCH  21  25
ENDBRANCH   1  23
BRANCH   1  32
ATOM     32  C   UNL     1      -2.383   0.131  -1.099  0.00  0.00    +0.424 C 
ATOM     33  F   UNL     1      -1.290  -0.736  -0.996  0.00  0.00    -0.167 F 
ATOM     34  F   UNL     1      -3.569  -0.610  -1.094  0.00  0.00    -0.167 F 
ATOM     35  F   UNL     1      -2.291   0.856  -2.292  0.00  0.00    -0.167 F 
ENDBRANCH   1  32
TORSDOF 5
