REMARK  Name = ZINC22313372
REMARK  11 active torsions:
REMARK  status: ('A' for Active; 'I' for Inactive)
REMARK    1  A    between atoms: C_1  and  C_2
REMARK    2  A    between atoms: C_2  and  C_4
REMARK    3  A    between atoms: C_2  and  C_15
REMARK    4  A    between atoms: C_4  and  C_5
REMARK    5  A    between atoms: C_15  and  N_16
REMARK    6  A    between atoms: C_17  and  C_19
REMARK    7  A    between atoms: C_19  and  N_20
REMARK    8  A    between atoms: N_20  and  C_21
REMARK    9  A    between atoms: N_20  and  S_30
REMARK   10  A    between atoms: C_25  and  N_27
REMARK   11  A    between atoms: S_30  and  C_33
REMARK                            x       y       z     vdW  Elec       q    Type
REMARK                         _______ _______ _______ _____ _____    ______ ____
ROOT
ATOM      1  C   UNL     1       3.087  -1.773  -2.240  0.00  0.00    +0.227 C 
ENDROOT
BRANCH   1   3
ATOM      2  N   UNL     1       0.729  -1.140  -2.634  0.00  0.00    -0.314 N 
ATOM      3  C   UNL     1       1.934  -0.808  -2.132  0.00  0.00    +0.232 C 
ATOM      4  O   UNL     1       2.092   0.267  -1.594  0.00  0.00    -0.274 OA
ATOM      5  H   UNL     1       0.586  -2.116  -3.122  0.00  0.00    +0.149 HD
BRANCH   2   6
ATOM      6  C   UNL     1      -0.392  -0.203  -2.529  0.00  0.00    +0.107 C 
BRANCH   6   8
ATOM      7  C   UNL     1      -1.397  -1.000  -4.673  0.00  0.00    +0.009 C 
ATOM      8  C   UNL     1      -1.635  -0.820  -3.173  0.00  0.00    +0.007 C 
BRANCH   8   9
ATOM      9  C   UNL     1      -2.835   0.105  -2.954  0.00  0.00    +0.040 C 
BRANCH   9  10
ATOM     10  C   UNL     1      -4.082  -0.558  -3.479  0.00  0.00    -0.039 A 
ATOM     11  C   UNL     1      -4.520  -0.291  -4.740  0.00  0.00    +0.004 A 
ATOM     12  C   UNL     1      -5.671  -0.895  -5.242  0.00  0.00    +0.001 A 
ATOM     13  C   UNL     1      -6.391  -1.769  -4.487  0.00  0.00    +0.008 A 
ATOM     14  C   UNL     1      -5.970  -2.070  -3.181  0.00  0.00    -0.018 A 
ATOM     15  C   UNL     1      -4.796  -1.460  -2.672  0.00  0.00    -0.015 A 
ATOM     16  C   UNL     1      -4.378  -1.757  -1.363  0.00  0.00    +0.009 A 
ATOM     17  C   UNL     1      -5.097  -2.631  -0.608  0.00  0.00    +0.001 A 
ATOM     18  C   UNL     1      -6.249  -3.235  -1.111  0.00  0.00    +0.001 A 
ATOM     19  C   UNL     1      -6.687  -2.967  -2.371  0.00  0.00    +0.008 A 
ENDBRANCH   9  10
ENDBRANCH   8   9
ENDBRANCH   6   8
ENDBRANCH   2   6
ENDBRANCH   1   3
BRANCH   1  20
ATOM     20  N   UNL     1       4.278  -1.182  -1.624  0.00  0.00    -0.194 N 
BRANCH  20  21
ATOM     21  C   UNL     1       5.097  -0.328  -2.366  0.00  0.00    +0.054 A 
ATOM     22  C   UNL     1       5.282   0.987  -1.959  0.00  0.00    +0.025 A 
ATOM     23  C   UNL     1       6.097   1.827  -2.692  0.00  0.00    +0.004 A 
ATOM     24  C   UNL     1       6.720   1.363  -3.837  0.00  0.00    +0.033 A 
ATOM     25  C   UNL     1       6.534   0.056  -4.247  0.00  0.00    +0.128 A 
ATOM     26  C   UNL     1       5.724  -0.791  -3.515  0.00  0.00    +0.057 A 
BRANCH  25  27
ATOM     27  N   UNL     1       7.202  -0.436  -5.473  0.00  0.00    +0.056 N 
ATOM     28  O   UNL     1       7.038  -1.587  -5.836  0.00  0.00    -0.126 OA
ATOM     29  O   UNL     1       7.916   0.310  -6.119  0.00  0.00    -0.126 OA
ENDBRANCH  25  27
ENDBRANCH  20  21
BRANCH  20  30
ATOM     30  S   UNL     1       4.652  -1.526  -0.048  0.00  0.00    +0.075 S 
ATOM     31  O   UNL     1       6.057  -1.357   0.082  0.00  0.00    -0.150 OA
ATOM     32  O   UNL     1       3.999  -2.748   0.268  0.00  0.00    -0.150 OA
BRANCH  30  33
ATOM     33  C   UNL     1       3.901  -0.282   0.949  0.00  0.00    +0.109 A 
ATOM     34  C   UNL     1       2.582  -0.413   1.341  0.00  0.00    +0.029 A 
ATOM     35  C   UNL     1       1.993   0.563   2.122  0.00  0.00    +0.002 A 
ATOM     36  C   UNL     1       2.723   1.670   2.513  0.00  0.00    +0.000 A 
ATOM     37  C   UNL     1       4.043   1.801   2.122  0.00  0.00    +0.002 A 
ATOM     38  C   UNL     1       4.631   0.825   1.340  0.00  0.00    +0.029 A 
ENDBRANCH  30  33
ENDBRANCH  20  30
ENDBRANCH   1  20
TORSDOF 10
