REMARK  Name = ZINC38657699
REMARK  8 active torsions:
REMARK  status: ('A' for Active; 'I' for Inactive)
REMARK    1  A    between atoms: C_10  and  C_11
REMARK    2  A    between atoms: C_16  and  O_25
REMARK    3  A    between atoms: C_20  and  N_24
REMARK    4  A    between atoms: C_21  and  C_22
REMARK    5  A    between atoms: O_25  and  C_26
REMARK    6  A    between atoms: C_26  and  C_28
REMARK    7  A    between atoms: C_28  and  O_29
REMARK    8  A    between atoms: O_29  and  C_30
REMARK                            x       y       z     vdW  Elec       q    Type
REMARK                         _______ _______ _______ _____ _____    ______ ____
ROOT
ATOM      1  C   UNL     1       4.980   0.152  -0.029  0.00  0.00    +0.098 C 
ATOM      2  C   UNL     1       5.807  -0.277  -1.212  0.00  0.00    +0.008 A 
ATOM      3  C   UNL     1       5.465   0.166  -2.478  0.00  0.00    +0.012 A 
ATOM      4  C   UNL     1       6.212  -0.217  -3.574  0.00  0.00    +0.047 A 
ATOM      5  C   UNL     1       7.310  -1.050  -3.409  0.00  0.00    +0.135 A 
ATOM      6  C   UNL     1       7.655  -1.495  -2.143  0.00  0.00    +0.093 A 
ATOM      7  C   UNL     1       6.902  -1.109  -1.042  0.00  0.00    +0.138 A 
ATOM      8  O   UNL     1       7.253  -1.554   0.191  0.00  0.00    -0.441 OA
ATOM      9  C   UNL     1       6.809  -0.913   1.285  0.00  0.00    +0.199 C 
ATOM     10  C   UNL     1       5.737  -0.092   1.246  0.00  0.00    +0.098 C 
ENDROOT
BRANCH   1  20
ATOM     11  C   UNL     1      -0.008   1.299   0.049  0.00  0.00    +0.001 A 
ATOM     12  C   UNL     1       1.169   2.045   0.028  0.00  0.00    +0.001 A 
ATOM     13  C   UNL     1       2.385   1.434   0.010  0.00  0.00    +0.009 A 
ATOM     14  C   UNL     1       2.459   0.030   0.012  0.00  0.00    -0.014 A 
ATOM     15  C   UNL     1       1.261  -0.728   0.033  0.00  0.00    -0.018 A 
ATOM     16  C   UNL     1       0.024  -0.062   0.051  0.00  0.00    +0.008 A 
ATOM     17  C   UNL     1       1.334  -2.131   0.036  0.00  0.00    +0.008 A 
ATOM     18  C   UNL     1       2.551  -2.742   0.018  0.00  0.00    +0.001 A 
ATOM     19  C   UNL     1       3.728  -1.997  -0.003  0.00  0.00    +0.005 A 
ATOM     20  C   UNL     1       3.696  -0.636  -0.006  0.00  0.00    -0.027 A 
ENDBRANCH   1  20
BRANCH   9  21
ATOM     21  N   UNL     1       7.464  -1.100   2.477  0.00  0.00    -0.328 N 
ATOM     22  H   UNL     1       8.235  -1.687   2.520  0.00  0.00    +0.145 HD
ATOM     23  H   UNL     1       7.156  -0.644   3.276  0.00  0.00    +0.145 HD
ENDBRANCH   9  21
BRANCH  10  24
ATOM     24  C   UNL     1       5.314   0.560   2.449  0.00  0.00    +0.101 C 
ATOM     25  N   UNL     1       4.979   1.077   3.403  0.00  0.00    -0.191 NA
ENDBRANCH  10  24
BRANCH   5  26
ATOM     26  O   UNL     1       8.046  -1.428  -4.487  0.00  0.00    -0.423 OA
BRANCH  26  27
ATOM     27  C   UNL     1       7.889  -2.679  -4.950  0.00  0.00    +0.350 C 
ATOM     28  O   UNL     1       7.045  -3.398  -4.472  0.00  0.00    -0.247 OA
BRANCH  27  29
ATOM     29  C   UNL     1       8.767  -3.184  -6.066  0.00  0.00    +0.349 C 
BRANCH  29  30
ATOM     30  O   UNL     1       8.410  -4.532  -6.379  0.00  0.00    -0.479 OA
BRANCH  30  31
ATOM     31  C   UNL     1       9.111  -5.142  -7.372  0.00  0.00    +0.140 A 
ATOM     32  C   UNL     1      10.125  -4.459  -8.026  0.00  0.00    +0.048 A 
ATOM     33  C   UNL     1      10.836  -5.080  -9.035  0.00  0.00    +0.023 A 
ATOM     34  C   UNL     1      10.537  -6.383  -9.392  0.00  0.00    +0.043 A 
ATOM     35  C   UNL     1       9.527  -7.067  -8.741  0.00  0.00    +0.043 A 
ATOM     36  C   UNL     1       8.816  -6.451  -7.727  0.00  0.00    +0.084 A 
ATOM     37 CL   UNL     1       7.553  -7.311  -6.905  0.00  0.00    -0.080 Cl
ATOM     38 CL   UNL     1      11.433  -7.160 -10.661  0.00  0.00    -0.083 Cl
ENDBRANCH  30  31
ENDBRANCH  29  30
ENDBRANCH  27  29
ENDBRANCH  26  27
ENDBRANCH   5  26
TORSDOF 8
