REMARK  Name = ZINC13640020
REMARK  6 active torsions:
REMARK  status: ('A' for Active; 'I' for Inactive)
REMARK    1  A    between atoms: C_2  and  C_3
REMARK    2  A    between atoms: C_3  and  N_4
REMARK    3  A    between atoms: C_5  and  C_7
REMARK    4  A    between atoms: C_14  and  C_23
REMARK    5  A    between atoms: C_26  and  O_30
REMARK    6  A    between atoms: C_28  and  O_29
REMARK                            x       y       z     vdW  Elec       q    Type
REMARK                         _______ _______ _______ _____ _____    ______ ____
ROOT
ATOM      1  C   UNL     1       3.277  -4.665   1.672  0.00  0.00    +0.058 A 
ATOM      2  C   UNL     1       3.604  -6.016   1.553  0.00  0.00    +0.015 A 
ATOM      3  C   UNL     1       3.012  -6.776   0.569  0.00  0.00    +0.001 A 
ATOM      4  C   UNL     1       2.098  -6.204  -0.298  0.00  0.00    +0.006 A 
ATOM      5  C   UNL     1       1.757  -4.864  -0.194  0.00  0.00    -0.019 A 
ATOM      6  C   UNL     1       2.346  -4.085   0.788  0.00  0.00    +0.044 A 
ATOM      7  N   UNL     1       2.054  -2.739   0.941  0.00  0.00    -0.336 N 
ATOM      8  C   UNL     1       0.721  -2.401   0.442  0.00  0.00    +0.108 C 
ATOM      9  C   UNL     1       0.617  -2.784  -1.036  0.00  0.00    +0.029 C 
ATOM     10  C   UNL     1       0.751  -4.317  -1.164  0.00  0.00    +0.049 C 
ATOM     11  C   UNL     1      -0.632  -4.835  -0.844  0.00  0.00    -0.023 C 
ATOM     12  C   UNL     1      -1.525  -3.892  -1.008  0.00  0.00    -0.030 C 
ATOM     13  C   UNL     1      -0.865  -2.609  -1.471  0.00  0.00    +0.033 C 
ATOM     14  H   UNL     1       2.164  -2.452   1.902  0.00  0.00    +0.147 HD
ENDROOT
BRANCH   8  15
ATOM     15  C   UNL     1       0.488  -0.919   0.595  0.00  0.00    +0.015 A 
ATOM     16  C   UNL     1      -0.715  -0.457   1.093  0.00  0.00    +0.012 A 
ATOM     17  C   UNL     1      -0.931   0.900   1.234  0.00  0.00    +0.046 A 
ATOM     18  C   UNL     1       0.060   1.803   0.875  0.00  0.00    +0.120 A 
ATOM     19  C   UNL     1       1.268   1.341   0.375  0.00  0.00    +0.091 A 
ATOM     20  C   UNL     1       1.482  -0.021   0.234  0.00  0.00    +0.125 A 
BRANCH  20  21
ATOM     21  O   UNL     1       2.665  -0.476  -0.255  0.00  0.00    -0.506 OA
ATOM     22  H   UNL     1       3.358  -0.569   0.413  0.00  0.00    +0.292 HD
ENDBRANCH  20  21
BRANCH  18  23
ATOM     23  O   UNL     1      -0.153   3.138   1.014  0.00  0.00    -0.507 OA
ATOM     24  H   UNL     1      -0.541   3.558   0.234  0.00  0.00    +0.292 HD
ENDBRANCH  18  23
ENDBRANCH   8  15
BRANCH   1  26
ATOM     25  N   UNL     1       4.691  -4.423   3.651  0.00  0.00    -0.308 N 
ATOM     26  C   UNL     1       3.906  -3.844   2.722  0.00  0.00    +0.246 C 
ATOM     27  O   UNL     1       3.715  -2.643   2.751  0.00  0.00    -0.270 OA
ATOM     28  H   UNL     1       4.843  -5.381   3.628  0.00  0.00    +0.149 HD
BRANCH  25  29
ATOM     29  C   UNL     1       5.316  -3.607   4.695  0.00  0.00    +0.131 C 
BRANCH  29  31
ATOM     30  C   UNL     1       7.404  -4.225   5.800  0.00  0.00    +0.005 C 
ATOM     31  C   UNL     1       6.137  -4.490   5.599  0.00  0.00    -0.016 C 
ENDBRANCH  29  31
ENDBRANCH  25  29
ENDBRANCH   1  26
TORSDOF 6
