REMARK  Name = ZINC35990836
REMARK  12 active torsions:
REMARK  status: ('A' for Active; 'I' for Inactive)
REMARK    1  A    between atoms: C_1  and  C_2
REMARK    2  A    between atoms: C_2  and  O_3
REMARK    3  A    between atoms: O_3  and  C_4
REMARK    4  A    between atoms: C_4  and  C_6
REMARK    5  A    between atoms: C_7  and  C_24
REMARK    6  A    between atoms: N_8  and  C_23
REMARK    7  A    between atoms: C_12  and  C_14
REMARK    8  A    between atoms: C_17  and  C_20
REMARK    9  A    between atoms: C_20  and  C_21
REMARK   10  A    between atoms: C_20  and  C_22
REMARK   11  A    between atoms: C_24  and  N_25
REMARK   12  A    between atoms: C_29  and  C_32
REMARK                            x       y       z     vdW  Elec       q    Type
REMARK                         _______ _______ _______ _____ _____    ______ ____
ROOT
ATOM      1  C   UNL     1      -2.795  -2.408   0.113  0.00  0.00    +0.080 C 
ATOM      2  C   UNL     1      -2.985  -3.731  -0.085  0.00  0.00    +0.041 C 
ATOM      3  N   UNL     1      -4.241  -4.257  -0.173  0.00  0.00    -0.260 N 
ATOM      4  C   UNL     1      -5.360  -3.529  -0.075  0.00  0.00    +0.307 C 
ATOM      5  O   UNL     1      -6.436  -4.087  -0.166  0.00  0.00    -0.252 OA
ATOM      6  N   UNL     1      -5.333  -2.196   0.123  0.00  0.00    -0.288 N 
ATOM      7  C   UNL     1      -4.024  -1.531   0.239  0.00  0.00    +0.144 C 
ATOM      8  C   UNL     1      -4.373  -5.700  -0.388  0.00  0.00    +0.139 C 
ATOM      9  H   UNL     1      -6.156  -1.687   0.191  0.00  0.00    +0.151 HD
ENDROOT
BRANCH   7  10
ATOM     10  C   UNL     1      -3.950  -0.472  -0.831  0.00  0.00    -0.022 A 
ATOM     11  C   UNL     1      -4.323  -0.772  -2.128  0.00  0.00    +0.006 A 
ATOM     12  C   UNL     1      -4.255   0.200  -3.109  0.00  0.00    +0.004 A 
ATOM     13  C   UNL     1      -3.815   1.471  -2.793  0.00  0.00    -0.045 A 
ATOM     14  C   UNL     1      -3.443   1.772  -1.496  0.00  0.00    +0.004 A 
ATOM     15  C   UNL     1      -3.515   0.801  -0.514  0.00  0.00    +0.006 A 
BRANCH  13  16
ATOM     16  C   UNL     1      -3.740   2.530  -3.863  0.00  0.00    +0.013 C 
ATOM     17  C   UNL     1      -4.644   3.704  -3.482  0.00  0.00    +0.012 C 
ATOM     18  C   UNL     1      -2.297   3.020  -3.995  0.00  0.00    +0.012 C 
ENDBRANCH  13  16
ENDBRANCH   7  10
BRANCH   1  19
ATOM     19  C   UNL     1      -1.494  -1.862   0.205  0.00  0.00    +0.339 C 
ATOM     20  O   UNL     1      -1.025  -1.586   1.294  0.00  0.00    -0.245 OA
BRANCH  19  21
ATOM     21  O   UNL     1      -0.772  -1.646  -0.914  0.00  0.00    -0.462 OA
BRANCH  21  23
ATOM     22  C   UNL     1       1.195  -0.919  -2.116  0.00  0.00    +0.048 C 
ATOM     23  C   UNL     1       0.535  -1.091  -0.747  0.00  0.00    +0.229 C 
ENDBRANCH  21  23
ENDBRANCH  19  21
ENDBRANCH   1  19
BRANCH   2  24
ATOM     24  C   UNL     1      -1.789  -4.640  -0.210  0.00  0.00    +0.136 C 
BRANCH  24  25
ATOM     25  N   UNL     1      -1.770  -5.582   0.917  0.00  0.00    -0.300 NA
ATOM     26  C   UNL     1      -1.537  -4.880   2.187  0.00  0.00    +0.066 C 
ATOM     27  C   UNL     1      -1.584  -5.886   3.339  0.00  0.00    -0.067 C 
ATOM     28  N   UNL     1      -0.556  -6.915   3.133  0.00  0.00    +0.382 N 
ATOM     29  C   UNL     1      -0.817  -7.624   1.873  0.00  0.00    -0.061 C 
ATOM     30  C   UNL     1      -0.764  -6.632   0.709  0.00  0.00    +0.069 C 
ATOM     31  C   UNL     1       0.244  -8.708   1.669  0.00  0.00    -0.012 C 
ATOM     32  H   UNL     1       0.352  -6.479   3.091  0.00  0.00    -0.085 HD
ATOM     33  H   UNL     1      -0.580  -7.571   3.899  0.00  0.00    -0.085 HD
ENDBRANCH  24  25
ENDBRANCH   2  24
TORSDOF 7
