REMARK  Name = ZINC11968029
REMARK  12 active torsions:
REMARK  status: ('A' for Active; 'I' for Inactive)
REMARK    1  A    between atoms: C_1  and  O_2
REMARK    2  A    between atoms: O_2  and  C_3
REMARK    3  A    between atoms: C_3  and  C_4
REMARK    4  A    between atoms: C_4  and  N_5
REMARK    5  A    between atoms: C_8  and  C_12
REMARK    6  A    between atoms: C_8  and  C_20
REMARK    7  A    between atoms: C_12  and  C_13
REMARK    8  A    between atoms: C_25  and  C_26
REMARK    9  A    between atoms: C_25  and  N_67
REMARK   10  A    between atoms: C_28  and  O_33
REMARK   11  A    between atoms: C_31  and  O_32
REMARK   12  A    between atoms: O_33  and  C_34
REMARK                            x       y       z     vdW  Elec       q    Type
REMARK                         _______ _______ _______ _____ _____    ______ ____
ROOT
ATOM      1  N   UNL     1      -0.296   2.478   3.206  0.00  0.00    -0.222 N 
ATOM      2  C   UNL     1      -0.765   3.228   2.189  0.00  0.00    +0.247 C 
ATOM      3  O   UNL     1      -0.449   4.365   1.912  0.00  0.00    -0.273 OA
ATOM      4  C   UNL     1      -1.770   2.355   1.466  0.00  0.00    +0.119 C 
ATOM      5  N   UNL     1      -1.753   1.095   2.229  0.00  0.00    -0.284 N 
ATOM      6  C   UNL     1      -0.859   1.265   3.225  0.00  0.00    +0.309 C 
ATOM      7  O   UNL     1      -0.597   0.411   4.049  0.00  0.00    -0.252 OA
ATOM      8  H   UNL     1      -2.281   0.301   2.050  0.00  0.00    +0.151 HD
ENDROOT
BRANCH   4   9
ATOM      9  C   UNL     1      -3.162   2.990   1.506  0.00  0.00    +0.018 C 
ATOM     10  C   UNL     1      -3.164   4.271   0.668  0.00  0.00    -0.013 C 
ATOM     11  C   UNL     1      -4.540   4.934   0.761  0.00  0.00    -0.078 C 
ATOM     12  C   UNL     1      -4.891   4.024   2.980  0.00  0.00    -0.078 C 
ATOM     13  C   UNL     1      -3.525   3.335   2.953  0.00  0.00    -0.013 C 
ATOM     14  N   UNL     1      -4.820   5.263   2.175  0.00  0.00    +0.382 N 
ATOM     15  H   UNL     1      -4.060   5.851   2.537  0.00  0.00    -0.081 HD
BRANCH  14  16
ATOM     16  C   UNL     1      -6.093   6.006   2.279  0.00  0.00    -0.039 C 
BRANCH  16  17
ATOM     17  C   UNL     1      -5.919   7.357   1.636  0.00  0.00    -0.019 A 
ATOM     18  C   UNL     1      -6.488   7.614   0.403  0.00  0.00    +0.051 A 
ATOM     19  C   UNL     1      -6.329   8.858  -0.189  0.00  0.00    +0.121 A 
ATOM     20  C   UNL     1      -5.598   9.845   0.457  0.00  0.00    +0.049 A 
ATOM     21  C   UNL     1      -5.029   9.588   1.689  0.00  0.00    +0.049 A 
ATOM     22  C   UNL     1      -5.192   8.345   2.283  0.00  0.00    +0.118 A 
BRANCH  22  23
ATOM     23  O   UNL     1      -4.637   8.094   3.499  0.00  0.00    -0.507 OA
ATOM     24  H   UNL     1      -3.739   7.739   3.455  0.00  0.00    +0.292 HD
ENDBRANCH  22  23
BRANCH  19  25
ATOM     25  O   UNL     1      -6.889   9.111  -1.402  0.00  0.00    -0.495 OA
ATOM     26  C   UNL     1      -6.684  10.414  -1.952  0.00  0.00    +0.277 C 
ENDBRANCH  19  25
ENDBRANCH  16  17
ENDBRANCH  14  16
ENDBRANCH   4   9
BRANCH   1  27
ATOM     27  C   UNL     1       0.708   2.934   4.171  0.00  0.00    +0.146 C 
BRANCH  27  28
ATOM     28  C   UNL     1       0.009   3.595   5.360  0.00  0.00    +0.179 C 
BRANCH  28  30
ATOM     29  C   UNL     1      -1.467   3.135   7.192  0.00  0.00    +0.194 C 
ATOM     30  O   UNL     1      -0.769   2.619   6.057  0.00  0.00    -0.381 OA
ENDBRANCH  28  30
ENDBRANCH  27  28
ENDBRANCH   1  27
BRANCH   4  31
ATOM     31  C   UNL     1      -1.332   2.114   0.020  0.00  0.00    +0.070 C 
BRANCH  31  32
ATOM     32  C   UNL     1      -0.017   1.378   0.010  0.00  0.00    -0.042 A 
ATOM     33  C   UNL     1       0.002  -0.004   0.002  0.00  0.00    +0.004 A 
ATOM     34  C   UNL     1       1.208  -0.680  -0.013  0.00  0.00    +0.003 A 
ATOM     35  C   UNL     1       2.396   0.026  -0.021  0.00  0.00    +0.038 A 
ATOM     36  C   UNL     1       2.379   1.410  -0.013  0.00  0.00    +0.124 A 
ATOM     37  C   UNL     1       1.170   2.086   0.002  0.00  0.00    +0.042 A 
ATOM     38  F   UNL     1       3.540   2.101  -0.021  0.00  0.00    -0.205 F 
ENDBRANCH  31  32
ENDBRANCH   4  31
TORSDOF 10
