REMARK  Name = ZINC13065554
REMARK  11 active torsions:
REMARK  status: ('A' for Active; 'I' for Inactive)
REMARK    1  A    between atoms: C_1  and  C_2
REMARK    2  A    between atoms: C_2  and  O_3
REMARK    3  A    between atoms: O_3  and  C_4
REMARK    4  A    between atoms: C_11  and  C_16
REMARK    5  A    between atoms: C_16  and  N_61
REMARK    6  A    between atoms: C_17  and  C_18
REMARK    7  A    between atoms: C_17  and  N_61
REMARK    8  A    between atoms: C_23  and  C_24
REMARK    9  A    between atoms: C_23  and  N_61
REMARK   10  A    between atoms: N_28  and  C_29
REMARK   11  A    between atoms: C_29  and  C_30
REMARK                            x       y       z     vdW  Elec       q    Type
REMARK                         _______ _______ _______ _____ _____    ______ ____
ROOT
ATOM      1  N   UNL     1       1.831  -2.742  -1.585  0.00  0.00    +0.390 N 
ATOM      2  H   UNL     1       1.025  -2.632  -2.212  0.00  0.00    -0.080 HD
ENDROOT
BRANCH   1   3
ATOM      3  C   UNL     1       2.012  -4.177  -1.282  0.00  0.00    -0.036 C 
BRANCH   3  11
ATOM      4  C   UNL     1      -3.292  -7.138  -2.517  0.00  0.00    +0.121 A 
ATOM      5  C   UNL     1      -3.805  -7.072  -1.224  0.00  0.00    +0.047 A 
ATOM      6  C   UNL     1      -3.091  -6.463  -0.216  0.00  0.00    +0.030 A 
ATOM      7  C   UNL     1      -1.844  -5.908  -0.485  0.00  0.00    +0.049 A 
ATOM      8  C   UNL     1      -1.322  -5.972  -1.790  0.00  0.00    +0.002 A 
ATOM      9  C   UNL     1      -2.057  -6.593  -2.806  0.00  0.00    +0.055 A 
ATOM     10  C   UNL     1      -0.012  -5.378  -2.061  0.00  0.00    +0.017 A 
ATOM     11  C   UNL     1       0.659  -4.794  -1.038  0.00  0.00    +0.001 A 
ATOM     12  C   UNL     1       0.092  -4.755   0.254  0.00  0.00    +0.251 A 
ATOM     13  O   UNL     1       0.710  -4.221   1.158  0.00  0.00    -0.268 OA
ATOM     14  N   UNL     1      -1.113  -5.294   0.511  0.00  0.00    -0.322 N 
ATOM     15  H   UNL     1      -1.473  -5.250   1.411  0.00  0.00    +0.169 HD
BRANCH   4  16
ATOM     16  O   UNL     1      -4.011  -7.743  -3.500  0.00  0.00    -0.492 OA
BRANCH  16  18
ATOM     17  C   UNL     1      -5.938  -8.921  -4.362  0.00  0.00    +0.048 C 
ATOM     18  C   UNL     1      -5.281  -8.287  -3.134  0.00  0.00    +0.225 C 
ENDBRANCH  16  18
ENDBRANCH   4  16
ENDBRANCH   3  11
ENDBRANCH   1   3
BRANCH   1  19
ATOM     19  C   UNL     1       3.036  -2.211  -2.256  0.00  0.00    -0.035 C 
BRANCH  19  20
ATOM     20  C   UNL     1       3.069  -2.728  -3.671  0.00  0.00    -0.027 A 
ATOM     21  C   UNL     1       2.591  -2.153  -4.802  0.00  0.00    +0.009 A 
ATOM     22  C   UNL     1       2.739  -2.817  -6.005  0.00  0.00    +0.008 A 
ATOM     23  C   UNL     1       3.347  -4.028  -6.018  0.00  0.00    +0.045 A 
ATOM     24  S   UNL     1       3.742  -4.261  -4.293  0.00  0.00    -0.103 S 
ENDBRANCH  19  20
ENDBRANCH   1  19
BRANCH   1  25
ATOM     25  C   UNL     1       1.575  -1.991  -0.338  0.00  0.00    +0.001 C 
BRANCH  25  26
ATOM     26  C   UNL     1       1.247  -0.562  -0.688  0.00  0.00    +0.135 A 
ATOM     27  N   UNL     1       2.102   0.412  -0.883  0.00  0.00    -0.115 NA
ATOM     28  N   UNL     1       1.433   1.478  -1.162  0.00  0.00    -0.023 NA
ATOM     29  N   UNL     1       0.174   1.208  -1.150  0.00  0.00    -0.044 NA
ATOM     30  N   UNL     1       0.019  -0.039  -0.862  0.00  0.00    -0.227 N 
BRANCH  30  31
ATOM     31  C   UNL     1      -1.255  -0.753  -0.745  0.00  0.00    +0.182 C 
BRANCH  31  32
ATOM     32  C   UNL     1      -1.725  -1.169  -2.116  0.00  0.00    -0.026 A 
ATOM     33  C   UNL     1      -2.446  -0.284  -2.896  0.00  0.00    +0.008 A 
ATOM     34  C   UNL     1      -2.873  -0.662  -4.155  0.00  0.00    +0.038 A 
ATOM     35  C   UNL     1      -2.589  -1.931  -4.630  0.00  0.00    +0.123 A 
ATOM     36  C   UNL     1      -1.872  -2.818  -3.845  0.00  0.00    +0.038 A 
ATOM     37  C   UNL     1      -1.441  -2.436  -2.589  0.00  0.00    +0.008 A 
ATOM     38  F   UNL     1      -3.010  -2.303  -5.858  0.00  0.00    -0.205 F 
ENDBRANCH  31  32
ENDBRANCH  30  31
ENDBRANCH  25  26
ENDBRANCH   1  25
TORSDOF 10
