REMARK  Name = ZINC64313198
REMARK  7 active torsions:
REMARK  status: ('A' for Active; 'I' for Inactive)
REMARK    1  A    between atoms: C_1  and  C_2
REMARK    2  A    between atoms: C_2  and  C_3
REMARK    3  A    between atoms: C_3  and  C_4
REMARK    4  A    between atoms: C_4  and  C_5
REMARK    5  A    between atoms: C_4  and  N_19
REMARK    6  A    between atoms: N_7  and  C_8
REMARK    7  A    between atoms: C_8  and  C_12
REMARK                            x       y       z     vdW  Elec       q    Type
REMARK                         _______ _______ _______ _____ _____    ______ ____
ROOT
ATOM      1  C   UNL     1       1.167  -2.053   2.625  0.00  0.00    +0.234 C 
ATOM      2  O   UNL     1       2.224  -2.598   2.388  0.00  0.00    -0.274 OA
ATOM      3  N   UNL     1       0.674  -2.056   3.879  0.00  0.00    -0.304 N 
ATOM      4  H   UNL     1      -0.136  -1.563   4.083  0.00  0.00    +0.150 HD
ENDROOT
BRANCH   3   5
ATOM      5  C   UNL     1       1.360  -2.806   4.934  0.00  0.00    +0.060 C 
ATOM      6  C   UNL     1       0.442  -3.210   6.100  0.00  0.00    +0.030 C 
ATOM      7  C   UNL     1       0.138  -4.495   5.311  0.00  0.00    +0.005 C 
ATOM      8  C   UNL     1       1.504  -4.306   4.630  0.00  0.00    +0.030 C 
BRANCH   5   9
ATOM      9  C   UNL     1       2.645  -2.153   5.374  0.00  0.00    -0.024 A 
ATOM     10  C   UNL     1       3.545  -2.855   6.154  0.00  0.00    +0.007 A 
ATOM     11  C   UNL     1       4.724  -2.257   6.558  0.00  0.00    +0.015 A 
ATOM     12  C   UNL     1       5.004  -0.956   6.181  0.00  0.00    +0.018 A 
ATOM     13  C   UNL     1       4.103  -0.254   5.401  0.00  0.00    +0.015 A 
ATOM     14  C   UNL     1       2.927  -0.855   4.993  0.00  0.00    +0.007 A 
ATOM     15 BR   UNL     1       6.616  -0.137   6.733  0.00  0.00    -0.050 Br
ENDBRANCH   5   9
ENDBRANCH   3   5
BRANCH   1  16
ATOM     16  C   UNL     1       0.405  -1.371   1.518  0.00  0.00    +0.160 C 
BRANCH  16  17
ATOM     17  N   UNL     1       1.145  -1.507   0.261  0.00  0.00    -0.288 N 
ATOM     18  C   UNL     1       0.491  -1.449  -0.916  0.00  0.00    +0.298 C 
ATOM     19  O   UNL     1      -0.714  -1.283  -0.934  0.00  0.00    -0.253 OA
ATOM     20  N   UNL     1       1.172  -1.574  -2.073  0.00  0.00    -0.313 N 
ATOM     21  H   UNL     1       2.106  -1.639   0.275  0.00  0.00    +0.151 HD
ATOM     22  H   UNL     1       2.132  -1.706  -2.058  0.00  0.00    +0.146 HD
ATOM     23  H   UNL     1       0.701  -1.532  -2.920  0.00  0.00    +0.146 HD
ENDBRANCH  16  17
BRANCH  16  24
ATOM     24  C   UNL     1       0.237   0.112   1.853  0.00  0.00    +0.031 C 
BRANCH  24  26
ATOM     25  C   UNL     1      -0.811   2.261   1.127  0.00  0.00    +0.004 C 
ATOM     26  C   UNL     1      -0.642   0.778   0.792  0.00  0.00    -0.001 C 
ENDBRANCH  24  26
ENDBRANCH  16  24
ENDBRANCH   1  16
TORSDOF 6
