REMARK  Name = ZINC40713659
REMARK  2 active torsions:
REMARK  status: ('A' for Active; 'I' for Inactive)
REMARK    1  A    between atoms: C_2  and  N_9
REMARK    2  A    between atoms: C_11  and  N_17
REMARK                            x       y       z     vdW  Elec       q    Type
REMARK                         _______ _______ _______ _____ _____    ______ ____
ROOT
ATOM      1  N   UNL     1       1.161   3.486   0.009  0.00  0.00    -0.298 N 
ATOM      2  C   UNL     1       2.356   4.196   0.107  0.00  0.00    +0.144 A 
ATOM      3  C   UNL     1       2.327   5.589   0.225  0.00  0.00    +0.066 A 
ATOM      4  C   UNL     1       3.526   6.281   0.321  0.00  0.00    +0.043 A 
ATOM      5  C   UNL     1       4.712   5.556   0.296  0.00  0.00    +0.038 A 
ATOM      6  C   UNL     1       4.663   4.182   0.177  0.00  0.00    +0.128 A 
ATOM      7  N   UNL     1       3.508   3.547   0.092  0.00  0.00    -0.237 NA
ATOM      8 BR   UNL     1       6.376   6.445   0.422  0.00  0.00    -0.049 Br
ATOM      9  H   UNL     1       0.313   3.947   0.107  0.00  0.00    +0.154 HD
ENDROOT
BRANCH   1  11
ATOM     10  C   UNL     1       2.143   1.566  -1.075  0.00  0.00    +0.061 A 
ATOM     11  C   UNL     1       1.184   2.110  -0.230  0.00  0.00    +0.038 A 
ATOM     12  C   UNL     1       0.248   1.282   0.379  0.00  0.00    +0.061 A 
ATOM     13  C   UNL     1       0.273  -0.080   0.141  0.00  0.00    +0.128 A 
ATOM     14  C   UNL     1       1.230  -0.620  -0.702  0.00  0.00    +0.076 A 
ATOM     15  C   UNL     1       2.164   0.203  -1.309  0.00  0.00    +0.128 A 
ATOM     16  F   UNL     1       3.097  -0.326  -2.131  0.00  0.00    -0.205 F 
ATOM     17  F   UNL     1      -0.636  -0.885   0.732  0.00  0.00    -0.205 F 
ENDBRANCH   1  11
BRANCH   3  18
ATOM     18  N   UNL     1       1.107   6.275   0.245  0.00  0.00    -0.355 N 
ATOM     19  H   UNL     1       0.273   5.784   0.177  0.00  0.00    +0.142 HD
ATOM     20  H   UNL     1       1.095   7.241   0.328  0.00  0.00    +0.142 HD
ENDBRANCH   3  18
TORSDOF 2
