REMARK  Name = ZINC33306464
REMARK  9 active torsions:
REMARK  status: ('A' for Active; 'I' for Inactive)
REMARK    1  A    between atoms: C_1  and  C_2
REMARK    2  A    between atoms: C_7  and  N_8
REMARK    3  A    between atoms: N_8  and  S_9
REMARK    4  A    between atoms: S_9  and  C_12
REMARK    5  A    between atoms: C_15  and  C_17
REMARK    6  A    between atoms: C_18  and  C_19
REMARK    7  A    between atoms: C_20  and  N_25
REMARK    8  A    between atoms: C_21  and  C_24
REMARK    9  A    between atoms: C_26  and  C_28
REMARK                            x       y       z     vdW  Elec       q    Type
REMARK                         _______ _______ _______ _____ _____    ______ ____
ROOT
ATOM      1  C   UNL     1      -5.564   7.693   1.403  0.00  0.00    +0.146 A 
ATOM      2  C   UNL     1      -6.677   6.931   1.235  0.00  0.00    +0.037 A 
ATOM      3  C   UNL     1      -6.542   5.609   0.884  0.00  0.00    +0.017 A 
ATOM      4  C   UNL     1      -5.262   5.098   0.725  0.00  0.00    +0.014 A 
ATOM      5  S   UNL     1      -4.252   6.530   1.069  0.00  0.00    -0.069 S 
ENDROOT
BRANCH   1   6
ATOM      6  S   UNL     1      -5.447   9.396   1.840  0.00  0.00    +0.079 S 
ATOM      7  O   UNL     1      -4.191   9.853   1.356  0.00  0.00    -0.149 OA
ATOM      8  O   UNL     1      -6.675   9.999   1.458  0.00  0.00    -0.149 OA
BRANCH   6   9
ATOM      9  N   UNL     1      -5.374   9.474   3.492  0.00  0.00    -0.216 N 
ATOM     10  H   UNL     1      -6.150  10.017   4.052  0.00  0.00    +0.174 HD
BRANCH   9  17
ATOM     11  C   UNL     1      -5.926   8.331   6.037  0.00  0.00    +0.046 C 
ATOM     12  C   UNL     1      -4.552   8.279   5.422  0.00  0.00    -0.025 A 
ATOM     13  C   UNL     1      -3.517   7.659   6.094  0.00  0.00    +0.043 A 
ATOM     14  C   UNL     1      -2.252   7.615   5.531  0.00  0.00    +0.124 A 
ATOM     15  C   UNL     1      -2.024   8.189   4.291  0.00  0.00    +0.040 A 
ATOM     16  C   UNL     1      -3.057   8.806   3.614  0.00  0.00    +0.027 A 
ATOM     17  C   UNL     1      -4.326   8.850   4.176  0.00  0.00    +0.051 A 
ATOM     18  F   UNL     1      -1.240   7.013   6.192  0.00  0.00    -0.205 F 
ENDBRANCH   9  17
ENDBRANCH   6   9
ENDBRANCH   1   6
BRANCH   4  19
ATOM     19  C   UNL     1      -4.848   3.743   0.363  0.00  0.00    +0.019 C 
ATOM     20  C   UNL     1      -3.534   3.444   0.253  0.00  0.00    +0.052 C 
BRANCH  20  21
ATOM     21  C   UNL     1      -3.120   2.089  -0.108  0.00  0.00    +0.182 A 
ATOM     22  C   UNL     1      -1.820   1.641  -0.257  0.00  0.00    +0.103 A 
ATOM     23  C   UNL     1      -1.877   0.283  -0.613  0.00  0.00    +0.102 A 
ATOM     24  N   UNL     1      -3.129  -0.077  -0.668  0.00  0.00    -0.081 NA
ATOM     25  O   UNL     1      -3.937   1.043  -0.358  0.00  0.00    -0.353 OA
ATOM     26  C   UNL     1      -0.691  -0.608  -0.881  0.00  0.00    +0.071 C 
BRANCH  22  27
ATOM     27  N   UNL     1      -0.656   2.406  -0.090  0.00  0.00    -0.281 N 
ATOM     28  C   UNL     1       0.475   1.823   0.352  0.00  0.00    +0.214 C 
ATOM     29  O   UNL     1       0.466   0.657   0.687  0.00  0.00    -0.276 OA
ATOM     30  C   UNL     1       1.754   2.618   0.425  0.00  0.00    +0.109 C 
ATOM     31  H   UNL     1      -0.667   3.482  -0.320  0.00  0.00    +0.155 HD
ENDBRANCH  22  27
ENDBRANCH  20  21
ENDBRANCH   4  19
TORSDOF 6
