REMARK  Name = ZINC14000874
REMARK  7 active torsions:
REMARK  status: ('A' for Active; 'I' for Inactive)
REMARK    1  A    between atoms: C_1  and  O_2
REMARK    2  A    between atoms: O_2  and  C_3
REMARK    3  A    between atoms: C_5  and  C_12
REMARK    4  A    between atoms: C_7  and  O_10
REMARK    5  A    between atoms: C_8  and  O_9
REMARK    6  A    between atoms: O_10  and  C_11
REMARK    7  A    between atoms: N_22  and  C_23
REMARK                            x       y       z     vdW  Elec       q    Type
REMARK                         _______ _______ _______ _____ _____    ______ ____
ROOT
ATOM      1  C   UNL     1       2.402   0.386  -4.230  0.00  0.00    +0.063 C 
ATOM      2  C   UNL     1       3.896   0.070  -4.344  0.00  0.00    +0.109 C 
ATOM      3  C   UNL     1       4.130  -1.241  -5.036  0.00  0.00    +0.219 C 
ATOM      4  O   UNL     1       5.044  -1.946  -4.663  0.00  0.00    -0.275 OA
ATOM      5  N   UNL     1       3.357  -1.665  -6.059  0.00  0.00    -0.270 N 
ATOM      6  C   UNL     1       2.229  -0.911  -6.384  0.00  0.00    +0.132 A 
ATOM      7  C   UNL     1       1.746   0.063  -5.548  0.00  0.00    +0.020 A 
ATOM      8  C   UNL     1       0.626   0.623  -6.144  0.00  0.00    +0.141 A 
ATOM      9  N   UNL     1       0.427   0.023  -7.295  0.00  0.00    -0.173 NA
ATOM     10  N   UNL     1       1.429  -0.950  -7.469  0.00  0.00    -0.218 N 
ATOM     11  H   UNL     1       3.579  -2.469  -6.554  0.00  0.00    +0.156 HD
ENDROOT
BRANCH  10  12
ATOM     12  C   UNL     1       1.570  -1.804  -8.571  0.00  0.00    +0.067 A 
ATOM     13  C   UNL     1       2.836  -2.169  -9.011  0.00  0.00    +0.029 A 
ATOM     14  C   UNL     1       2.972  -3.011 -10.097  0.00  0.00    +0.017 A 
ATOM     15  C   UNL     1       1.849  -3.490 -10.748  0.00  0.00    +0.018 A 
ATOM     16  C   UNL     1       0.587  -3.128 -10.312  0.00  0.00    +0.017 A 
ATOM     17  C   UNL     1       0.445  -2.291  -9.222  0.00  0.00    +0.029 A 
ATOM     18 BR   UNL     1       2.040  -4.642 -12.235  0.00  0.00    -0.050 Br
ENDBRANCH  10  12
BRANCH   1  21
ATOM     19  C   UNL     1       0.606  -0.608  -1.056  0.00  0.00    +0.165 A 
ATOM     20  C   UNL     1       1.173   0.160  -2.063  0.00  0.00    +0.054 A 
ATOM     21  C   UNL     1       1.787  -0.452  -3.139  0.00  0.00    -0.032 A 
ATOM     22  C   UNL     1       1.839  -1.831  -3.217  0.00  0.00    +0.054 A 
ATOM     23  C   UNL     1       1.275  -2.606  -2.215  0.00  0.00    +0.165 A 
ATOM     24  C   UNL     1       0.661  -1.994  -1.128  0.00  0.00    +0.201 A 
BRANCH  19  26
ATOM     25  C   UNL     1      -0.017   1.425   0.010  0.00  0.00    +0.277 C 
ATOM     26  O   UNL     1       0.002  -0.004   0.002  0.00  0.00    -0.491 OA
ENDBRANCH  19  26
BRANCH  24  27
ATOM     27  O   UNL     1       0.111  -2.751  -0.140  0.00  0.00    -0.501 OA
ATOM     28  H   UNL     1      -0.817  -2.978  -0.289  0.00  0.00    +0.292 HD
ENDBRANCH  24  27
BRANCH  23  29
ATOM     29  O   UNL     1       1.326  -3.963  -2.293  0.00  0.00    -0.491 OA
ATOM     30  C   UNL     1       1.977  -4.523  -3.435  0.00  0.00    +0.277 C 
ENDBRANCH  23  29
ENDBRANCH   1  21
TORSDOF 5
