REMARK  Name = ZINC39337921
REMARK  10 active torsions:
REMARK  status: ('A' for Active; 'I' for Inactive)
REMARK    1  A    between atoms: C_1  and  C_2
REMARK    2  A    between atoms: C_2  and  C_4
REMARK    3  A    between atoms: C_2  and  N_15
REMARK    4  A    between atoms: C_4  and  C_5
REMARK    5  A    between atoms: C_5  and  C_6
REMARK    6  A    between atoms: C_22  and  C_28
REMARK    7  A    between atoms: N_26  and  C_27
REMARK    8  A    between atoms: C_28  and  C_29
REMARK    9  A    between atoms: C_34  and  O_35
REMARK   10  A    between atoms: O_35  and  C_36
REMARK                            x       y       z     vdW  Elec       q    Type
REMARK                         _______ _______ _______ _____ _____    ______ ____
ROOT
ATOM      1  N   UNL     1      -0.019  -1.285   0.636  0.00  0.00    +0.384 N 
ATOM      2  C   UNL     1      -0.370  -2.675   0.326  0.00  0.00    -0.076 C 
ATOM      3  C   UNL     1       0.203  -3.614   1.391  0.00  0.00    +0.008 C 
ATOM      4  C   UNL     1      -0.461  -3.312   2.736  0.00  0.00    +0.098 C 
ATOM      5  C   UNL     1      -0.290  -1.832   2.977  0.00  0.00    -0.069 C 
ATOM      6  C   UNL     1       0.206  -1.394   4.104  0.00  0.00    -0.015 C 
ATOM      7  C   UNL     1       0.632  -2.378   5.166  0.00  0.00    +0.102 C 
ATOM      8  C   UNL     1       0.544  -3.857   4.886  0.00  0.00    +0.223 C 
ATOM      9  O   UNL     1       0.933  -4.659   5.709  0.00  0.00    -0.275 OA
ATOM     10  N   UNL     1       0.035  -4.278   3.715  0.00  0.00    -0.297 N 
ATOM     11  C   UNL     1      -0.025  -5.713   3.423  0.00  0.00    +0.132 C 
ATOM     12  C   UNL     1      -0.681  -0.869   1.882  0.00  0.00    -0.046 C 
ATOM     13  H   UNL     1       0.981  -1.209   0.746  0.00  0.00    -0.081 HD
ENDROOT
BRANCH   1  15
ATOM     14  C   UNL     1      -1.982  -0.446  -0.564  0.00  0.00    -0.013 C 
ATOM     15  C   UNL     1      -0.456  -0.414  -0.464  0.00  0.00    -0.071 C 
BRANCH  15  16
ATOM     16  C   UNL     1       0.008   1.019  -0.195  0.00  0.00    -0.011 C 
BRANCH  16  17
ATOM     17  C   UNL     1       1.537   1.074  -0.225  0.00  0.00    +0.036 C 
BRANCH  17  18
ATOM     18  C   UNL     1       1.995   2.469   0.116  0.00  0.00    -0.022 A 
ATOM     19  C   UNL     1       2.195   3.017   1.459  0.00  0.00    +0.003 A 
ATOM     20  C   UNL     1       2.049   2.503   2.749  0.00  0.00    +0.010 A 
ATOM     21  C   UNL     1       2.324   3.293   3.829  0.00  0.00    +0.001 A 
ATOM     22  C   UNL     1       2.746   4.604   3.655  0.00  0.00    +0.002 A 
ATOM     23  C   UNL     1       2.897   5.131   2.392  0.00  0.00    +0.026 A 
ATOM     24  C   UNL     1       2.623   4.345   1.277  0.00  0.00    +0.047 A 
ATOM     25  N   UNL     1       2.676   4.573  -0.080  0.00  0.00    -0.360 N 
ATOM     26  C   UNL     1       2.304   3.443  -0.756  0.00  0.00    +0.087 A 
ATOM     27  H   UNL     1       2.940   5.409  -0.495  0.00  0.00    +0.165 HD
ENDBRANCH  17  18
ENDBRANCH  16  17
ENDBRANCH  15  16
ENDBRANCH   1  15
BRANCH   7  28
ATOM     28  C   UNL     1       2.087  -2.065   5.523  0.00  0.00    +0.055 C 
BRANCH  28  29
ATOM     29  C   UNL     1       2.513  -2.921   6.688  0.00  0.00    -0.005 A 
ATOM     30  C   UNL     1       2.132  -2.581   7.971  0.00  0.00    +0.007 A 
ATOM     31  C   UNL     1       2.523  -3.366   9.040  0.00  0.00    +0.000 A 
ATOM     32  C   UNL     1       3.296  -4.492   8.828  0.00  0.00    +0.004 A 
ATOM     33  C   UNL     1       3.679  -4.837   7.546  0.00  0.00    +0.046 A 
ATOM     34  C   UNL     1       3.284  -4.054   6.471  0.00  0.00    +0.123 A 
BRANCH  34  35
ATOM     35  O   UNL     1       3.655  -4.394   5.209  0.00  0.00    -0.495 OA
ATOM     36  C   UNL     1       4.448  -5.573   5.061  0.00  0.00    +0.277 C 
ENDBRANCH  34  35
ENDBRANCH  28  29
ENDBRANCH   7  28
TORSDOF 7
