REMARK  Name = ZINC05763988
REMARK  3 active torsions:
REMARK  status: ('A' for Active; 'I' for Inactive)
REMARK    1  A    between atoms: C_6  and  C_7
REMARK    2  A    between atoms: N_14  and  C_21
REMARK    3  A    between atoms: C_17  and  O_20
REMARK                            x       y       z     vdW  Elec       q    Type
REMARK                         _______ _______ _______ _____ _____    ______ ____
ROOT
ATOM      1  C   UNL     1      -1.294  -0.774   0.010  0.00  0.00    +0.116 C 
ATOM      2  C   UNL     1      -2.065  -0.434  -1.229  0.00  0.00    +0.079 A 
ATOM      3  C   UNL     1      -1.434   0.012  -2.414  0.00  0.00    +0.271 A 
ATOM      4  O   UNL     1      -0.235   0.172  -2.565  0.00  0.00    -0.266 OA
ATOM      5  N   UNL     1      -2.377   0.230  -3.343  0.00  0.00    -0.261 N 
ATOM      6  H   UNL     1      -2.223   0.540  -4.249  0.00  0.00    +0.190 HD
ATOM      7  N   UNL     1      -3.618  -0.067  -2.779  0.00  0.00    -0.263 N 
ATOM      8  C   UNL     1      -3.416  -0.476  -1.462  0.00  0.00    +0.161 A 
ATOM      9  N   UNL     1      -4.438  -0.816  -0.683  0.00  0.00    -0.197 NA
ATOM     10  C   UNL     1      -4.600  -1.193   0.504  0.00  0.00    +0.199 C 
ATOM     11  C   UNL     1      -3.602  -1.497   1.551  0.00  0.00    +0.165 C 
ATOM     12  S   UNL     1      -2.190  -0.382   1.517  0.00  0.00    -0.138 S 
ENDROOT
BRANCH   1  18
ATOM     13  C   UNL     1      -0.017   1.378   0.010  0.00  0.00    +0.009 A 
ATOM     14  C   UNL     1       1.170   2.088   0.002  0.00  0.00    +0.050 A 
ATOM     15  C   UNL     1       2.380   1.416  -0.013  0.00  0.00    +0.166 A 
ATOM     16  C   UNL     1       2.399   0.023  -0.021  0.00  0.00    +0.167 A 
ATOM     17  C   UNL     1       1.207  -0.682  -0.014  0.00  0.00    +0.054 A 
ATOM     18  C   UNL     1       0.002  -0.004   0.002  0.00  0.00    -0.026 A 
ATOM     19  O   UNL     1       3.698  -0.395  -0.036  0.00  0.00    -0.453 OA
ATOM     20  C   UNL     1       4.466   0.750  -0.450  0.00  0.00    +0.466 C 
ATOM     21  O   UNL     1       3.668   1.870  -0.024  0.00  0.00    -0.453 OA
ENDBRANCH   1  18
BRANCH   7  22
ATOM     22  C   UNL     1      -4.913   0.034  -3.456  0.00  0.00    +0.107 C 
ATOM     23  C   UNL     1      -4.936  -0.956  -4.639  0.00  0.00    +0.027 C 
ATOM     24  C   UNL     1      -6.370  -1.231  -5.003  0.00  0.00    +0.002 C 
ATOM     25  C   UNL     1      -6.878  -0.314  -6.132  0.00  0.00    +0.000 C 
ATOM     26  C   UNL     1      -6.411   1.146  -5.971  0.00  0.00    +0.000 C 
ATOM     27  C   UNL     1      -6.492   1.623  -4.546  0.00  0.00    +0.002 C 
ATOM     28  C   UNL     1      -5.117   1.411  -3.880  0.00  0.00    +0.027 C 
ENDBRANCH   7  22
BRANCH  10  29
ATOM     29  O   UNL     1      -5.882  -1.342   0.882  0.00  0.00    -0.495 OA
ATOM     30  H   UNL     1      -6.523  -1.138   0.187  0.00  0.00    +0.293 HD
ENDBRANCH  10  29
TORSDOF 3
