REMARK  Name = ZINC06498952
REMARK  7 active torsions:
REMARK  status: ('A' for Active; 'I' for Inactive)
REMARK    1  A    between atoms: C_1  and  C_2
REMARK    2  A    between atoms: C_5  and  S_8
REMARK    3  A    between atoms: S_8  and  C_9
REMARK    4  A    between atoms: C_9  and  C_10
REMARK    5  A    between atoms: C_17  and  N_32
REMARK    6  A    between atoms: C_18  and  C_30
REMARK    7  A    between atoms: N_26  and  C_29
REMARK                            x       y       z     vdW  Elec       q    Type
REMARK                         _______ _______ _______ _____ _____    ______ ____
ROOT
ATOM      1  C   UNL     1       0.097  -6.482   1.870  0.00  0.00    +0.055 A 
ATOM      2  C   UNL     1      -0.976  -7.285   1.942  0.00  0.00    +0.062 A 
ATOM      3  C   UNL     1      -0.518  -8.617   2.062  0.00  0.00    +0.245 A 
ATOM      4  N   UNL     1       0.782  -8.597   2.062  0.00  0.00    -0.135 NA
ATOM      5  N   UNL     1       1.200  -7.263   1.936  0.00  0.00    -0.277 N 
ATOM      6  H   UNL     1       2.119  -6.954   1.904  0.00  0.00    +0.189 HD
ATOM      7  O   UNL     1      -1.379  -9.666   2.153  0.00  0.00    -0.421 OA
ATOM      8  C   UNL     1      -2.676  -9.442   1.866  0.00  0.00    +0.201 C 
ATOM      9  C   UNL     1      -3.229  -8.216   1.738  0.00  0.00    +0.110 C 
ATOM     10  C   UNL     1      -2.440  -6.948   1.911  0.00  0.00    +0.145 C 
ATOM     11  C   UNL     1      -2.854  -6.211   3.144  0.00  0.00    -0.001 A 
ATOM     12  C   UNL     1      -2.829  -6.567   4.475  0.00  0.00    +0.007 A 
ATOM     13  C   UNL     1      -3.296  -5.629   5.389  0.00  0.00    +0.000 A 
ATOM     14  C   UNL     1      -3.762  -4.396   4.978  0.00  0.00    +0.002 A 
ATOM     15  C   UNL     1      -3.791  -4.031   3.642  0.00  0.00    +0.024 A 
ATOM     16  C   UNL     1      -3.326  -4.964   2.714  0.00  0.00    +0.041 A 
ATOM     17  N   UNL     1      -3.243  -4.868   1.336  0.00  0.00    -0.273 N 
ATOM     18  C   UNL     1      -2.735  -5.988   0.780  0.00  0.00    +0.240 C 
ATOM     19  O   UNL     1      -2.550  -6.187  -0.402  0.00  0.00    -0.274 OA
ATOM     20  C   UNL     1      -3.657  -3.689   0.571  0.00  0.00    +0.138 C 
ENDROOT
BRANCH   8  21
ATOM     21  N   UNL     1      -3.490 -10.533   1.690  0.00  0.00    -0.328 N 
ATOM     22  H   UNL     1      -3.127 -11.428   1.774  0.00  0.00    +0.145 HD
ATOM     23  H   UNL     1      -4.430 -10.409   1.482  0.00  0.00    +0.145 HD
ENDBRANCH   8  21
BRANCH   9  24
ATOM     24  C   UNL     1      -4.624  -8.120   1.427  0.00  0.00    +0.102 C 
ATOM     25  N   UNL     1      -5.730  -8.044   1.180  0.00  0.00    -0.191 NA
ENDBRANCH   9  24
BRANCH   1  26
ATOM     26  C   UNL     1       0.077  -4.981   1.735  0.00  0.00    +0.129 C 
BRANCH  26  27
ATOM     27  S   UNL     1       0.062  -4.533  -0.023  0.00  0.00    -0.119 S 
BRANCH  27  32
ATOM     28  C   UNL     1      -0.018   1.503   0.010  0.00  0.00    +0.044 C 
ATOM     29  C   UNL     1       0.002  -0.004   0.002  0.00  0.00    -0.050 A 
ATOM     30  C   UNL     1       0.006  -0.687  -1.200  0.00  0.00    +0.004 A 
ATOM     31  C   UNL     1       0.024  -2.068  -1.212  0.00  0.00    +0.015 A 
ATOM     32  C   UNL     1       0.039  -2.771  -0.013  0.00  0.00    +0.008 A 
ATOM     33  C   UNL     1       0.036  -2.081   1.193  0.00  0.00    +0.015 A 
ATOM     34  C   UNL     1       0.023  -0.700   1.197  0.00  0.00    +0.004 A 
ENDBRANCH  27  32
ENDBRANCH  26  27
ENDBRANCH   1  26
TORSDOF 5
