REMARK  Name = ZINC04264776
REMARK  9 active torsions:
REMARK  status: ('A' for Active; 'I' for Inactive)
REMARK    1  A    between atoms: C_1  and  C_2
REMARK    2  A    between atoms: C_2  and  C_4
REMARK    3  A    between atoms: C_2  and  O_32
REMARK    4  A    between atoms: C_4  and  O_31
REMARK    5  A    between atoms: C_9  and  C_30
REMARK    6  A    between atoms: C_11  and  O_29
REMARK    7  A    between atoms: C_19  and  C_28
REMARK    8  A    between atoms: C_20  and  C_27
REMARK    9  A    between atoms: C_23  and  O_26
REMARK                            x       y       z     vdW  Elec       q    Type
REMARK                         _______ _______ _______ _____ _____    ______ ____
ROOT
ATOM      1  C   UNL     1       1.065  -0.721   0.772  0.00  0.00    +0.097 C 
ATOM      2  C   UNL     1       0.265  -0.220   2.004  0.00  0.00    +0.038 C 
ATOM      3  C   UNL     1       0.024  -1.469   2.906  0.00  0.00    +0.007 C 
ATOM      4  C   UNL     1       1.142  -2.401   2.428  0.00  0.00    +0.001 C 
ATOM      5  C   UNL     1       1.020  -2.260   0.897  0.00  0.00    +0.005 C 
ATOM      6  C   UNL     1       2.147  -3.009   0.241  0.00  0.00    +0.041 C 
ATOM      7  C   UNL     1       2.169  -4.487   0.667  0.00  0.00    +0.119 C 
ATOM      8  C   UNL     1       1.164  -4.822   1.752  0.00  0.00    +0.027 C 
ATOM      9  C   UNL     1       1.158  -3.825   2.899  0.00  0.00    -0.001 C 
ATOM     10  C   UNL     1       0.005  -4.132   3.847  0.00  0.00    +0.005 C 
ATOM     11  C   UNL     1       0.009  -5.582   4.313  0.00  0.00    +0.007 C 
ATOM     12  C   UNL     1       1.171  -6.396   3.757  0.00  0.00    -0.024 C 
ATOM     13  C   UNL     1       1.274  -6.261   2.246  0.00  0.00    -0.021 C 
ATOM     14  C   UNL     1       2.542  -6.964   1.773  0.00  0.00    +0.010 C 
ATOM     15  C   UNL     1       2.485  -8.449   2.118  0.00  0.00    +0.032 C 
ATOM     16  C   UNL     1       2.053  -8.761   3.535  0.00  0.00    +0.115 C 
ATOM     17  C   UNL     1       0.954  -7.880   4.097  0.00  0.00    +0.038 C 
ATOM     18  C   UNL     1       0.073  -7.002   1.603  0.00  0.00    +0.012 C 
ATOM     19  C   UNL     1       2.465  -5.990   4.475  0.00  0.00    +0.012 C 
ATOM     20  C   UNL     1      -0.340  -2.683   0.346  0.00  0.00    +0.014 C 
ENDROOT
BRANCH   1  22
ATOM     21  C   UNL     1       0.429   1.239  -0.636  0.00  0.00    +0.040 C 
ATOM     22  C   UNL     1       0.380  -0.286  -0.521  0.00  0.00    +0.144 C 
BRANCH  22  23
ATOM     23  O   UNL     1       1.055  -0.870  -1.637  0.00  0.00    -0.389 OA
ATOM     24  H   UNL     1       1.986  -0.619  -1.709  0.00  0.00    +0.210 HD
ENDBRANCH  22  23
ENDBRANCH   1  22
BRANCH  16  25
ATOM     25  O   UNL     1       3.189  -8.779   4.407  0.00  0.00    -0.392 OA
ATOM     26  H   UNL     1       3.857  -9.436   4.169  0.00  0.00    +0.210 HD
ENDBRANCH  16  25
BRANCH   7  27
ATOM     27  O   UNL     1       1.887  -5.275  -0.504  0.00  0.00    -0.391 OA
ATOM     28  H   UNL     1       2.524  -5.156  -1.221  0.00  0.00    +0.210 HD
ENDBRANCH   7  27
BRANCH   1  29
ATOM     29  O   UNL     1       2.410  -0.260   0.822  0.00  0.00    -0.385 OA
ATOM     30  H   UNL     1       2.498   0.702   0.770  0.00  0.00    +0.210 HD
ENDBRANCH   1  29
TORSDOF 5
