REMARK  Name = ZINC40814805
REMARK  10 active torsions:
REMARK  status: ('A' for Active; 'I' for Inactive)
REMARK    1  A    between atoms: C_1  and  C_2
REMARK    2  A    between atoms: C_6  and  C_7
REMARK    3  A    between atoms: N_9  and  C_10
REMARK    4  A    between atoms: C_12  and  C_18
REMARK    5  A    between atoms: C_12  and  C_19
REMARK    6  A    between atoms: C_14  and  C_16
REMARK    7  A    between atoms: C_14  and  C_17
REMARK    8  A    between atoms: N_24  and  N_25
REMARK    9  A    between atoms: N_25  and  C_26
REMARK   10  A    between atoms: C_29  and  N_32
REMARK                            x       y       z     vdW  Elec       q    Type
REMARK                         _______ _______ _______ _____ _____    ______ ____
ROOT
ATOM      1  C   UNL     1       0.425   1.686   0.009  0.00  0.00    +0.048 C 
ATOM      2  C   UNL     1       0.339   0.181   0.012  0.00  0.00    +0.009 A 
ATOM      3  C   UNL     1       0.279  -0.659  -1.106  0.00  0.00    +0.042 A 
ATOM      4  C   UNL     1       0.209  -1.952  -0.647  0.00  0.00    +0.115 A 
ATOM      5  O   UNL     1       0.228  -1.919   0.683  0.00  0.00    -0.454 OA
ATOM      6  C   UNL     1       0.310  -0.637   1.107  0.00  0.00    +0.193 A 
ATOM      7  C   UNL     1       0.125  -3.145  -1.566  0.00  0.00    +0.075 C 
ATOM      8  C   UNL     1      -0.378  -2.695  -2.940  0.00  0.00    +0.014 C 
ATOM      9  C   UNL     1       0.472  -1.538  -3.475  0.00  0.00    +0.058 C 
ATOM     10  C   UNL     1       0.283  -0.342  -2.553  0.00  0.00    +0.070 C 
ATOM     11  N   UNL     1       0.137   0.867  -3.001  0.00  0.00    -0.186 NA
ENDROOT
BRANCH   6  12
ATOM     12  C   UNL     1       0.358  -0.198   2.506  0.00  0.00    +0.280 C 
ATOM     13  O   UNL     1       0.429   0.988   2.770  0.00  0.00    -0.267 OA
ATOM     14  N   UNL     1       0.322  -1.109   3.499  0.00  0.00    -0.306 N 
ATOM     15  H   UNL     1       0.265  -2.054   3.289  0.00  0.00    +0.149 HD
BRANCH  14  16
ATOM     16  C   UNL     1       0.369  -0.669   4.900  0.00  0.00    +0.071 C 
ATOM     17  C   UNL     1       1.830  -0.523   5.331  0.00  0.00    +0.009 C 
ATOM     18  C   UNL     1       1.897  -0.078   6.792  0.00  0.00    -0.072 C 
ATOM     19  N   UNL     1       1.142  -0.960   7.669  0.00  0.00    +0.386 N 
ATOM     20  C   UNL     1      -0.200  -1.338   7.255  0.00  0.00    -0.072 C 
ATOM     21  C   UNL     1      -0.287  -1.730   5.783  0.00  0.00    +0.009 C 
ATOM     22  C   UNL     1      -1.219  -0.238   7.563  0.00  0.00    -0.010 C 
ATOM     23  C   UNL     1      -0.610  -2.579   8.084  0.00  0.00    -0.010 C 
ATOM     24  C   UNL     1       1.454   1.379   6.921  0.00  0.00    -0.010 C 
ATOM     25  C   UNL     1       3.380  -0.146   7.224  0.00  0.00    -0.010 C 
ATOM     26  H   UNL     1       1.687  -1.814   7.811  0.00  0.00    -0.084 HD
ATOM     27  H   UNL     1       1.083  -0.523   8.592  0.00  0.00    -0.084 HD
ENDBRANCH  14  16
ENDBRANCH   6  12
BRANCH  11  28
ATOM     28  N   UNL     1       0.150   1.108  -4.381  0.00  0.00    -0.238 N 
ATOM     29  H   UNL     1       0.268   0.371  -5.001  0.00  0.00    +0.174 HD
BRANCH  28  30
ATOM     30  C   UNL     1      -0.007   2.407  -4.863  0.00  0.00    +0.048 A 
ATOM     31  C   UNL     1      -0.171   3.465  -3.976  0.00  0.00    +0.027 A 
ATOM     32  C   UNL     1      -0.326   4.750  -4.457  0.00  0.00    +0.034 A 
ATOM     33  C   UNL     1      -0.319   4.985  -5.820  0.00  0.00    +0.126 A 
ATOM     34  C   UNL     1      -0.157   3.936  -6.706  0.00  0.00    +0.034 A 
ATOM     35  C   UNL     1       0.005   2.649  -6.232  0.00  0.00    +0.027 A 
BRANCH  33  36
ATOM     36  N   UNL     1      -0.487   6.367  -6.333  0.00  0.00    +0.056 N 
ATOM     37  O   UNL     1      -0.630   7.286  -5.560  0.00  0.00    -0.126 OA
ATOM     38  O   UNL     1      -0.481   6.575  -7.524  0.00  0.00    -0.126 OA
ENDBRANCH  33  36
ENDBRANCH  28  30
ENDBRANCH  11  28
TORSDOF 5
