REMARK  Name = ZINC39325362
REMARK  10 active torsions:
REMARK  status: ('A' for Active; 'I' for Inactive)
REMARK    1  A    between atoms: C_1  and  C_2
REMARK    2  A    between atoms: C_7  and  C_8
REMARK    3  A    between atoms: C_8  and  C_9
REMARK    4  A    between atoms: C_9  and  N_10
REMARK    5  A    between atoms: N_10  and  C_11
REMARK    6  A    between atoms: N_10  and  S_26
REMARK    7  A    between atoms: C_11  and  C_12
REMARK    8  A    between atoms: C_17  and  O_24
REMARK    9  A    between atoms: O_24  and  C_25
REMARK   10  A    between atoms: S_26  and  C_29
REMARK                            x       y       z     vdW  Elec       q    Type
REMARK                         _______ _______ _______ _____ _____    ______ ____
ROOT
ATOM      1  N   UNL     1      -1.392   1.117   4.049  0.00  0.00    -0.175 NA
ENDROOT
BRANCH   1   2
ATOM      2  S   UNL     1      -1.742   0.200   5.383  0.00  0.00    +0.061 S 
ATOM      3  O   UNL     1      -2.339   1.074   6.331  0.00  0.00    -0.153 OA
ATOM      4  O   UNL     1      -2.394  -0.971   4.911  0.00  0.00    -0.153 OA
BRANCH   2   5
ATOM      5  C   UNL     1      -0.207  -0.321   6.074  0.00  0.00    +0.109 A 
ATOM      6  C   UNL     1       0.370  -1.506   5.658  0.00  0.00    +0.032 A 
ATOM      7  C   UNL     1       1.573  -1.919   6.199  0.00  0.00    +0.051 A 
ATOM      8  C   UNL     1       2.205  -1.144   7.160  0.00  0.00    +0.162 A 
ATOM      9  C   UNL     1       1.626   0.048   7.577  0.00  0.00    +0.164 A 
ATOM     10  C   UNL     1       0.420   0.459   7.027  0.00  0.00    +0.078 A 
ATOM     11  O   UNL     1       2.233   0.828   8.513  0.00  0.00    -0.485 OA
ATOM     12  C   UNL     1       3.251   0.207   9.305  0.00  0.00    +0.270 C 
ATOM     13  C   UNL     1       4.175  -0.583   8.368  0.00  0.00    +0.270 C 
ATOM     14  O   UNL     1       3.388  -1.565   7.686  0.00  0.00    -0.485 OA
ENDBRANCH   2   5
ENDBRANCH   1   2
BRANCH   1  15
ATOM     15  C   UNL     1      -1.372   0.499   2.720  0.00  0.00    +0.114 C 
BRANCH  15  16
ATOM     16  C   UNL     1       0.055   0.064   2.381  0.00  0.00    +0.052 C 
BRANCH  16  23
ATOM     17  C   UNL     1       0.293   1.717   0.023  0.00  0.00    +0.044 C 
ATOM     18  C   UNL     1       0.189   0.220  -0.113  0.00  0.00    -0.047 A 
ATOM     19  C   UNL     1       0.213  -0.364  -1.367  0.00  0.00    +0.003 A 
ATOM     20  C   UNL     1       0.118  -1.737  -1.492  0.00  0.00    +0.000 A 
ATOM     21  C   UNL     1      -0.001  -2.527  -0.364  0.00  0.00    +0.000 A 
ATOM     22  C   UNL     1      -0.025  -1.944   0.889  0.00  0.00    +0.004 A 
ATOM     23  C   UNL     1       0.075  -0.571   1.015  0.00  0.00    -0.043 A 
ENDBRANCH  16  23
ENDBRANCH  15  16
ENDBRANCH   1  15
BRANCH   1  24
ATOM     24  C   UNL     1      -1.102   2.545   4.197  0.00  0.00    +0.126 C 
BRANCH  24  25
ATOM     25  C   UNL     1      -2.394   3.347   4.035  0.00  0.00    +0.114 C 
ATOM     26  C   UNL     1      -2.984   3.011   2.679  0.00  0.00    -0.003 C 
ATOM     27  C   UNL     1      -3.185   4.042   1.811  0.00  0.00    -0.004 A 
ATOM     28  C   UNL     1      -3.749   3.805   0.482  0.00  0.00    +0.055 A 
ATOM     29  C   UNL     1      -3.931   4.866  -0.352  0.00  0.00    +0.121 A 
ATOM     30  C   UNL     1      -3.591   6.166   0.040  0.00  0.00    +0.047 A 
ATOM     31  C   UNL     1      -3.064   6.448   1.259  0.00  0.00    +0.027 A 
ATOM     32  C   UNL     1      -2.836   5.421   2.195  0.00  0.00    +0.041 A 
ATOM     33  N   UNL     1      -2.318   5.713   3.388  0.00  0.00    -0.284 N 
ATOM     34  C   UNL     1      -2.077   4.799   4.313  0.00  0.00    +0.225 C 
ATOM     35  O   UNL     1      -1.603   5.126   5.384  0.00  0.00    -0.275 OA
ATOM     36  H   UNL     1      -2.108   6.638   3.587  0.00  0.00    +0.155 HD
BRANCH  29  37
ATOM     37  O   UNL     1      -4.455   4.659  -1.590  0.00  0.00    -0.495 OA
ATOM     38  C   UNL     1      -4.625   5.807  -2.423  0.00  0.00    +0.277 C 
ENDBRANCH  29  37
ENDBRANCH  24  25
ENDBRANCH   1  24
TORSDOF 8
