REMARK  Name = ZINC66307293
REMARK  10 active torsions:
REMARK  status: ('A' for Active; 'I' for Inactive)
REMARK    1  A    between atoms: C_1  and  C_2
REMARK    2  A    between atoms: N_8  and  C_9
REMARK    3  A    between atoms: C_9  and  C_11
REMARK    4  A    between atoms: C_9  and  C_12
REMARK    5  A    between atoms: C_12  and  N_13
REMARK    6  A    between atoms: C_14  and  C_16
REMARK    7  A    between atoms: C_16  and  C_17
REMARK    8  A    between atoms: C_17  and  C_19
REMARK    9  A    between atoms: C_17  and  N_20
REMARK   10  A    between atoms: C_21  and  C_23
REMARK                            x       y       z     vdW  Elec       q    Type
REMARK                         _______ _______ _______ _____ _____    ______ ____
ROOT
ATOM      1  N   UNL     1       2.684  -2.167   2.422  0.00  0.00    -0.317 N 
ATOM      2  C   UNL     1       3.115  -2.985   3.403  0.00  0.00    +0.215 C 
ATOM      3  O   UNL     1       3.675  -2.524   4.375  0.00  0.00    -0.276 OA
ATOM      4  H   UNL     1       2.236  -2.535   1.645  0.00  0.00    +0.149 HD
ENDROOT
BRANCH   1   5
ATOM      5  C   UNL     1       2.893  -0.721   2.530  0.00  0.00    +0.088 C 
BRANCH   5   6
ATOM      6  C   UNL     1       2.158  -0.013   1.391  0.00  0.00    -0.054 C 
ATOM      7  C   UNL     1       2.533   1.471   1.385  0.00  0.00    -0.012 C 
BRANCH   6  14
ATOM      8  C   UNL     1       0.766  -2.018   0.002  0.00  0.00    -0.013 C 
ATOM      9  C   UNL     1       0.321  -1.553   1.390  0.00  0.00    -0.071 C 
ATOM     10  C   UNL     1      -1.198  -1.688   1.509  0.00  0.00    -0.016 C 
ATOM     11  C   UNL     1      -1.639  -1.223   2.900  0.00  0.00    -0.003 C 
ATOM     12  C   UNL     1      -1.165   0.217   3.120  0.00  0.00    -0.019 C 
ATOM     13  C   UNL     1       0.353   0.281   2.941  0.00  0.00    -0.078 C 
ATOM     14  N   UNL     1       0.708  -0.151   1.583  0.00  0.00    +0.384 N 
ATOM     15  H   UNL     1       0.225   0.426   0.911  0.00  0.00    -0.081 HD
ENDBRANCH   6  14
ENDBRANCH   5   6
ENDBRANCH   1   5
BRANCH   2  16
ATOM     16  C   UNL     1       2.901  -4.472   3.292  0.00  0.00    +0.117 C 
BRANCH  16  17
ATOM     17  C   UNL     1       3.479  -5.165   4.527  0.00  0.00    +0.079 C 
ATOM     18  C   UNL     1       3.152  -6.659   4.475  0.00  0.00    +0.028 C 
BRANCH  17  19
ATOM     19  N   UNL     1       4.932  -4.984   4.553  0.00  0.00    -0.312 N 
ATOM     20  C   UNL     1       5.597  -5.039   5.724  0.00  0.00    +0.216 C 
ATOM     21  O   UNL     1       4.993  -5.238   6.756  0.00  0.00    -0.276 OA
ATOM     22  H   UNL     1       5.416  -4.824   3.728  0.00  0.00    +0.149 HD
BRANCH  20  23
ATOM     23  C   UNL     1       7.093  -4.853   5.751  0.00  0.00    +0.075 C 
ATOM     24  C   UNL     1       7.757  -5.935   4.897  0.00  0.00    +0.013 C 
ATOM     25  C   UNL     1       9.275  -5.746   4.925  0.00  0.00    +0.001 C 
ATOM     26  C   UNL     1       9.777  -5.854   6.366  0.00  0.00    +0.000 C 
ATOM     27  C   UNL     1       9.113  -4.771   7.219  0.00  0.00    +0.001 C 
ATOM     28  C   UNL     1       7.594  -4.960   7.192  0.00  0.00    +0.013 C 
ENDBRANCH  20  23
ENDBRANCH  17  19
ENDBRANCH  16  17
ENDBRANCH   2  16
TORSDOF 7
