REMARK  Name = ZINC09541110
REMARK  6 active torsions:
REMARK  status: ('A' for Active; 'I' for Inactive)
REMARK    1  A    between atoms: C_4  and  N_8
REMARK    2  A    between atoms: C_9  and  C_11
REMARK    3  A    between atoms: C_11  and  S_12
REMARK    4  A    between atoms: S_12  and  C_13
REMARK    5  A    between atoms: C_16  and  C_19
REMARK    6  A    between atoms: N_17  and  N_18
REMARK                            x       y       z     vdW  Elec       q    Type
REMARK                         _______ _______ _______ _____ _____    ______ ____
ROOT
ATOM      1  C   UNL     1       6.277  -5.206   0.373  0.00  0.00    +0.209 A 
ATOM      2  N   UNL     1       7.413  -4.545   0.373  0.00  0.00    -0.120 NA
ATOM      3  N   UNL     1       8.400  -5.363   0.463  0.00  0.00    -0.125 NA
ATOM      4  C   UNL     1       7.955  -6.598   0.526  0.00  0.00    +0.200 A 
ATOM      5  N   UNL     1       6.580  -6.534   0.476  0.00  0.00    -0.223 N 
ENDROOT
BRANCH   4   6
ATOM      6  C   UNL     1       8.771  -7.819   0.635  0.00  0.00    +0.108 A 
ATOM      7  C   UNL     1      10.149  -7.883   0.696  0.00  0.00    +0.004 A 
ATOM      8  C   UNL     1      10.508  -9.226   0.794  0.00  0.00    +0.067 A 
ATOM      9  N   UNL     1       9.415  -9.952   0.793  0.00  0.00    -0.178 NA
ATOM     10  N   UNL     1       8.308  -9.101   0.700  0.00  0.00    -0.273 N 
ATOM     11  H   UNL     1       7.377  -9.374   0.683  0.00  0.00    +0.189 HD
ATOM     12  C   UNL     1      12.017  -9.341   0.864  0.00  0.00    +0.058 C 
ATOM     13  C   UNL     1      12.550  -7.983   0.361  0.00  0.00    +0.011 C 
ATOM     14  C   UNL     1      11.391  -7.021   0.694  0.00  0.00    +0.039 C 
ENDBRANCH   4   6
BRANCH   5  15
ATOM     15  N   UNL     1       5.702  -7.580   0.519  0.00  0.00    -0.295 N 
ATOM     16  H   UNL     1       5.503  -7.922  -0.409  0.00  0.00    +0.163 HD
ATOM     17  H   UNL     1       6.050  -8.319   1.111  0.00  0.00    +0.163 HD
ENDBRANCH   5  15
BRANCH   1  18
ATOM     18  S   UNL     1       4.662  -4.507   0.268  0.00  0.00    -0.075 S 
BRANCH  18  19
ATOM     19  C   UNL     1       4.963  -2.722   0.155  0.00  0.00    +0.173 C 
BRANCH  19  21
ATOM     20  N   UNL     1       3.623  -0.652  -0.036  0.00  0.00    -0.284 N 
ATOM     21  C   UNL     1       3.646  -1.996   0.058  0.00  0.00    +0.228 C 
ATOM     22  O   UNL     1       2.607  -2.622   0.065  0.00  0.00    -0.275 OA
ATOM     23  H   UNL     1       4.453  -0.157  -0.123  0.00  0.00    +0.155 HD
BRANCH  20  27
ATOM     24  C   UNL     1      -0.015   1.381   0.042  0.00  0.00    +0.021 A 
ATOM     25  C   UNL     1       1.083   1.956  -0.572  0.00  0.00    +0.023 A 
ATOM     26  C   UNL     1       2.290   1.284  -0.600  0.00  0.00    +0.062 A 
ATOM     27  C   UNL     1       2.401   0.031  -0.009  0.00  0.00    +0.053 A 
ATOM     28  C   UNL     1       1.297  -0.543   0.606  0.00  0.00    +0.044 A 
ATOM     29  C   UNL     1       0.092   0.134   0.630  0.00  0.00    +0.043 A 
ATOM     30 CL   UNL     1      -1.289  -0.583   1.401  0.00  0.00    -0.083 Cl
ATOM     31 CL   UNL     1       3.668   2.006  -1.371  0.00  0.00    -0.082 Cl
ENDBRANCH  20  27
ENDBRANCH  19  21
ENDBRANCH  18  19
ENDBRANCH   1  18
TORSDOF 6
