REMARK  Name = ZINC21317443
REMARK  8 active torsions:
REMARK  status: ('A' for Active; 'I' for Inactive)
REMARK    1  A    between atoms: C_4  and  C_7
REMARK    2  A    between atoms: C_8  and  C_9
REMARK    3  A    between atoms: N_10  and  N_11
REMARK    4  A    between atoms: C_15  and  S_18
REMARK    5  A    between atoms: N_16  and  N_17
REMARK    6  A    between atoms: S_18  and  C_19
REMARK    7  A    between atoms: C_19  and  C_20
REMARK    8  A    between atoms: C_20  and  C_22
REMARK                            x       y       z     vdW  Elec       q    Type
REMARK                         _______ _______ _______ _____ _____    ______ ____
ROOT
ATOM      1  N   UNL     1      -2.971   1.611  -0.005  0.00  0.00    -0.204 N 
ATOM      2  C   UNL     1      -2.083   1.769  -1.058  0.00  0.00    +0.254 A 
ATOM      3  N   UNL     1      -2.370   2.214  -2.257  0.00  0.00    -0.109 NA
ATOM      4  N   UNL     1      -1.310   2.232  -2.985  0.00  0.00    -0.119 NA
ATOM      5  C   UNL     1      -0.282   1.806  -2.292  0.00  0.00    +0.210 A 
ATOM      6  N   UNL     1      -0.741   1.490  -1.041  0.00  0.00    -0.211 N 
ATOM      7  H   UNL     1      -2.614   1.227   0.962  0.00  0.00    +0.177 HD
ENDROOT
BRANCH   6   8
ATOM      8  N   UNL     1      -0.012   1.005   0.008  0.00  0.00    -0.294 N 
ATOM      9  H   UNL     1       1.067   0.823  -0.110  0.00  0.00    +0.163 HD
ATOM     10  H   UNL     1      -0.503   0.796   0.969  0.00  0.00    +0.163 HD
ENDBRANCH   6   8
BRANCH   1  12
ATOM     11  C   UNL     1      -5.157   1.791   0.818  0.00  0.00    +0.130 C 
ATOM     12  N   UNL     1      -4.323   1.940  -0.172  0.00  0.00    -0.188 NA
BRANCH  11  14
ATOM     13  C   UNL     1      -7.388   1.970   1.674  0.00  0.00    +0.009 C 
ATOM     14  C   UNL     1      -6.524   2.124   0.649  0.00  0.00    +0.022 C 
BRANCH  13  18
ATOM     15  C   UNL     1     -11.480   2.967   1.167  0.00  0.00    +0.000 A 
ATOM     16  C   UNL     1     -11.035   2.484   2.385  0.00  0.00    +0.001 A 
ATOM     17  C   UNL     1      -9.706   2.157   2.558  0.00  0.00    +0.008 A 
ATOM     18  C   UNL     1      -8.808   2.316   1.498  0.00  0.00    -0.025 A 
ATOM     19  C   UNL     1      -9.264   2.810   0.272  0.00  0.00    +0.008 A 
ATOM     20  C   UNL     1     -10.597   3.127   0.113  0.00  0.00    +0.001 A 
ENDBRANCH  13  18
ENDBRANCH  11  14
ENDBRANCH   1  12
BRANCH   5  21
ATOM     21  S   UNL     1       1.378   1.662  -2.866  0.00  0.00    -0.076 S 
BRANCH  21  22
ATOM     22  C   UNL     1       1.176   2.254  -4.564  0.00  0.00    +0.157 C 
BRANCH  22  23
ATOM     23  C   UNL     1       2.507   2.219  -5.270  0.00  0.00    +0.173 C 
ATOM     24  O   UNL     1       3.495   1.832  -4.682  0.00  0.00    -0.291 OA
BRANCH  23  25
ATOM     25  C   UNL     1       2.609   2.654  -6.671  0.00  0.00    +0.018 A 
ATOM     26  C   UNL     1       1.470   3.096  -7.354  0.00  0.00    +0.012 A 
ATOM     27  C   UNL     1       1.574   3.508  -8.665  0.00  0.00    +0.016 A 
ATOM     28  C   UNL     1       2.799   3.474  -9.311  0.00  0.00    +0.018 A 
ATOM     29  C   UNL     1       3.930   3.032  -8.643  0.00  0.00    +0.016 A 
ATOM     30  C   UNL     1       3.842   2.623  -7.330  0.00  0.00    +0.012 A 
ATOM     31 BR   UNL     1       2.930   4.034 -11.112  0.00  0.00    -0.050 Br
ENDBRANCH  23  25
ENDBRANCH  22  23
ENDBRANCH  21  22
ENDBRANCH   5  21
TORSDOF 8
