REMARK  Name = ZINC64490953
REMARK  8 active torsions:
REMARK  status: ('A' for Active; 'I' for Inactive)
REMARK    1  A    between atoms: C_1  and  C_2
REMARK    2  A    between atoms: C_4  and  C_26
REMARK    3  A    between atoms: C_5  and  N_9
REMARK    4  A    between atoms: C_6  and  C_8
REMARK    5  A    between atoms: C_10  and  C_12
REMARK    6  A    between atoms: C_12  and  C_14
REMARK    7  A    between atoms: C_12  and  S_15
REMARK    8  A    between atoms: S_15  and  C_16
REMARK                            x       y       z     vdW  Elec       q    Type
REMARK                         _______ _______ _______ _____ _____    ______ ____
ROOT
ATOM      1  C   UNL     1       0.399  -6.476   0.969  0.00  0.00    +0.133 C 
ATOM      2  C   UNL     1      -1.008  -7.042   1.170  0.00  0.00    +0.029 C 
ENDROOT
BRANCH   1   4
ATOM      3  N   UNL     1      -0.052  -4.280  -0.077  0.00  0.00    -0.284 N 
ATOM      4  C   UNL     1       0.345  -4.970   1.010  0.00  0.00    +0.230 C 
ATOM      5  O   UNL     1       0.659  -4.380   2.022  0.00  0.00    -0.274 OA
ATOM      6  H   UNL     1      -0.371  -4.753  -0.862  0.00  0.00    +0.155 HD
BRANCH   3  11
ATOM      7  C   UNL     1       0.138   1.390  -0.065  0.00  0.00    +0.044 C 
ATOM      8  C   UNL     1       0.088  -0.116  -0.068  0.00  0.00    -0.050 A 
ATOM      9  C   UNL     1       0.760  -0.827  -1.046  0.00  0.00    +0.008 A 
ATOM     10  C   UNL     1       0.715  -2.208  -1.051  0.00  0.00    -0.029 A 
ATOM     11  C   UNL     1      -0.005  -2.882  -0.074  0.00  0.00    +0.039 A 
ATOM     12  C   UNL     1      -0.679  -2.165   0.906  0.00  0.00    -0.029 A 
ATOM     13  C   UNL     1      -0.626  -0.785   0.909  0.00  0.00    +0.008 A 
ATOM     14  C   UNL     1      -1.462  -2.892   1.969  0.00  0.00    +0.045 C 
ATOM     15  C   UNL     1       1.447  -2.982  -2.117  0.00  0.00    +0.045 C 
ENDBRANCH   3  11
ENDBRANCH   1   4
BRANCH   1  16
ATOM     16  S   UNL     1       1.488  -7.078   2.289  0.00  0.00    -0.102 S 
BRANCH  16  17
ATOM     17  C   UNL     1       1.565  -8.869   2.010  0.00  0.00    +0.237 C 
ATOM     18  N   UNL     1       0.218  -9.449   2.083  0.00  0.00    -0.354 N 
ATOM     19  C   UNL     1      -0.034  -9.992   0.929  0.00  0.00    +0.080 A 
ATOM     20  C   UNL     1      -1.203 -10.717   0.397  0.00  0.00    +0.030 A 
ATOM     21  C   UNL     1      -1.137 -11.162  -0.880  0.00  0.00    +0.022 A 
ATOM     22  C   UNL     1       0.011 -10.936  -1.663  0.00  0.00    +0.113 A 
ATOM     23  N   UNL     1       1.061 -10.302  -1.232  0.00  0.00    -0.236 NA
ATOM     24  C   UNL     1       1.131  -9.804   0.024  0.00  0.00    +0.152 A 
ATOM     25  N   UNL     1       2.065  -9.148   0.658  0.00  0.00    -0.340 N 
ATOM     26  H   UNL     1       2.930  -8.891   0.302  0.00  0.00    +0.164 HD
ATOM     27  H   UNL     1      -0.374  -9.431   2.850  0.00  0.00    +0.163 HD
ENDBRANCH  16  17
ENDBRANCH   1  16
TORSDOF 4
