REMARK  Name = ZINC09666123
REMARK  9 active torsions:
REMARK  status: ('A' for Active; 'I' for Inactive)
REMARK    1  A    between atoms: C_1  and  C_2
REMARK    2  A    between atoms: C_5  and  N_28
REMARK    3  A    between atoms: C_6  and  N_9
REMARK    4  A    between atoms: C_7  and  C_8
REMARK    5  A    between atoms: C_10  and  C_12
REMARK    6  A    between atoms: C_12  and  S_13
REMARK    7  A    between atoms: S_13  and  C_14
REMARK    8  A    between atoms: C_17  and  C_20
REMARK    9  A    between atoms: N_18  and  N_19
REMARK                            x       y       z     vdW  Elec       q    Type
REMARK                         _______ _______ _______ _____ _____    ______ ____
ROOT
ATOM      1  S   UNL     1      -2.897   2.321   1.731  0.00  0.00    -0.075 S 
ENDROOT
BRANCH   1   2
ATOM      2  C   UNL     1      -1.196   2.697   1.467  0.00  0.00    +0.209 A 
ATOM      3  N   UNL     1      -0.717   3.609   0.650  0.00  0.00    -0.121 NA
ATOM      4  N   UNL     1       0.568   3.614   0.700  0.00  0.00    -0.127 NA
ATOM      5  C   UNL     1       0.987   2.710   1.554  0.00  0.00    +0.183 A 
ATOM      6  N   UNL     1      -0.130   2.097   2.075  0.00  0.00    -0.224 N 
BRANCH   5   7
ATOM      7  C   UNL     1       2.394   2.408   1.894  0.00  0.00    +0.039 A 
ATOM      8  C   UNL     1       2.691   1.418   2.833  0.00  0.00    +0.014 A 
ATOM      9  C   UNL     1       4.005   1.137   3.142  0.00  0.00    +0.021 A 
ATOM     10  C   UNL     1       5.030   1.843   2.532  0.00  0.00    +0.042 A 
ATOM     11  C   UNL     1       4.742   2.829   1.605  0.00  0.00    +0.040 A 
ATOM     12  C   UNL     1       3.430   3.116   1.282  0.00  0.00    +0.053 A 
ATOM     13 CL   UNL     1       3.071   4.355   0.120  0.00  0.00    -0.083 Cl
ATOM     14 CL   UNL     1       6.681   1.487   2.932  0.00  0.00    -0.083 Cl
ENDBRANCH   5   7
BRANCH   6  15
ATOM     15  N   UNL     1      -0.165   1.094   3.001  0.00  0.00    -0.295 N 
ATOM     16  H   UNL     1      -0.203   1.468   3.937  0.00  0.00    +0.163 HD
ATOM     17  H   UNL     1      -0.938   0.470   2.829  0.00  0.00    +0.163 HD
ENDBRANCH   6  15
ENDBRANCH   1   2
BRANCH   1  18
ATOM     18  C   UNL     1      -3.661   3.507   0.596  0.00  0.00    +0.173 C 
BRANCH  18  20
ATOM     19  N   UNL     1      -5.942   4.150  -0.111  0.00  0.00    -0.283 N 
ATOM     20  C   UNL     1      -5.160   3.364   0.655  0.00  0.00    +0.228 C 
ATOM     21  O   UNL     1      -5.662   2.541   1.391  0.00  0.00    -0.275 OA
ATOM     22  H   UNL     1      -5.545   4.854  -0.648  0.00  0.00    +0.155 HD
BRANCH  19  28
ATOM     23  C   UNL     1      -9.775   1.125  -0.687  0.00  0.00    +0.044 C 
ATOM     24  C   UNL     1      -9.212   2.495  -0.408  0.00  0.00    -0.046 A 
ATOM     25  C   UNL     1     -10.065   3.558  -0.174  0.00  0.00    +0.006 A 
ATOM     26  C   UNL     1      -9.553   4.816   0.082  0.00  0.00    +0.035 A 
ATOM     27  C   UNL     1      -8.186   5.015   0.109  0.00  0.00    +0.148 A 
ATOM     28  C   UNL     1      -7.327   3.951  -0.132  0.00  0.00    +0.067 A 
ATOM     29  C   UNL     1      -7.845   2.688  -0.389  0.00  0.00    -0.024 A 
ATOM     30  C   UNL     1      -6.915   1.529  -0.644  0.00  0.00    +0.046 C 
BRANCH  27  31
ATOM     31  N   UNL     1      -7.638   6.361   0.389  0.00  0.00    +0.058 N 
ATOM     32  O   UNL     1      -8.389   7.314   0.493  0.00  0.00    -0.126 OA
ATOM     33  O   UNL     1      -6.437   6.516   0.514  0.00  0.00    -0.126 OA
ENDBRANCH  27  31
ENDBRANCH  19  28
ENDBRANCH  18  20
ENDBRANCH   1  18
TORSDOF 7
