REMARK  Name = ZINC44786298
REMARK  6 active torsions:
REMARK  status: ('A' for Active; 'I' for Inactive)
REMARK    1  A    between atoms: C_1  and  C_2
REMARK    2  A    between atoms: C_2  and  C_4
REMARK    3  A    between atoms: C_2  and  N_11
REMARK    4  A    between atoms: C_12  and  C_14
REMARK    5  A    between atoms: C_14  and  C_19
REMARK    6  A    between atoms: N_20  and  O_21
REMARK                            x       y       z     vdW  Elec       q    Type
REMARK                         _______ _______ _______ _____ _____    ______ ____
ROOT
ATOM      1  N   UNL     1      -1.375  -0.509   0.009  0.00  0.00    -0.308 N 
ATOM      2  C   UNL     1      -2.030  -0.654   1.179  0.00  0.00    +0.227 C 
ATOM      3  O   UNL     1      -1.453  -0.449   2.226  0.00  0.00    -0.275 OA
ATOM      4  H   UNL     1      -1.814  -0.744  -0.824  0.00  0.00    +0.149 HD
ENDROOT
BRANCH   2   5
ATOM      5  C   UNL     1      -3.478  -1.069   1.185  0.00  0.00    +0.105 C 
ATOM      6  C   UNL     1      -4.048  -0.975   2.616  0.00  0.00    +0.024 C 
ATOM      7  C   UNL     1      -4.728   0.416   2.663  0.00  0.00    +0.001 C 
ATOM      8  C   UNL     1      -5.351   0.541   1.251  0.00  0.00    +0.001 C 
ATOM      9  C   UNL     1      -4.307  -0.105   0.318  0.00  0.00    +0.024 C 
BRANCH   5  10
ATOM     10  C   UNL     1      -3.614  -2.477   0.666  0.00  0.00    +0.147 C 
ATOM     11  N   UNL     1      -4.256  -2.701  -0.432  0.00  0.00    -0.076 NA
ATOM     12  N   UNL     1      -3.053  -3.525   1.362  0.00  0.00    -0.343 N 
ATOM     13  H   UNL     1      -2.509  -3.350   2.146  0.00  0.00    +0.144 HD
ATOM     14  H   UNL     1      -3.201  -4.437   1.068  0.00  0.00    +0.144 HD
BRANCH  11  15
ATOM     15  O   UNL     1      -4.384  -4.025  -0.920  0.00  0.00    -0.408 OA
ATOM     16  H   UNL     1      -4.880  -4.093  -1.747  0.00  0.00    +0.328 HD
ENDBRANCH  11  15
ENDBRANCH   5  10
ENDBRANCH   2   5
BRANCH   1  18
ATOM     17  C   UNL     1      -0.027   1.531   0.003  0.00  0.00    +0.033 C 
ATOM     18  C   UNL     1      -0.002   0.001  -0.004  0.00  0.00    +0.100 C 
BRANCH  18  19
ATOM     19  C   UNL     1       0.703  -0.485  -1.244  0.00  0.00    -0.027 A 
ATOM     20  C   UNL     1       0.031  -0.519  -2.452  0.00  0.00    +0.006 A 
ATOM     21  C   UNL     1       0.677  -0.964  -3.590  0.00  0.00    +0.015 A 
ATOM     22  C   UNL     1       1.996  -1.375  -3.520  0.00  0.00    +0.018 A 
ATOM     23  C   UNL     1       2.668  -1.340  -2.311  0.00  0.00    +0.015 A 
ATOM     24  C   UNL     1       2.022  -0.890  -1.175  0.00  0.00    +0.006 A 
ATOM     25 BR   UNL     1       2.880  -1.984  -5.076  0.00  0.00    -0.050 Br
ENDBRANCH  18  19
ENDBRANCH   1  18
TORSDOF 5
