REMARK  Name = ZINC13009441
REMARK  15 active torsions:
REMARK  status: ('A' for Active; 'I' for Inactive)
REMARK    1  A    between atoms: C_1  and  C_2
REMARK    2  A    between atoms: C_2  and  C_3
REMARK    3  A    between atoms: C_3  and  C_4
REMARK    4  A    between atoms: C_4  and  N_5
REMARK    5  A    between atoms: C_6  and  N_38
REMARK    6  A    between atoms: C_7  and  N_14
REMARK    7  A    between atoms: N_14  and  C_15
REMARK    8  A    between atoms: C_15  and  C_16
REMARK    9  A    between atoms: C_16  and  C_17
REMARK   10  A    between atoms: C_16  and  C_18
REMARK   11  A    between atoms: C_19  and  C_21
REMARK   12  A    between atoms: C_21  and  N_22
REMARK   13  A    between atoms: C_27  and  C_34
REMARK   14  A    between atoms: C_30  and  C_32
REMARK   15  A    between atoms: C_30  and  C_33
REMARK                            x       y       z     vdW  Elec       q    Type
REMARK                         _______ _______ _______ _____ _____    ______ ____
ROOT
ATOM      1  N   UNL     1       5.672  -3.390   4.093  0.00  0.00    -0.263 N 
ATOM      2  C   UNL     1       6.219  -2.982   2.929  0.00  0.00    +0.238 C 
ATOM      3  O   UNL     1       5.506  -2.700   1.989  0.00  0.00    -0.274 OA
ENDROOT
BRANCH   1   6
ATOM      4  N   UNL     1       2.192  -2.243   4.360  0.00  0.00    -0.280 N 
ATOM      5  C   UNL     1       3.558  -2.210   4.202  0.00  0.00    +0.127 A 
ATOM      6  C   UNL     1       4.270  -3.391   4.252  0.00  0.00    +0.140 A 
ATOM      7  C   UNL     1       3.574  -4.596   4.463  0.00  0.00    +0.277 A 
ATOM      8  O   UNL     1       4.178  -5.654   4.511  0.00  0.00    -0.266 OA
ATOM      9  N   UNL     1       2.235  -4.572   4.611  0.00  0.00    -0.273 N 
ATOM     10  H   UNL     1       1.754  -5.402   4.757  0.00  0.00    +0.173 HD
ATOM     11  C   UNL     1       1.558  -3.411   4.565  0.00  0.00    +0.331 A 
ATOM     12  O   UNL     1       0.350  -3.419   4.707  0.00  0.00    -0.246 OA
BRANCH   5  13
ATOM     13  N   UNL     1       4.206  -1.015   3.997  0.00  0.00    -0.343 N 
ATOM     14  H   UNL     1       3.693  -0.202   3.869  0.00  0.00    +0.144 HD
ATOM     15  H   UNL     1       5.175  -0.986   3.981  0.00  0.00    +0.144 HD
ENDBRANCH   5  13
BRANCH   4  16
ATOM     16  C   UNL     1       1.423  -0.997   4.309  0.00  0.00    +0.128 C 
BRANCH  16  17
ATOM     17  C   UNL     1       1.322  -0.403   5.716  0.00  0.00    +0.021 C 
BRANCH  17  19
ATOM     18  C   UNL     1       0.418   1.493   7.070  0.00  0.00    +0.004 C 
ATOM     19  C   UNL     1       0.519   0.899   5.663  0.00  0.00    -0.002 C 
ENDBRANCH  17  19
ENDBRANCH  16  17
ENDBRANCH   4  16
ENDBRANCH   1   6
BRANCH   1  20
ATOM     20  C   UNL     1       6.534  -3.833   5.192  0.00  0.00    +0.117 C 
BRANCH  20  21
ATOM     21  C   UNL     1       6.922  -2.630   6.053  0.00  0.00    +0.001 C 
ATOM     22  C   UNL     1       5.678  -2.080   6.753  0.00  0.00    +0.009 C 
ATOM     23  C   UNL     1       7.949  -3.063   7.101  0.00  0.00    +0.009 C 
ENDBRANCH  20  21
ENDBRANCH   1  20
BRANCH   2  24
ATOM     24  C   UNL     1       7.717  -2.875   2.797  0.00  0.00    +0.214 C 
BRANCH  24  25
ATOM     25  N   UNL     1       8.052  -2.298   1.493  0.00  0.00    -0.215 N 
ATOM     26  C   UNL     1       8.254  -3.022   0.373  0.00  0.00    +0.247 C 
ATOM     27  O   UNL     1       8.195  -4.227   0.257  0.00  0.00    -0.273 OA
ATOM     28  C   UNL     1       8.569  -2.013  -0.708  0.00  0.00    +0.113 C 
ATOM     29  C   UNL     1       9.967  -2.252  -1.267  0.00  0.00    +0.038 C 
ATOM     30  C   UNL     1      10.277  -1.202  -2.337  0.00  0.00    -0.011 C 
ATOM     31  C   UNL     1       9.239  -1.296  -3.458  0.00  0.00    +0.009 C 
ATOM     32  C   UNL     1       7.845  -1.031  -2.886  0.00  0.00    -0.032 C 
ATOM     33  C   UNL     1       7.525  -2.080  -1.818  0.00  0.00    +0.041 C 
ATOM     34  C   UNL     1       7.807   0.364  -2.259  0.00  0.00    +0.011 C 
ATOM     35  C   UNL     1       6.809  -1.114  -4.009  0.00  0.00    +0.011 C 
ATOM     36  C   UNL     1      11.672  -1.456  -2.912  0.00  0.00    +0.007 C 
ATOM     37  N   UNL     1       8.504  -0.719  -0.018  0.00  0.00    -0.285 N 
ATOM     38  C   UNL     1       8.191  -0.986   1.264  0.00  0.00    +0.310 C 
ATOM     39  O   UNL     1       8.052  -0.133   2.119  0.00  0.00    -0.252 OA
ATOM     40  H   UNL     1       8.655   0.156  -0.409  0.00  0.00    +0.151 HD
ENDBRANCH  24  25
ENDBRANCH   2  24
TORSDOF 9
