REMARK  Name = ZINC39685956
REMARK  7 active torsions:
REMARK  status: ('A' for Active; 'I' for Inactive)
REMARK    1  A    between atoms: C_1  and  C_2
REMARK    2  A    between atoms: C_2  and  C_3
REMARK    3  A    between atoms: C_2  and  C_4
REMARK    4  A    between atoms: C_9  and  N_12
REMARK    5  A    between atoms: C_13  and  C_15
REMARK    6  A    between atoms: C_26  and  C_28
REMARK    7  A    between atoms: C_33  and  C_34
REMARK                            x       y       z     vdW  Elec       q    Type
REMARK                         _______ _______ _______ _____ _____    ______ ____
ROOT
ATOM      1  C   UNL     1      -3.529  -8.118  -2.868  0.00  0.00    +0.100 C 
ATOM      2  C   UNL     1      -4.146  -7.247  -3.985  0.00  0.00    +0.121 C 
ATOM      3  N   UNL     1      -5.334  -8.007  -4.440  0.00  0.00    -0.296 N 
ATOM      4  C   UNL     1      -5.915  -8.563  -3.194  0.00  0.00    +0.115 C 
ATOM      5  C   UNL     1      -4.694  -8.979  -2.350  0.00  0.00    -0.004 C 
ATOM      6  C   UNL     1      -4.949  -8.691  -0.874  0.00  0.00    -0.010 C 
ATOM      7  C   UNL     1      -6.072  -9.601  -0.368  0.00  0.00    -0.082 C 
ATOM      8  N   UNL     1      -5.687 -11.005  -0.553  0.00  0.00    +0.379 N 
ATOM      9  C   UNL     1      -5.534 -11.298  -1.983  0.00  0.00    -0.082 C 
ATOM     10  C   UNL     1      -4.388 -10.460  -2.558  0.00  0.00    -0.010 C 
ATOM     11  C   UNL     1      -5.785  -8.160  -5.701  0.00  0.00    +0.247 C 
ATOM     12  O   UNL     1      -6.838  -8.731  -5.905  0.00  0.00    -0.270 OA
ATOM     13  H   UNL     1      -4.813 -11.178  -0.080  0.00  0.00    -0.086 HD
ATOM     14  H   UNL     1      -6.401 -11.603  -0.164  0.00  0.00    -0.086 HD
ENDROOT
BRANCH  11  15
ATOM     15  C   UNL     1      -4.997  -7.633  -6.836  0.00  0.00    +0.049 A 
ATOM     16  C   UNL     1      -4.309  -6.425  -6.710  0.00  0.00    +0.013 A 
ATOM     17  C   UNL     1      -3.576  -5.939  -7.773  0.00  0.00    +0.001 A 
ATOM     18  C   UNL     1      -3.522  -6.645  -8.961  0.00  0.00    +0.001 A 
ATOM     19  C   UNL     1      -4.202  -7.843  -9.092  0.00  0.00    +0.013 A 
ATOM     20  C   UNL     1      -4.934  -8.343  -8.035  0.00  0.00    +0.067 A 
BRANCH  20  21
ATOM     21  C   UNL     1      -5.670  -9.651  -8.178  0.00  0.00    +0.418 C 
ATOM     22  F   UNL     1      -5.456 -10.169  -9.460  0.00  0.00    -0.166 F 
ATOM     23  F   UNL     1      -5.197 -10.558  -7.223  0.00  0.00    -0.166 F 
ATOM     24  F   UNL     1      -7.039  -9.440  -7.982  0.00  0.00    -0.166 F 
ENDBRANCH  20  21
ENDBRANCH  11  15
BRANCH   1  26
ATOM     25  N   UNL     1      -2.051  -7.729  -0.923  0.00  0.00    -0.312 N 
ATOM     26  C   UNL     1      -2.989  -7.248  -1.762  0.00  0.00    +0.218 C 
ATOM     27  O   UNL     1      -3.399  -6.114  -1.628  0.00  0.00    -0.275 OA
ATOM     28  H   UNL     1      -1.723  -8.636  -1.031  0.00  0.00    +0.149 HD
BRANCH  25  34
ATOM     29  C   UNL     1       1.738  -5.851   2.422  0.00  0.00    +0.218 C 
ATOM     30  O   UNL     1       2.514  -5.005   2.028  0.00  0.00    -0.275 OA
ATOM     31  N   UNL     1       0.509  -5.943   1.876  0.00  0.00    -0.301 N 
ATOM     32  C   UNL     1      -0.483  -6.879   2.421  0.00  0.00    +0.109 C 
ATOM     33  C   UNL     1      -1.000  -7.767   1.285  0.00  0.00    +0.041 C 
ATOM     34  C   UNL     1      -1.525  -6.883   0.151  0.00  0.00    +0.076 C 
ATOM     35  C   UNL     1      -0.387  -6.017  -0.392  0.00  0.00    +0.041 C 
ATOM     36  C   UNL     1       0.135  -5.105   0.729  0.00  0.00    +0.109 C 
BRANCH  29  38
ATOM     37  C   UNL     1       2.832  -8.022   2.909  0.00  0.00    +0.017 C 
ATOM     38  C   UNL     1       2.148  -6.797   3.520  0.00  0.00    +0.069 C 
ATOM     39  C   UNL     1       3.120  -6.089   4.467  0.00  0.00    +0.017 C 
ENDBRANCH  29  38
ENDBRANCH  25  34
ENDBRANCH   1  26
TORSDOF 5
