REMARK  Name = ZINC09850116
REMARK  9 active torsions:
REMARK  status: ('A' for Active; 'I' for Inactive)
REMARK    1  A    between atoms: C_4  and  C_7
REMARK    2  A    between atoms: C_9  and  C_29
REMARK    3  A    between atoms: C_11  and  S_13
REMARK    4  A    between atoms: S_13  and  C_14
REMARK    5  A    between atoms: C_17  and  C_23
REMARK    6  A    between atoms: C_19  and  N_20
REMARK    7  A    between atoms: N_24  and  N_25
REMARK    8  A    between atoms: N_25  and  C_26
REMARK    9  A    between atoms: C_26  and  N_28
REMARK                            x       y       z     vdW  Elec       q    Type
REMARK                         _______ _______ _______ _____ _____    ______ ____
ROOT
ATOM      1  C   UNL     1      -0.021   1.758   0.017  0.00  0.00    +0.046 A 
ATOM      2  C   UNL     1       0.121   2.464  -1.173  0.00  0.00    +0.018 A 
ATOM      3  C   UNL     1       0.098   3.841  -1.166  0.00  0.00    +0.011 A 
ATOM      4  C   UNL     1      -0.058   4.529   0.040  0.00  0.00    -0.003 A 
ATOM      5  C   UNL     1      -0.195   3.817   1.235  0.00  0.00    +0.043 A 
ATOM      6  C   UNL     1      -0.177   2.439   1.219  0.00  0.00    +0.141 A 
ENDROOT
BRANCH   6   7
ATOM      7  N   UNL     1      -0.323   1.684   2.484  0.00  0.00    +0.058 N 
ATOM      8  O   UNL     1      -0.459   2.280   3.538  0.00  0.00    -0.126 OA
ATOM      9  O   UNL     1      -0.306   0.466   2.471  0.00  0.00    -0.126 OA
ENDBRANCH   6   7
BRANCH   4  10
ATOM     10  C   UNL     1      -0.078   6.003   0.053  0.00  0.00    +0.138 C 
ATOM     11  N   UNL     1       0.050   6.663  -1.058  0.00  0.00    -0.188 NA
BRANCH  11  12
ATOM     12  N   UNL     1       0.030   8.064  -1.046  0.00  0.00    -0.219 N 
ATOM     13  H   UNL     1      -0.078   8.540  -0.208  0.00  0.00    +0.176 HD
BRANCH  12  14
ATOM     14  C   UNL     1       0.163   8.749  -2.199  0.00  0.00    +0.147 C 
ATOM     15  S   UNL     1       0.140  10.461  -2.184  0.00  0.00    -0.017 S 
BRANCH  14  16
ATOM     16  N   UNL     1       0.314   8.087  -3.363  0.00  0.00    -0.339 N 
ATOM     17  H   UNL     1       0.327   7.117  -3.371  0.00  0.00    +0.144 HD
ATOM     18  H   UNL     1       0.409   8.581  -4.192  0.00  0.00    +0.144 HD
ENDBRANCH  14  16
ENDBRANCH  12  14
ENDBRANCH  11  12
ENDBRANCH   4  10
BRANCH   1  19
ATOM     19  S   UNL     1       0.002  -0.004   0.002  0.00  0.00    -0.048 S 
BRANCH  19  24
ATOM     20  C   UNL     1      -3.421  -1.870   0.431  0.00  0.00    +0.076 A 
ATOM     21  C   UNL     1      -4.347  -0.823   0.420  0.00  0.00    +0.060 A 
ATOM     22  C   UNL     1      -3.878   0.471   0.276  0.00  0.00    +0.148 A 
ATOM     23  N   UNL     1      -2.577   0.678   0.154  0.00  0.00    -0.218 NA
ATOM     24  C   UNL     1      -1.721  -0.334   0.168  0.00  0.00    +0.194 A 
ATOM     25  N   UNL     1      -2.128  -1.588   0.298  0.00  0.00    -0.222 NA
BRANCH  20  29
ATOM     26  C   UNL     1      -4.720  -5.895   0.867  0.00  0.00    +0.000 A 
ATOM     27  C   UNL     1      -3.371  -5.616   0.735  0.00  0.00    +0.001 A 
ATOM     28  C   UNL     1      -2.944  -4.312   0.593  0.00  0.00    +0.010 A 
ATOM     29  C   UNL     1      -3.874  -3.274   0.583  0.00  0.00    +0.000 A 
ATOM     30  C   UNL     1      -5.231  -3.560   0.721  0.00  0.00    +0.010 A 
ATOM     31  C   UNL     1      -5.647  -4.869   0.857  0.00  0.00    +0.001 A 
ENDBRANCH  20  29
BRANCH  22  32
ATOM     32  C   UNL     1      -4.839   1.632   0.259  0.00  0.00    +0.434 C 
ATOM     33  F   UNL     1      -4.138   2.813  -0.010  0.00  0.00    -0.164 F 
ATOM     34  F   UNL     1      -5.802   1.425  -0.735  0.00  0.00    -0.164 F 
ATOM     35  F   UNL     1      -5.467   1.736   1.504  0.00  0.00    -0.164 F 
ENDBRANCH  22  32
ENDBRANCH  19  24
ENDBRANCH   1  19
TORSDOF 9
