REMARK  Name = ZINC64684367
REMARK  10 active torsions:
REMARK  status: ('A' for Active; 'I' for Inactive)
REMARK    1  A    between atoms: C_1  and  C_2
REMARK    2  A    between atoms: C_5  and  C_34
REMARK    3  A    between atoms: C_6  and  N_8
REMARK    4  A    between atoms: C_9  and  S_14
REMARK    5  A    between atoms: S_14  and  C_15
REMARK    6  A    between atoms: C_15  and  C_16
REMARK    7  A    between atoms: N_18  and  CA_19
REMARK    8  A    between atoms: CA_19  and  CB_21
REMARK    9  A    between atoms: CA_19  and  C_31
REMARK   10  A    between atoms: CB_21  and  CG_22
REMARK                            x       y       z     vdW  Elec       q    Type
REMARK                         _______ _______ _______ _____ _____    ______ ____
ROOT
ATOM      1  C   UNK A   0      -0.239  -0.322   4.649  0.00  0.00    +0.167 C 
ENDROOT
BRANCH   1   2
ATOM      2  C   UNK A   0      -0.438   1.106   5.088  0.00  0.00    +0.224 C 
ATOM      3  O   UNK A   0       0.442   1.923   4.913  0.00  0.00    -0.275 OA
ATOM      4  N   TRP A   1      -1.594   1.476   5.675  0.00  0.00    -0.301 N 
ATOM      5  H   TRP A   1      -2.297   0.823   5.814  0.00  0.00    +0.150 HD
BRANCH   4   6
ATOM      6  CA  TRP A   1      -1.787   2.864   6.101  0.00  0.00    +0.190 C 
BRANCH   6   7
ATOM      7  C   TRP A   1      -1.197   3.054   7.475  0.00  0.00    +0.376 C 
ATOM      8  O   TRP A   1      -0.664   2.117   8.044  0.00  0.00    -0.244 OA
ATOM      9  OXT TRP A   1      -1.253   4.145   8.016  0.00  0.00    -0.244 OA
ENDBRANCH   6   7
BRANCH   6  10
ATOM     10  CB  TRP A   1      -3.284   3.181   6.141  0.00  0.00    +0.067 C 
BRANCH  10  11
ATOM     11  CG  TRP A   1      -3.849   3.111   4.745  0.00  0.00    -0.039 C 
ATOM     12  CD2 TRP A   1      -4.462   2.051   4.169  0.00  0.00    -0.001 A 
ATOM     13  CE3 TRP A   1      -4.773   0.700   4.650  0.00  0.00    +0.010 A 
ATOM     14  CZ3 TRP A   1      -5.409  -0.160   3.823  0.00  0.00    +0.001 A 
ATOM     15  CH2 TRP A   1      -5.778   0.205   2.521  0.00  0.00    +0.002 A 
ATOM     16  CZ2 TRP A   1      -5.526   1.428   2.008  0.00  0.00    +0.026 A 
ATOM     17  CE2 TRP A   1      -4.862   2.413   2.791  0.00  0.00    +0.043 A 
ATOM     18  NE1 TRP A   1      -4.510   3.648   2.525  0.00  0.00    -0.380 N 
ATOM     19  CD1 TRP A   1      -3.851   4.211   3.708  0.00  0.00    +0.144 C 
ATOM     20  HE1 TRP A   1      -4.663   4.112   1.687  0.00  0.00    +0.160 HD
ENDBRANCH  10  11
ENDBRANCH   6  10
ENDBRANCH   4   6
ENDBRANCH   1   2
BRANCH   1  21
ATOM     21  S   UNK A   0       1.404  -0.501   3.901  0.00  0.00    -0.114 S 
BRANCH  21  23
ATOM     22  N   UNK A   0       0.410  -2.573   2.478  0.00  0.00    -0.254 N 
ATOM     23  C   UNK A   0       1.485  -2.252   3.433  0.00  0.00    +0.203 C 
ATOM     24  N   UNK A   0       1.241  -3.112   4.617  0.00  0.00    -0.320 NA
ATOM     25  N   UNK A   0      -0.189  -3.442   4.488  0.00  0.00    +0.411 N 
ATOM     26  N   UNK A   0      -0.369  -3.558   3.037  0.00  0.00    -0.265 NA
ATOM     27  H   UNK A   0       1.809  -3.945   4.582  0.00  0.00    +0.106 HD
ATOM     28  H   UNK A   0      -0.396  -4.317   4.946  0.00  0.00    -0.031 HD
ATOM     29  H   UNK A   0      -0.087  -4.470   2.711  0.00  0.00    +0.125 HD
ATOM     30  H   UNK A   0      -0.762  -2.699   4.857  0.00  0.00    -0.031 HD
BRANCH  22  36
ATOM     31  C   UNK A   0      -1.483   1.072  -0.221  0.00  0.00    +0.044 C 
ATOM     32  C   UNK A   0      -0.699  -0.210  -0.108  0.00  0.00    -0.049 A 
ATOM     33  C   UNK A   0      -0.172  -0.799  -1.244  0.00  0.00    +0.004 A 
ATOM     34  C   UNK A   0       0.547  -1.976  -1.145  0.00  0.00    +0.005 A 
ATOM     35  C   UNK A   0       0.742  -2.567   0.088  0.00  0.00    -0.028 A 
ATOM     36  C   UNK A   0       0.215  -1.978   1.230  0.00  0.00    +0.048 A 
ATOM     37  C   UNK A   0      -0.503  -0.792   1.128  0.00  0.00    +0.028 A 
ATOM     38  C   UNK A   0       1.526  -3.850   0.194  0.00  0.00    +0.046 C 
ENDBRANCH  22  36
ENDBRANCH  21  23
ENDBRANCH   1  21
TORSDOF 8
