REMARK  Name = ZINC04060875
REMARK  5 active torsions:
REMARK  status: ('A' for Active; 'I' for Inactive)
REMARK    1  A    between atoms: C_1  and  C_2
REMARK    2  A    between atoms: C_5  and  N_9
REMARK    3  A    between atoms: C_7  and  C_8
REMARK    4  A    between atoms: C_10  and  O_32
REMARK    5  A    between atoms: C_11  and  C_18
REMARK                            x       y       z     vdW  Elec       q    Type
REMARK                         _______ _______ _______ _____ _____    ______ ____
ROOT
ATOM      1  N   UNL     1      -0.079   3.933  -0.079  0.00  0.00    -0.233 N 
ATOM      2  C   UNL     1       0.950   3.251  -0.683  0.00  0.00    +0.208 A 
ATOM      3  C   UNL     1       1.003   1.893  -0.584  0.00  0.00    +0.069 A 
ATOM      4  C   UNL     1      -0.001   1.220   0.136  0.00  0.00    +0.260 A 
ATOM      5  O   UNL     1       0.026   0.006   0.237  0.00  0.00    -0.267 OA
ATOM      6  N   UNL     1      -0.995   1.927   0.709  0.00  0.00    -0.274 N 
ATOM      7  H   UNL     1      -1.714   1.450   1.214  0.00  0.00    +0.173 HD
ATOM      8  C   UNL     1      -1.028   3.268   0.605  0.00  0.00    +0.336 A 
ATOM      9  O   UNL     1      -1.931   3.888   1.133  0.00  0.00    -0.246 OA
ENDROOT
BRANCH   3  10
ATOM     10  C   UNL     1       2.121   1.122  -1.238  0.00  0.00    +0.018 C 
ATOM     11  C   UNL     1       1.559   0.236  -2.325  0.00  0.00    +0.011 A 
ATOM     12  C   UNL     1       1.949  -1.051  -2.498  0.00  0.00    -0.022 A 
ATOM     13  C   UNL     1       1.197  -1.576  -3.615  0.00  0.00    +0.003 A 
ATOM     14  C   UNL     1       1.176  -2.825  -4.244  0.00  0.00    +0.010 A 
ATOM     15  C   UNL     1       0.315  -2.972  -5.304  0.00  0.00    +0.001 A 
ATOM     16  C   UNL     1      -0.500  -1.940  -5.739  0.00  0.00    +0.002 A 
ATOM     17  C   UNL     1      -0.500  -0.695  -5.136  0.00  0.00    +0.026 A 
ATOM     18  C   UNL     1       0.364  -0.516  -4.057  0.00  0.00    +0.047 A 
ATOM     19  N   UNL     1       0.611   0.560  -3.252  0.00  0.00    -0.359 N 
ATOM     20  H   UNL     1       0.180   1.425  -3.329  0.00  0.00    +0.166 HD
ATOM     21  C   UNL     1       2.986  -1.730  -1.639  0.00  0.00    +0.018 C 
ATOM     22  C   UNL     1       3.748  -0.643  -0.867  0.00  0.00    -0.076 C 
ATOM     23  N   UNL     1       2.786   0.275  -0.224  0.00  0.00    +0.388 N 
ATOM     24  H   UNL     1       2.077  -0.274   0.275  0.00  0.00    -0.084 HD
ATOM     25  H   UNL     1       3.286   0.875   0.442  0.00  0.00    -0.084 HD
ENDBRANCH   3  10
BRANCH   1  30
ATOM     26  C   UNL     1      -0.325   9.589  -0.472  0.00  0.00    +0.044 C 
ATOM     27  C   UNL     1      -0.260   8.087  -0.368  0.00  0.00    -0.047 A 
ATOM     28  C   UNL     1      -0.887   7.301  -1.317  0.00  0.00    +0.005 A 
ATOM     29  C   UNL     1      -0.825   5.925  -1.227  0.00  0.00    +0.027 A 
ATOM     30  C   UNL     1      -0.140   5.329  -0.176  0.00  0.00    +0.054 A 
ATOM     31  C   UNL     1       0.489   6.121   0.776  0.00  0.00    +0.030 A 
ATOM     32  C   UNL     1       0.427   7.497   0.677  0.00  0.00    -0.046 A 
ATOM     33  C   UNL     1       1.109   8.357   1.710  0.00  0.00    +0.044 C 
ENDBRANCH   1  30
BRANCH   2  34
ATOM     34  O   UNL     1       1.901   3.921  -1.368  0.00  0.00    -0.493 OA
ATOM     35  H   UNL     1       1.764   4.878  -1.396  0.00  0.00    +0.294 HD
ENDBRANCH   2  34
TORSDOF 3
