REMARK  Name = ZINC53202967
REMARK  4 active torsions:
REMARK  status: ('A' for Active; 'I' for Inactive)
REMARK    1  A    between atoms: C_1  and  N_2
REMARK    2  A    between atoms: N_2  and  C_3
REMARK    3  A    between atoms: N_8  and  S_10
REMARK    4  A    between atoms: S_10  and  C_13
REMARK                            x       y       z     vdW  Elec       q    Type
REMARK                         _______ _______ _______ _____ _____    ______ ____
ROOT
ATOM      1  S   UNL     1       2.783  -3.460   2.357  0.00  0.00    +0.064 S 
ATOM      2  O   UNL     1       3.448  -3.203   1.128  0.00  0.00    -0.153 OA
ATOM      3  O   UNL     1       3.419  -3.294   3.617  0.00  0.00    -0.153 OA
ENDROOT
BRANCH   1   4
ATOM      4  C   UNL     1       2.228  -5.131   2.289  0.00  0.00    +0.142 A 
ATOM      5  C   UNL     1       1.992  -5.830   3.460  0.00  0.00    +0.070 A 
ATOM      6  C   UNL     1       1.556  -7.141   3.406  0.00  0.00    +0.042 A 
ATOM      7  C   UNL     1       1.357  -7.755   2.183  0.00  0.00    +0.044 A 
ATOM      8  C   UNL     1       1.593  -7.056   1.012  0.00  0.00    +0.042 A 
ATOM      9  C   UNL     1       2.024  -5.743   1.065  0.00  0.00    +0.070 A 
ATOM     10 CL   UNL     1       2.314  -4.864  -0.404  0.00  0.00    -0.081 Cl
ATOM     11 CL   UNL     1       0.811  -9.402   2.116  0.00  0.00    -0.083 Cl
ATOM     12 CL   UNL     1       2.241  -5.060   4.995  0.00  0.00    -0.081 Cl
ENDBRANCH   1   4
BRANCH   1  17
ATOM     13  C   UNL     1       0.713  -0.491   1.192  0.00  0.00    -0.056 C 
ATOM     14  C   UNL     1      -0.072  -0.105   2.449  0.00  0.00    -0.013 C 
ATOM     15  C   UNL     1       0.684  -0.583   3.690  0.00  0.00    +0.016 C 
ATOM     16  C   UNL     1       0.812  -2.109   3.650  0.00  0.00    +0.109 C 
ATOM     17  N   UNL     1       1.435  -2.498   2.377  0.00  0.00    -0.178 NA
ATOM     18  C   UNL     1       0.842  -2.016   1.123  0.00  0.00    +0.094 C 
BRANCH  13  20
ATOM     19  C   UNL     1      -0.018   1.465   0.010  0.00  0.00    -0.100 C 
ATOM     20  N   UNL     1       0.002  -0.004   0.002  0.00  0.00    +0.380 N 
ATOM     21  H   UNL     1      -0.945  -0.353   0.009  0.00  0.00    -0.086 HD
ATOM     22  H   UNL     1       0.474  -0.330  -0.828  0.00  0.00    -0.086 HD
ENDBRANCH  13  20
ENDBRANCH   1  17
TORSDOF 3
