REMARK  Name = ZINC01033837
REMARK  4 active torsions:
REMARK  status: ('A' for Active; 'I' for Inactive)
REMARK    1  A    between atoms: C_3  and  N_9
REMARK    2  A    between atoms: C_18  and  C_20
REMARK    3  A    between atoms: C_20  and  C_21
REMARK    4  A    between atoms: N_23  and  C_24
REMARK                            x       y       z     vdW  Elec       q    Type
REMARK                         _______ _______ _______ _____ _____    ______ ____
ROOT
ATOM      1  N   UNL     1       3.290   2.459  -0.235  0.00  0.00    -0.267 N 
ATOM      2  C   UNL     1       3.346   3.805  -0.279  0.00  0.00    +0.307 C 
ATOM      3  O   UNL     1       2.321   4.458  -0.239  0.00  0.00    -0.252 OA
ATOM      4  N   UNL     1       4.538   4.428  -0.365  0.00  0.00    -0.272 N 
ATOM      5  C   UNL     1       5.783   3.672  -0.582  0.00  0.00    +0.129 C 
ATOM      6  C   UNL     1       6.397   4.133  -1.905  0.00  0.00    +0.123 C 
ATOM      7  N   UNL     1       6.406   5.587  -1.992  0.00  0.00    -0.312 N 
ATOM      8  C   UNL     1       5.606   6.392  -1.292  0.00  0.00    +0.234 C 
ATOM      9  O   UNL     1       5.652   7.585  -1.509  0.00  0.00    -0.274 OA
ATOM     10  C   UNL     1       4.648   5.890  -0.253  0.00  0.00    +0.172 C 
ATOM     11  H   UNL     1       4.109   1.942  -0.184  0.00  0.00    +0.156 HD
ATOM     12  H   UNL     1       7.039   5.998  -2.602  0.00  0.00    +0.149 HD
ENDROOT
BRANCH   1  15
ATOM     13  C   UNL     1      -0.293   1.777   0.250  0.00  0.00    +0.040 A 
ATOM     14  C   UNL     1       0.930   2.420   0.281  0.00  0.00    +0.029 A 
ATOM     15  C   UNL     1       2.049   1.808  -0.265  0.00  0.00    +0.070 A 
ATOM     16  C   UNL     1       1.938   0.548  -0.842  0.00  0.00    +0.147 A 
ATOM     17  C   UNL     1       0.712  -0.092  -0.870  0.00  0.00    +0.078 A 
ATOM     18  C   UNL     1      -0.403   0.522  -0.324  0.00  0.00    +0.126 A 
ATOM     19  F   UNL     1      -1.599  -0.104  -0.352  0.00  0.00    -0.205 F 
ATOM     20  F   UNL     1       3.025  -0.051  -1.374  0.00  0.00    -0.203 F 
ENDBRANCH   1  15
BRANCH  10  21
ATOM     21  C   UNL     1       5.168   6.260   1.138  0.00  0.00    +0.128 C 
BRANCH  21  22
ATOM     22  C   UNL     1       4.154   5.856   2.177  0.00  0.00    +0.219 C 
ATOM     23  O   UNL     1       3.118   5.325   1.839  0.00  0.00    -0.275 OA
ATOM     24  N   UNL     1       4.399   6.085   3.483  0.00  0.00    -0.284 N 
ATOM     25  H   UNL     1       5.261   6.432   3.760  0.00  0.00    +0.155 HD
BRANCH  24  26
ATOM     26  C   UNL     1       3.410   5.821   4.437  0.00  0.00    +0.053 A 
ATOM     27  C   UNL     1       2.082   5.712   4.050  0.00  0.00    +0.044 A 
ATOM     28  C   UNL     1       1.107   5.451   4.995  0.00  0.00    +0.043 A 
ATOM     29  C   UNL     1       1.455   5.300   6.327  0.00  0.00    +0.021 A 
ATOM     30  C   UNL     1       2.777   5.409   6.715  0.00  0.00    +0.023 A 
ATOM     31  C   UNL     1       3.757   5.664   5.774  0.00  0.00    +0.062 A 
ATOM     32 CL   UNL     1       5.418   5.794   6.262  0.00  0.00    -0.082 Cl
ATOM     33 CL   UNL     1      -0.555   5.314   4.513  0.00  0.00    -0.083 Cl
ENDBRANCH  24  26
ENDBRANCH  21  22
ENDBRANCH  10  21
TORSDOF 4
