REMARK  Name = ZINC15742054
REMARK  14 active torsions:
REMARK  status: ('A' for Active; 'I' for Inactive)
REMARK    1  A    between atoms: C_1  and  C_2
REMARK    2  A    between atoms: C_4  and  C_30
REMARK    3  A    between atoms: C_6  and  C_29
REMARK    4  A    between atoms: C_7  and  S_8
REMARK    5  A    between atoms: S_8  and  N_11
REMARK    6  A    between atoms: C_17  and  C_19
REMARK    7  A    between atoms: C_19  and  C_21
REMARK    8  A    between atoms: C_19  and  N_25
REMARK    9  A    between atoms: C_21  and  C_22
REMARK   10  A    between atoms: C_22  and  S_23
REMARK   11  A    between atoms: S_23  and  C_24
REMARK   12  A    between atoms: C_30  and  C_31
REMARK   13  A    between atoms: C_30  and  C_32
REMARK   14  A    between atoms: C_30  and  C_33
REMARK                            x       y       z     vdW  Elec       q    Type
REMARK                         _______ _______ _______ _____ _____    ______ ____
ROOT
ATOM      1  N   UNL     1      -1.174   0.206   3.434  0.00  0.00    -0.174 NA
ATOM      2  C   UNL     1      -2.015   1.397   3.251  0.00  0.00    +0.128 C 
ATOM      3  C   UNL     1      -3.370   0.958   2.684  0.00  0.00    +0.125 C 
ATOM      4  N   UNL     1      -3.883  -0.152   3.499  0.00  0.00    -0.297 N 
ATOM      5  C   UNL     1      -3.042  -1.343   3.682  0.00  0.00    +0.125 C 
ATOM      6  C   UNL     1      -1.689  -0.906   4.245  0.00  0.00    +0.128 C 
ATOM      7  C   UNL     1      -5.102  -0.079   4.069  0.00  0.00    +0.236 C 
ATOM      8  O   UNL     1      -5.787   0.910   3.911  0.00  0.00    -0.274 OA
ENDROOT
BRANCH   1   9
ATOM      9  S   UNL     1       0.324   0.116   2.734  0.00  0.00    +0.061 S 
ATOM     10  O   UNL     1       1.089  -0.783   3.526  0.00  0.00    -0.153 OA
ATOM     11  O   UNL     1       0.738   1.453   2.486  0.00  0.00    -0.153 OA
BRANCH   9  18
ATOM     12  C   UNL     1      -0.274   1.621   0.179  0.00  0.00    +0.046 C 
ATOM     13  C   UNL     1      -0.153   0.124   0.047  0.00  0.00    -0.024 A 
ATOM     14  C   UNL     1      -0.309  -0.475  -1.189  0.00  0.00    +0.009 A 
ATOM     15  C   UNL     1      -0.199  -1.848  -1.311  0.00  0.00    -0.041 A 
ATOM     16  C   UNL     1       0.068  -2.621  -0.197  0.00  0.00    +0.009 A 
ATOM     17  C   UNL     1       0.225  -2.022   1.039  0.00  0.00    -0.024 A 
ATOM     18  C   UNL     1       0.119  -0.649   1.160  0.00  0.00    +0.111 A 
ATOM     19  C   UNL     1       0.515  -2.865   2.254  0.00  0.00    +0.046 C 
BRANCH  15  20
ATOM     20  C   UNL     1      -0.369  -2.501  -2.658  0.00  0.00    -0.013 C 
ATOM     21  C   UNL     1       0.684  -1.958  -3.625  0.00  0.00    +0.015 C 
ATOM     22  C   UNL     1      -0.199  -4.015  -2.516  0.00  0.00    +0.015 C 
ATOM     23  C   UNL     1      -1.767  -2.193  -3.200  0.00  0.00    +0.015 C 
ENDBRANCH  15  20
ENDBRANCH   9  18
ENDBRANCH   1   9
BRANCH   7  24
ATOM     24  C   UNL     1      -5.614  -1.225   4.902  0.00  0.00    +0.161 C 
BRANCH  24  25
ATOM     25  N   UNL     1      -6.689  -0.750   5.777  0.00  0.00    -0.288 N 
ATOM     26  C   UNL     1      -7.804  -0.212   5.244  0.00  0.00    +0.298 C 
ATOM     27  O   UNL     1      -7.917  -0.120   4.036  0.00  0.00    -0.253 OA
ATOM     28  N   UNL     1      -8.793   0.225   6.048  0.00  0.00    -0.313 N 
ATOM     29  H   UNL     1      -6.599  -0.824   6.740  0.00  0.00    +0.151 HD
ATOM     30  H   UNL     1      -8.703   0.151   7.011  0.00  0.00    +0.146 HD
ATOM     31  H   UNL     1      -9.595   0.612   5.664  0.00  0.00    +0.146 HD
ENDBRANCH  24  25
BRANCH  24  32
ATOM     32  C   UNL     1      -6.152  -2.324   3.983  0.00  0.00    +0.042 C 
BRANCH  32  33
ATOM     33  C   UNL     1      -6.557  -3.537   4.822  0.00  0.00    +0.071 C 
BRANCH  33  34
ATOM     34  S   UNL     1      -7.195  -4.840   3.732  0.00  0.00    -0.164 S 
ATOM     35  C   UNL     1      -7.624  -6.189   4.866  0.00  0.00    +0.084 C 
ENDBRANCH  33  34
ENDBRANCH  32  33
ENDBRANCH  24  32
ENDBRANCH   7  24
TORSDOF 8
