REMARK  Name = ZINC20757003
REMARK  8 active torsions:
REMARK  status: ('A' for Active; 'I' for Inactive)
REMARK    1  A    between atoms: C_1  and  C_2
REMARK    2  A    between atoms: C_4  and  C_39
REMARK    3  A    between atoms: C_13  and  C_16
REMARK    4  A    between atoms: C_16  and  C_17
REMARK    5  A    between atoms: N_29  and  C_32
REMARK    6  A    between atoms: C_32  and  C_33
REMARK    7  A    between atoms: C_33  and  O_34
REMARK    8  A    between atoms: O_34  and  C_35
REMARK                            x       y       z     vdW  Elec       q    Type
REMARK                         _______ _______ _______ _____ _____    ______ ____
ROOT
ATOM      1  C   UNL     1      -0.018   1.503   0.010  0.00  0.00    +0.044 C 
ATOM      2  C   UNL     1       0.002  -0.004   0.002  0.00  0.00    -0.050 A 
ATOM      3  C   UNL     1       0.006  -0.691  -1.199  0.00  0.00    +0.008 A 
ATOM      4  C   UNL     1       0.025  -2.070  -1.212  0.00  0.00    -0.029 A 
ATOM      5  C   UNL     1       0.041  -2.782  -0.015  0.00  0.00    +0.042 A 
ATOM      6  C   UNL     1       0.036  -2.081   1.187  0.00  0.00    +0.004 A 
ATOM      7  C   UNL     1       0.023  -0.704   1.195  0.00  0.00    +0.011 A 
ATOM      8  C   UNL     1       0.055  -3.122   2.269  0.00  0.00    +0.136 C 
ATOM      9  C   UNL     1      -1.169  -3.004   3.186  0.00  0.00    +0.122 C 
ATOM     10  C   UNL     1      -0.655  -2.220   4.426  0.00  0.00    +0.107 C 
ATOM     11  C   UNL     1       0.825  -1.915   4.116  0.00  0.00    +0.072 C 
ATOM     12  N   UNL     1       1.232  -2.974   3.145  0.00  0.00    -0.295 NA
ATOM     13  C   UNL     1      -0.749  -3.233   5.543  0.00  0.00    +0.227 C 
ATOM     14  O   UNL     1      -0.432  -3.035   6.697  0.00  0.00    -0.275 OA
ATOM     15  N   UNL     1      -1.236  -4.383   5.062  0.00  0.00    -0.239 N 
ATOM     16  C   UNL     1      -1.520  -4.367   3.739  0.00  0.00    +0.228 C 
ATOM     17  O   UNL     1      -1.979  -5.287   3.096  0.00  0.00    -0.275 OA
ATOM     18  C   UNL     1       0.072  -4.440   1.545  0.00  0.00    +0.243 C 
ATOM     19  O   UNL     1       0.091  -5.543   2.048  0.00  0.00    -0.273 OA
ATOM     20  N   UNL     1       0.061  -4.157   0.228  0.00  0.00    -0.283 N 
ATOM     21  C   UNL     1       0.028  -2.808  -2.526  0.00  0.00    +0.045 C 
ATOM     22  H   UNL     1       1.448  -3.842   3.611  0.00  0.00    +0.124 HD
ATOM     23  H   UNL     1       0.067  -4.830  -0.471  0.00  0.00    +0.155 HD
ENDROOT
BRANCH  11  24
ATOM     24  C   UNL     1       1.669  -2.025   5.388  0.00  0.00    +0.056 C 
BRANCH  24  25
ATOM     25  C   UNL     1       3.085  -1.605   5.090  0.00  0.00    -0.021 A 
ATOM     26  C   UNL     1       4.105  -2.413   4.763  0.00  0.00    +0.087 A 
ATOM     27  N   UNL     1       5.240  -1.675   4.565  0.00  0.00    -0.360 N 
ATOM     28  H   UNL     1       6.106  -2.038   4.320  0.00  0.00    +0.165 HD
ATOM     29  C   UNL     1       4.971  -0.340   4.764  0.00  0.00    +0.047 A 
ATOM     30  C   UNL     1       3.607  -0.236   5.096  0.00  0.00    +0.003 A 
ATOM     31  C   UNL     1       3.045   1.016   5.349  0.00  0.00    +0.010 A 
ATOM     32  C   UNL     1       3.822   2.137   5.271  0.00  0.00    +0.001 A 
ATOM     33  C   UNL     1       5.167   2.041   4.940  0.00  0.00    +0.002 A 
ATOM     34  C   UNL     1       5.744   0.814   4.695  0.00  0.00    +0.026 A 
ENDBRANCH  24  25
ENDBRANCH  11  24
BRANCH  15  35
ATOM     35  C   UNL     1      -1.452  -5.565   5.900  0.00  0.00    +0.144 C 
BRANCH  35  36
ATOM     36  C   UNL     1      -2.867  -5.529   6.479  0.00  0.00    +0.179 C 
BRANCH  36  37
ATOM     37  O   UNL     1      -3.818  -5.639   5.418  0.00  0.00    -0.381 OA
ATOM     38  C   UNL     1      -5.179  -5.616   5.852  0.00  0.00    +0.194 C 
ENDBRANCH  36  37
ENDBRANCH  35  36
ENDBRANCH  15  35
TORSDOF 5
