REMARK  Name = ZINC03137329
REMARK  9 active torsions:
REMARK  status: ('A' for Active; 'I' for Inactive)
REMARK    1  A    between atoms: C_1  and  C_2
REMARK    2  A    between atoms: C_5  and  N_9
REMARK    3  A    between atoms: C_6  and  C_8
REMARK    4  A    between atoms: N_9  and  C_10
REMARK    5  A    between atoms: C_10  and  N_12
REMARK    6  A    between atoms: N_12  and  C_13
REMARK    7  A    between atoms: C_13  and  C_15
REMARK    8  A    between atoms: C_13  and  N_19
REMARK    9  A    between atoms: C_20  and  C_22
REMARK                            x       y       z     vdW  Elec       q    Type
REMARK                         _______ _______ _______ _____ _____    ______ ____
ROOT
ATOM      1  N   UNL     1      -1.068   1.462  -1.048  0.00  0.00    -0.305 N 
ATOM      2  H   UNL     1      -1.084   2.425  -1.164  0.00  0.00    +0.150 HD
ENDROOT
BRANCH   1   3
ATOM      3  C   UNL     1      -1.331   0.653  -2.093  0.00  0.00    +0.136 C 
ATOM      4  S   UNL     1      -1.302  -1.046  -1.888  0.00  0.00    -0.019 S 
BRANCH   3   5
ATOM      5  N   UNL     1      -1.615   1.181  -3.300  0.00  0.00    -0.297 N 
ATOM      6  H   UNL     1      -1.710   2.142  -3.398  0.00  0.00    +0.154 HD
BRANCH   5  11
ATOM      7  C   UNL     1      -2.264  -2.211  -7.800  0.00  0.00    +0.044 C 
ATOM      8  C   UNL     1      -2.092  -1.310  -6.604  0.00  0.00    -0.050 A 
ATOM      9  C   UNL     1      -1.041  -1.517  -5.730  0.00  0.00    +0.005 A 
ATOM     10  C   UNL     1      -0.880  -0.693  -4.634  0.00  0.00    +0.024 A 
ATOM     11  C   UNL     1      -1.775   0.345  -4.410  0.00  0.00    +0.036 A 
ATOM     12  C   UNL     1      -2.833   0.547  -5.287  0.00  0.00    -0.029 A 
ATOM     13  C   UNL     1      -2.985  -0.277  -6.384  0.00  0.00    +0.008 A 
ATOM     14  C   UNL     1      -3.810   1.669  -5.044  0.00  0.00    +0.045 C 
ENDBRANCH   5  11
ENDBRANCH   3   5
ENDBRANCH   1   3
BRANCH   1  15
ATOM     15  C   UNL     1      -0.758   0.888   0.264  0.00  0.00    +0.211 C 
BRANCH  15  16
ATOM     16  C   UNL     1      -1.537   1.638   1.346  0.00  0.00    +0.225 C 
ATOM     17 CL   UNL     1      -1.067   3.379   1.326  0.00  0.00    -0.080 Cl
ATOM     18 CL   UNL     1      -3.305   1.489   1.027  0.00  0.00    -0.080 Cl
ATOM     19 CL   UNL     1      -1.156   0.931   2.960  0.00  0.00    -0.080 Cl
ENDBRANCH  15  16
BRANCH  15  20
ATOM     20  N   UNL     1       0.679   1.009   0.523  0.00  0.00    -0.287 N 
ATOM     21  C   UNL     1       1.474  -0.075   0.429  0.00  0.00    +0.281 C 
ATOM     22  O   UNL     1       0.999  -1.155   0.129  0.00  0.00    -0.267 OA
ATOM     23  H   UNL     1       1.057   1.869   0.762  0.00  0.00    +0.151 HD
BRANCH  21  24
ATOM     24  C   UNL     1       2.912   0.046   0.689  0.00  0.00    +0.189 A 
ATOM     25  C   UNL     1       3.826  -0.966   0.629  0.00  0.00    +0.054 A 
ATOM     26  C   UNL     1       5.073  -0.404   0.947  0.00  0.00    +0.042 A 
ATOM     27  C   UNL     1       4.867   0.910   1.184  0.00  0.00    +0.196 A 
ATOM     28  O   UNL     1       3.565   1.179   1.022  0.00  0.00    -0.458 OA
ENDBRANCH  21  24
ENDBRANCH  15  20
ENDBRANCH   1  15
TORSDOF 7
