REMARK  Name = ZINC39677800
REMARK  9 active torsions:
REMARK  status: ('A' for Active; 'I' for Inactive)
REMARK    1  A    between atoms: C_1  and  C_2
REMARK    2  A    between atoms: C_2  and  O_4
REMARK    3  A    between atoms: O_4  and  C_5
REMARK    4  A    between atoms: C_10  and  C_11
REMARK    5  A    between atoms: C_15  and  C_24
REMARK    6  A    between atoms: N_26  and  C_27
REMARK    7  A    between atoms: C_27  and  C_28
REMARK    8  A    between atoms: N_31  and  C_35
REMARK    9  A    between atoms: C_35  and  C_36
REMARK                            x       y       z     vdW  Elec       q    Type
REMARK                         _______ _______ _______ _____ _____    ______ ____
ROOT
ATOM      1  C   UNL     1       0.144  -2.200  -3.465  0.00  0.00    +0.250 C 
ATOM      2  O   UNL     1       0.216  -0.989  -3.558  0.00  0.00    -0.270 OA
ATOM      3  N   UNL     1       0.115  -2.960  -4.578  0.00  0.00    -0.296 N 
ATOM      4  C   UNL     1       0.091  -4.439  -4.666  0.00  0.00    +0.121 C 
ATOM      5  C   UNL     1      -0.879  -4.745  -5.829  0.00  0.00    +0.100 C 
ATOM      6  C   UNL     1      -0.867  -3.474  -6.695  0.00  0.00    -0.004 C 
ATOM      7  C   UNL     1       0.093  -2.506  -5.989  0.00  0.00    +0.115 C 
ATOM      8  C   UNL     1      -2.265  -2.866  -6.760  0.00  0.00    -0.010 C 
ATOM      9  C   UNL     1      -2.240  -1.636  -7.671  0.00  0.00    -0.082 C 
ATOM     10  N   UNL     1      -1.792  -2.029  -9.013  0.00  0.00    +0.379 N 
ATOM     11  C   UNL     1      -0.413  -2.526  -8.955  0.00  0.00    -0.082 C 
ATOM     12  C   UNL     1      -0.360  -3.793  -8.098  0.00  0.00    -0.010 C 
ATOM     13  H   UNL     1      -2.396  -2.755  -9.368  0.00  0.00    -0.086 HD
ATOM     14  H   UNL     1      -1.835  -1.229  -9.627  0.00  0.00    -0.086 HD
ENDROOT
BRANCH   1  20
ATOM     15  C   UNL     1      -0.606  -2.217  -1.087  0.00  0.00    +0.144 A 
ATOM     16  C   UNL     1      -0.658  -2.826   0.158  0.00  0.00    +0.047 A 
ATOM     17  C   UNL     1      -0.022  -4.035   0.363  0.00  0.00    +0.004 A 
ATOM     18  C   UNL     1       0.670  -4.647  -0.669  0.00  0.00    +0.001 A 
ATOM     19  C   UNL     1       0.731  -4.055  -1.912  0.00  0.00    +0.017 A 
ATOM     20  C   UNL     1       0.088  -2.836  -2.135  0.00  0.00    +0.079 A 
BRANCH  15  21
ATOM     21  O   UNL     1      -1.230  -1.029  -1.290  0.00  0.00    -0.425 OA
BRANCH  21  23
ATOM     22  C   UNL     1      -3.269   0.236  -1.876  0.00  0.00    +0.136 C 
ATOM     23  C   UNL     1      -2.495  -1.050  -1.742  0.00  0.00    +0.309 C 
ATOM     24  O   UNL     1      -3.013  -2.101  -2.040  0.00  0.00    -0.251 OA
ENDBRANCH  21  23
ENDBRANCH  15  21
ENDBRANCH   1  20
BRANCH   5  25
ATOM     25  C   UNL     1      -0.389  -5.928  -6.624  0.00  0.00    +0.218 C 
ATOM     26  O   UNL     1       0.792  -6.206  -6.632  0.00  0.00    -0.275 OA
ATOM     27  N   UNL     1      -1.262  -6.677  -7.326  0.00  0.00    -0.313 N 
ATOM     28  H   UNL     1      -2.206  -6.455  -7.319  0.00  0.00    +0.149 HD
BRANCH  27  29
ATOM     29  C   UNL     1      -0.785  -7.827  -8.098  0.00  0.00    +0.137 C 
BRANCH  29  30
ATOM     30  C   UNL     1      -1.970  -8.499  -8.795  0.00  0.00    +0.149 C 
ATOM     31  C   UNL     1      -1.473  -9.703  -9.601  0.00  0.00    +0.118 C 
ATOM     32  N   UNL     1      -2.623 -10.390 -10.206  0.00  0.00    -0.293 NA
ATOM     33  C   UNL     1      -3.569 -10.832  -9.170  0.00  0.00    +0.113 C 
ATOM     34  C   UNL     1      -4.044  -9.618  -8.369  0.00  0.00    +0.175 C 
ATOM     35  O   UNL     1      -2.911  -8.944  -7.815  0.00  0.00    -0.372 OA
BRANCH  32  36
ATOM     36  C   UNL     1      -2.185 -11.520 -11.036  0.00  0.00    +0.119 C 
BRANCH  36  37
ATOM     37  C   UNL     1      -3.354 -12.044 -11.828  0.00  0.00    -0.033 A 
ATOM     38  C   UNL     1      -4.158 -13.037 -11.300  0.00  0.00    +0.005 A 
ATOM     39  C   UNL     1      -5.231 -13.518 -12.027  0.00  0.00    +0.000 A 
ATOM     40  C   UNL     1      -5.500 -13.007 -13.282  0.00  0.00    +0.000 A 
ATOM     41  C   UNL     1      -4.697 -12.013 -13.810  0.00  0.00    +0.000 A 
ATOM     42  C   UNL     1      -3.627 -11.529 -13.082  0.00  0.00    +0.005 A 
ENDBRANCH  36  37
ENDBRANCH  32  36
ENDBRANCH  29  30
ENDBRANCH  27  29
ENDBRANCH   5  25
TORSDOF 8
