REMARK  Name = ZINC12507753
REMARK  4 active torsions:
REMARK  status: ('A' for Active; 'I' for Inactive)
REMARK    1  A    between atoms: C_1  and  C_2
REMARK    2  A    between atoms: C_2  and  C_3
REMARK    3  A    between atoms: C_2  and  C_4
REMARK    4  A    between atoms: C_7  and  C_10
REMARK                            x       y       z     vdW  Elec       q    Type
REMARK                         _______ _______ _______ _____ _____    ______ ____
ROOT
ATOM      1  C   UNL     1      -5.419  -2.005   0.043  0.00  0.00    +0.209 C 
ATOM      2  N   UNL     1      -5.976  -1.969  -1.322  0.00  0.00    -0.294 N 
ATOM      3  C   UNL     1      -5.638  -3.000  -2.187  0.00  0.00    +0.159 C 
ATOM      4  N   UNL     1      -5.836  -4.298  -1.715  0.00  0.00    -0.259 N 
ATOM      5  C   UNL     1      -5.620  -4.470  -0.349  0.00  0.00    +0.205 A 
ATOM      6  N   UNL     1      -5.430  -3.400   0.494  0.00  0.00    -0.288 N 
ATOM      7  C   UNL     1      -5.260  -3.900   1.767  0.00  0.00    +0.076 A 
ATOM      8  C   UNL     1      -5.041  -3.324   3.011  0.00  0.00    +0.077 A 
ATOM      9  C   UNL     1      -4.914  -4.128   4.127  0.00  0.00    +0.164 A 
ATOM     10  C   UNL     1      -5.004  -5.512   4.014  0.00  0.00    +0.164 A 
ATOM     11  C   UNL     1      -5.218  -6.101   2.785  0.00  0.00    +0.079 A 
ATOM     12  C   UNL     1      -5.349  -5.298   1.647  0.00  0.00    +0.095 A 
ATOM     13  N   UNL     1      -5.564  -5.579   0.328  0.00  0.00    -0.214 NA
ATOM     14  O   UNL     1      -4.880  -6.290   5.130  0.00  0.00    -0.488 OA
ATOM     15  C   UNL     1      -3.583  -6.319   5.731  0.00  0.00    +0.232 C 
ATOM     16  C   UNL     1      -3.397  -5.138   6.670  0.00  0.00    +0.082 C 
ATOM     17  C   UNL     1      -3.417  -3.806   5.936  0.00  0.00    +0.232 C 
ATOM     18  O   UNL     1      -4.700  -3.566   5.354  0.00  0.00    -0.488 OA
ATOM     19  N   UNL     1      -5.160  -2.768  -3.376  0.00  0.00    -0.375 N 
ATOM     20  H   UNL     1      -6.560  -1.249  -1.606  0.00  0.00    +0.151 HD
ATOM     21  H   UNL     1      -5.033  -1.855  -3.679  0.00  0.00    +0.158 HD
ATOM     22  H   UNL     1      -6.104  -5.028  -2.296  0.00  0.00    +0.158 HD
ATOM     23  H   UNL     1      -4.932  -3.508  -3.960  0.00  0.00    +0.158 HD
ENDROOT
BRANCH   1  27
ATOM     24  C   UNL     1      -1.412  -0.526   0.013  0.00  0.00    -0.045 A 
ATOM     25  C   UNL     1      -2.259  -0.204   1.056  0.00  0.00    +0.004 A 
ATOM     26  C   UNL     1      -3.556  -0.683   1.066  0.00  0.00    +0.007 A 
ATOM     27  C   UNL     1      -4.006  -1.482   0.032  0.00  0.00    -0.007 A 
ATOM     28  C   UNL     1      -3.159  -1.803  -1.012  0.00  0.00    +0.007 A 
ATOM     29  C   UNL     1      -1.863  -1.321  -1.024  0.00  0.00    +0.004 A 
BRANCH  24  31
ATOM     30  C   UNL     1      -0.019   1.526   0.010  0.00  0.00    +0.012 C 
ATOM     31  C   UNL     1       0.002  -0.004   0.002  0.00  0.00    +0.013 C 
ATOM     32  C   UNL     1       0.742  -0.511   1.242  0.00  0.00    +0.012 C 
ENDBRANCH  24  31
ENDBRANCH   1  27
TORSDOF 2
