REMARK  Name = ZINC22473258
REMARK  8 active torsions:
REMARK  status: ('A' for Active; 'I' for Inactive)
REMARK    1  A    between atoms: C_4  and  C_7
REMARK    2  A    between atoms: C_7  and  N_8
REMARK    3  A    between atoms: N_8  and  C_9
REMARK    4  A    between atoms: C_9  and  C_10
REMARK    5  A    between atoms: C_10  and  C_11
REMARK    6  A    between atoms: C_11  and  N_12
REMARK    7  A    between atoms: C_15  and  O_16
REMARK    8  A    between atoms: C_24  and  C_26
REMARK                            x       y       z     vdW  Elec       q    Type
REMARK                         _______ _______ _______ _____ _____    ______ ____
ROOT
ATOM      1  N   UNL     1      -2.417  -2.842  -0.093  0.00  0.00    -0.293 N 
ATOM      2  C   UNL     1      -1.294  -2.181  -0.438  0.00  0.00    +0.249 C 
ATOM      3  O   UNL     1      -1.237  -0.972  -0.314  0.00  0.00    -0.270 OA
ENDROOT
BRANCH   2   4
ATOM      4  C   UNL     1      -0.134  -2.923  -0.964  0.00  0.00    +0.063 A 
ATOM      5  C   UNL     1       0.160  -4.193  -0.489  0.00  0.00    +0.015 A 
ATOM      6  C   UNL     1       1.251  -4.899  -0.979  0.00  0.00    +0.001 A 
ATOM      7  C   UNL     1       2.058  -4.368  -1.941  0.00  0.00    +0.010 A 
ATOM      8  C   UNL     1       1.801  -3.083  -2.446  0.00  0.00    +0.001 A 
ATOM      9  C   UNL     1       0.694  -2.346  -1.960  0.00  0.00    +0.083 A 
ATOM     10  N   UNL     1       0.443  -1.127  -2.442  0.00  0.00    -0.254 NA
ATOM     11  C   UNL     1       1.204  -0.588  -3.364  0.00  0.00    +0.111 A 
ATOM     12  C   UNL     1       2.308  -1.257  -3.885  0.00  0.00    +0.020 A 
ATOM     13  C   UNL     1       2.621  -2.509  -3.435  0.00  0.00    +0.011 A 
ENDBRANCH   2   4
BRANCH   1  14
ATOM     14  C   UNL     1      -3.617  -2.095   0.292  0.00  0.00    +0.143 C 
BRANCH  14  18
ATOM     15  C   UNL     1      -6.157  -1.627  -3.109  0.00  0.00    +0.000 A 
ATOM     16  C   UNL     1      -6.364  -2.674  -2.231  0.00  0.00    +0.000 A 
ATOM     17  C   UNL     1      -5.542  -2.826  -1.131  0.00  0.00    +0.005 A 
ATOM     18  C   UNL     1      -4.513  -1.930  -0.908  0.00  0.00    -0.030 A 
ATOM     19  C   UNL     1      -4.310  -0.879  -1.783  0.00  0.00    +0.005 A 
ATOM     20  C   UNL     1      -5.128  -0.731  -2.886  0.00  0.00    +0.000 A 
ENDBRANCH  14  18
ENDBRANCH   1  14
BRANCH   1  21
ATOM     21  C   UNL     1      -2.437  -4.306  -0.105  0.00  0.00    +0.110 C 
BRANCH  21  22
ATOM     22  C   UNL     1      -2.430  -4.828   1.333  0.00  0.00    +0.040 C 
BRANCH  22  23
ATOM     23  C   UNL     1      -2.452  -6.358   1.321  0.00  0.00    +0.114 C 
BRANCH  23  24
ATOM     24  N   UNL     1      -2.445  -6.857   2.699  0.00  0.00    -0.384 N 
ATOM     25  C   UNL     1      -2.462  -8.213   2.940  0.00  0.00    +0.053 A 
ATOM     26  C   UNL     1      -2.485  -9.114   1.907  0.00  0.00    +0.113 A 
ATOM     27  C   UNL     1      -2.501 -10.487   2.184  0.00  0.00    +0.286 A 
ATOM     28  O   UNL     1      -2.496 -10.957   3.442  0.00  0.00    -0.425 OA
ATOM     29  C   UNL     1      -2.474 -10.130   4.509  0.00  0.00    +0.141 A 
ATOM     30  C   UNL     1      -2.450  -8.740   4.315  0.00  0.00    +0.041 A 
ATOM     31  C   UNL     1      -2.421  -7.881   5.415  0.00  0.00    +0.013 A 
ATOM     32  C   UNL     1      -2.409  -8.406   6.689  0.00  0.00    +0.001 A 
ATOM     33  C   UNL     1      -2.427  -9.780   6.879  0.00  0.00    +0.004 A 
ATOM     34  C   UNL     1      -2.469 -10.639   5.801  0.00  0.00    +0.047 A 
ATOM     35  H   UNL     1      -2.427  -6.149   3.540  0.00  0.00    +0.160 HD
BRANCH  27  36
ATOM     36  O   UNL     1      -2.521 -11.278   1.256  0.00  0.00    -0.480 OA
ATOM     37  H   UNL     1      -2.534 -12.359   1.456  0.00  0.00    +0.295 HD
ENDBRANCH  27  36
ENDBRANCH  23  24
ENDBRANCH  22  23
ENDBRANCH  21  22
ENDBRANCH   1  21
TORSDOF 8
