REMARK  Name = ZINC33834279
REMARK  13 active torsions:
REMARK  status: ('A' for Active; 'I' for Inactive)
REMARK    1  A    between atoms: C_1  and  C_2
REMARK    2  A    between atoms: C_2  and  C_3
REMARK    3  A    between atoms: C_3  and  C_5
REMARK    4  A    between atoms: C_3  and  O_6
REMARK    5  A    between atoms: O_6  and  C_7
REMARK    6  A    between atoms: C_7  and  C_9
REMARK    7  A    between atoms: C_10  and  C_35
REMARK    8  A    between atoms: C_14  and  C_16
REMARK    9  A    between atoms: C_19  and  O_22
REMARK   10  A    between atoms: C_25  and  C_31
REMARK   11  A    between atoms: C_27  and  C_30
REMARK   12  A    between atoms: C_31  and  O_33
REMARK   13  A    between atoms: O_33  and  C_34
REMARK                            x       y       z     vdW  Elec       q    Type
REMARK                         _______ _______ _______ _____ _____    ______ ____
ROOT
ATOM      1  C   UNL     1      -0.045   0.085  -0.029  0.00  0.00    +0.065 C 
ATOM      2  C   UNL     1       0.045   1.418  -0.177  0.00  0.00    +0.016 C 
ATOM      3  N   UNL     1       1.264   2.036  -0.157  0.00  0.00    -0.321 N 
ATOM      4  C   UNL     1       2.411   1.325  -0.386  0.00  0.00    +0.016 C 
ATOM      5  C   UNL     1       2.424  -0.018  -0.243  0.00  0.00    +0.025 C 
ATOM      6  C   UNL     1       1.178  -0.760   0.171  0.00  0.00    +0.092 C 
ATOM      7  C   UNL     1       3.595  -0.760  -0.473  0.00  0.00    +0.176 C 
ATOM      8  O   UNL     1       3.569  -1.969  -0.351  0.00  0.00    -0.291 OA
ATOM      9  C   UNL     1       4.880  -0.085  -0.868  0.00  0.00    +0.171 C 
ATOM     10  C   UNL     1       4.893   1.336  -0.295  0.00  0.00    +0.013 C 
ATOM     11  C   UNL     1       3.652   2.074  -0.802  0.00  0.00    +0.055 C 
ATOM     12  C   UNL     1       4.868   1.279   1.233  0.00  0.00    +0.009 C 
ATOM     13  C   UNL     1      -1.206   2.235  -0.373  0.00  0.00    +0.061 C 
ATOM     14  H   UNL     1       1.329   3.116   0.045  0.00  0.00    +0.152 HD
ENDROOT
BRANCH   6  15
ATOM     15  C   UNL     1       1.287  -1.136   1.627  0.00  0.00    -0.035 A 
ATOM     16  C   UNL     1       1.402  -0.148   2.587  0.00  0.00    +0.008 A 
ATOM     17  C   UNL     1       1.496  -0.489   3.923  0.00  0.00    +0.046 A 
ATOM     18  C   UNL     1       1.488  -1.825   4.298  0.00  0.00    +0.117 A 
ATOM     19  C   UNL     1       1.378  -2.814   3.332  0.00  0.00    +0.046 A 
ATOM     20  C   UNL     1       1.278  -2.467   1.998  0.00  0.00    +0.008 A 
BRANCH  18  21
ATOM     21  O   UNL     1       1.585  -2.163   5.611  0.00  0.00    -0.507 OA
ATOM     22  H   UNL     1       1.578  -3.223   5.908  0.00  0.00    +0.292 HD
ENDBRANCH  18  21
ENDBRANCH   6  15
BRANCH   1  23
ATOM     23  C   UNL     1      -1.317  -0.533  -0.063  0.00  0.00    +0.338 C 
ATOM     24  O   UNL     1      -1.691  -1.101  -1.071  0.00  0.00    -0.245 OA
BRANCH  23  25
ATOM     25  O   UNL     1      -2.116  -0.491   1.024  0.00  0.00    -0.458 OA
BRANCH  25  26
ATOM     26  C   UNL     1      -3.387  -1.136   0.920  0.00  0.00    +0.173 C 
ATOM     27  C   UNL     1      -3.256  -2.596   1.359  0.00  0.00    +0.052 C 
BRANCH  26  29
ATOM     28  C   UNL     1      -4.621   1.002   1.306  0.00  0.00    +0.007 C 
ATOM     29  C   UNL     1      -4.396  -0.421   1.821  0.00  0.00    +0.041 C 
ENDBRANCH  26  29
ENDBRANCH  25  26
ENDBRANCH  23  25
ENDBRANCH   1  23
BRANCH   9  30
ATOM     30  C   UNL     1       6.048  -0.862  -0.317  0.00  0.00    +0.318 C 
ATOM     31  O   UNL     1       6.814  -0.335   0.455  0.00  0.00    -0.250 OA
BRANCH  30  32
ATOM     32  O   UNL     1       6.238  -2.139  -0.684  0.00  0.00    -0.467 OA
ATOM     33  C   UNL     1       7.384  -2.825  -0.113  0.00  0.00    +0.280 C 
ENDBRANCH  30  32
ENDBRANCH   9  30
TORSDOF 8
