REMARK  Name = ZINC38732106
REMARK  6 active torsions:
REMARK  status: ('A' for Active; 'I' for Inactive)
REMARK    1  A    between atoms: C_4  and  C_7
REMARK    2  A    between atoms: C_7  and  O_8
REMARK    3  A    between atoms: O_8  and  C_9
REMARK    4  A    between atoms: C_9  and  C_11
REMARK    5  A    between atoms: C_17  and  C_19
REMARK    6  A    between atoms: C_25  and  C_27
REMARK                            x       y       z     vdW  Elec       q    Type
REMARK                         _______ _______ _______ _____ _____    ______ ____
ROOT
ATOM      1  C   UNL     1       8.796  -4.356   2.030  0.00  0.00    +0.087 C 
ATOM      2  C   UNL     1       9.395  -4.632   3.411  0.00  0.00    +0.013 C 
ATOM      3  C   UNL     1      10.782  -5.256   3.250  0.00  0.00    +0.001 C 
ATOM      4  C   UNL     1      10.664  -6.569   2.474  0.00  0.00    +0.001 C 
ATOM      5  C   UNL     1      10.065  -6.293   1.093  0.00  0.00    +0.013 C 
ATOM      6  C   UNL     1       8.678  -5.669   1.254  0.00  0.00    +0.087 C 
ENDROOT
BRANCH   6   7
ATOM      7  C   UNL     1       8.088  -5.398  -0.106  0.00  0.00    +0.219 C 
ATOM      8  O   UNL     1       8.308  -4.343  -0.663  0.00  0.00    -0.275 OA
ATOM      9  N   UNL     1       7.317  -6.327  -0.704  0.00  0.00    -0.298 N 
ATOM     10  C   UNL     1       7.130  -7.650  -0.092  0.00  0.00    +0.126 C 
ATOM     11  C   UNL     1       5.626  -7.905   0.073  0.00  0.00    +0.125 C 
ATOM     12  N   UNL     1       4.957  -7.614  -1.202  0.00  0.00    -0.314 N 
ATOM     13  C   UNL     1       5.144  -6.290  -1.814  0.00  0.00    +0.125 C 
ATOM     14  C   UNL     1       6.643  -6.034  -1.977  0.00  0.00    +0.126 C 
ATOM     15  C   UNL     1       4.162  -8.572  -1.819  0.00  0.00    +0.099 A 
ATOM     16  C   UNL     1       3.873  -9.760  -1.154  0.00  0.00    +0.042 A 
ATOM     17  C   UNL     1       3.080 -10.705  -1.780  0.00  0.00    +0.005 A 
ATOM     18  C   UNL     1       2.601 -10.430  -3.054  0.00  0.00    +0.018 A 
ATOM     19  C   UNL     1       2.927  -9.230  -3.655  0.00  0.00    +0.084 A 
ATOM     20  N   UNL     1       3.681  -8.345  -3.032  0.00  0.00    -0.350 N 
ATOM     21  H   UNL     1       3.892  -7.508  -3.475  0.00  0.00    +0.166 HD
ENDBRANCH   6   7
BRANCH   1  27
ATOM     22  C   UNL     1       6.049  -1.689   2.603  0.00  0.00    +0.185 C 
ATOM     23  C   UNL     1       6.396  -0.254   3.053  0.00  0.00    +0.035 C 
ATOM     24  C   UNL     1       7.772  -0.430   3.748  0.00  0.00    +0.021 C 
ATOM     25  C   UNL     1       8.421  -1.534   2.876  0.00  0.00    +0.109 C 
ATOM     26  N   UNL     1       7.310  -2.442   2.525  0.00  0.00    -0.288 N 
ATOM     27  C   UNL     1       7.429  -3.741   2.188  0.00  0.00    +0.220 C 
ATOM     28  O   UNL     1       6.437  -4.416   2.013  0.00  0.00    -0.275 OA
BRANCH  22  29
ATOM     29  C   UNL     1       5.387  -1.656   1.250  0.00  0.00    +0.328 C 
ATOM     30  O   UNL     1       5.907  -2.209   0.309  0.00  0.00    -0.249 OA
BRANCH  29  31
ATOM     31  O   UNL     1       4.220  -1.013   1.089  0.00  0.00    -0.459 OA
BRANCH  31  32
ATOM     32  C   UNL     1       3.649  -1.022  -0.221  0.00  0.00    +0.267 C 
BRANCH  32  36
ATOM     33  C   UNL     1      -0.030   1.149  -0.188  0.00  0.00    +0.000 A 
ATOM     34  C   UNL     1       1.157   1.804  -0.458  0.00  0.00    +0.000 A 
ATOM     35  C   UNL     1       2.348   1.101  -0.468  0.00  0.00    +0.007 A 
ATOM     36  C   UNL     1       2.351  -0.256  -0.209  0.00  0.00    -0.010 A 
ATOM     37  C   UNL     1       1.165  -0.912   0.062  0.00  0.00    +0.007 A 
ATOM     38  C   UNL     1      -0.026  -0.209   0.071  0.00  0.00    +0.000 A 
ENDBRANCH  32  36
ENDBRANCH  31  32
ENDBRANCH  29  31
ENDBRANCH  22  29
ENDBRANCH   1  27
TORSDOF 6
