REMARK  Name = ZINC33812563
REMARK  11 active torsions:
REMARK  status: ('A' for Active; 'I' for Inactive)
REMARK    1  A    between atoms: C_1  and  C_2
REMARK    2  A    between atoms: C_2  and  C_3
REMARK    3  A    between atoms: C_3  and  N_4
REMARK    4  A    between atoms: C_5  and  N_29
REMARK    5  A    between atoms: C_6  and  C_14
REMARK    6  A    between atoms: C_7  and  C_13
REMARK    7  A    between atoms: C_8  and  C_11
REMARK    8  A    between atoms: N_18  and  C_22
REMARK    9  A    between atoms: C_22  and  C_23
REMARK   10  A    between atoms: N_32  and  C_35
REMARK   11  A    between atoms: C_35  and  C_36
REMARK                            x       y       z     vdW  Elec       q    Type
REMARK                         _______ _______ _______ _____ _____    ______ ____
ROOT
ATOM      1  N   UNL     1       0.332  -2.182  -1.303  0.00  0.00    -0.295 N 
ATOM      2  C   UNL     1       1.462  -2.715  -0.771  0.00  0.00    +0.112 A 
ATOM      3  C   UNL     1       1.830  -4.039  -1.059  0.00  0.00    +0.019 A 
ATOM      4  C   UNL     1       1.019  -4.814  -1.906  0.00  0.00    -0.017 A 
ATOM      5  C   UNL     1      -0.134  -4.244  -2.439  0.00  0.00    +0.120 A 
ATOM      6  C   UNL     1      -0.464  -2.904  -2.112  0.00  0.00    +0.270 A 
ATOM      7  O   UNL     1      -1.475  -2.402  -2.571  0.00  0.00    -0.266 OA
ATOM      8  C   UNL     1       1.391  -6.237  -2.232  0.00  0.00    +0.046 C 
ENDROOT
BRANCH   3   9
ATOM      9  C   UNL     1       3.050  -4.608  -0.483  0.00  0.00    +0.032 C 
ATOM     10  C   UNL     1       2.968  -5.641   0.399  0.00  0.00    +0.077 C 
ATOM     11  C   UNL     1       4.014  -6.374   1.040  0.00  0.00    +0.258 C 
ATOM     12  O   UNL     1       5.184  -6.110   0.830  0.00  0.00    -0.269 OA
ATOM     13  N   UNL     1       3.673  -7.346   1.867  0.00  0.00    -0.253 N 
ATOM     14  C   UNL     1       2.374  -7.638   2.100  0.00  0.00    +0.121 C 
ATOM     15  S   UNL     1       1.711  -8.842   3.121  0.00  0.00    -0.027 S 
ATOM     16  S   UNL     1       1.523  -6.445   1.078  0.00  0.00    -0.061 S 
BRANCH  13  17
ATOM     17  C   UNL     1       4.718  -8.119   2.542  0.00  0.00    +0.146 C 
BRANCH  17  18
ATOM     18  C   UNL     1       5.068  -7.450   3.873  0.00  0.00    +0.136 C 
ATOM     19  C   UNL     1       6.252  -8.188   4.535  0.00  0.00    +0.035 C 
ATOM     20  C   UNL     1       5.851  -8.175   6.035  0.00  0.00    +0.031 C 
ATOM     21  C   UNL     1       4.310  -8.298   5.929  0.00  0.00    +0.160 C 
ATOM     22  O   UNL     1       3.951  -7.532   4.766  0.00  0.00    -0.375 OA
ENDBRANCH  17  18
ENDBRANCH  13  17
ENDBRANCH   3   9
BRANCH   2  23
ATOM     23  N   UNL     1       2.245  -1.958   0.050  0.00  0.00    -0.320 N 
ATOM     24  C   UNL     1       2.069  -1.997   1.510  0.00  0.00    +0.088 C 
ATOM     25  C   UNL     1       3.438  -2.235   2.158  0.00  0.00    -0.060 C 
ATOM     26  N   UNL     1       4.384  -1.215   1.688  0.00  0.00    +0.382 N 
ATOM     27  C   UNL     1       4.600  -1.361   0.243  0.00  0.00    -0.060 C 
ATOM     28  C   UNL     1       3.293  -1.084  -0.499  0.00  0.00    +0.088 C 
ATOM     29  H   UNL     1       4.011  -0.297   1.881  0.00  0.00    -0.082 HD
BRANCH  26  30
ATOM     30  C   UNL     1       5.663  -1.376   2.392  0.00  0.00    -0.082 C 
ATOM     31  C   UNL     1       6.609  -0.240   1.997  0.00  0.00    -0.017 C 
ENDBRANCH  26  30
ENDBRANCH   2  23
BRANCH   5  32
ATOM     32  C   UNL     1      -0.982  -5.006  -3.305  0.00  0.00    +0.105 C 
ATOM     33  N   UNL     1      -1.655  -5.611  -3.993  0.00  0.00    -0.191 NA
ENDBRANCH   5  32
BRANCH   1  34
ATOM     34  C   UNL     1      -0.029  -0.798  -0.987  0.00  0.00    +0.126 C 
BRANCH  34  36
ATOM     35  C   UNL     1      -1.389   0.662   0.517  0.00  0.00    +0.005 C 
ATOM     36  C   UNL     1      -1.011  -0.783   0.186  0.00  0.00    +0.018 C 
ENDBRANCH  34  36
ENDBRANCH   1  34
TORSDOF 8
