REMARK  Name = ZINC40374280
REMARK  5 active torsions:
REMARK  status: ('A' for Active; 'I' for Inactive)
REMARK    1  A    between atoms: C_1  and  C_2
REMARK    2  A    between atoms: C_2  and  O_3
REMARK    3  A    between atoms: O_3  and  C_4
REMARK    4  A    between atoms: C_7  and  N_10
REMARK    5  A    between atoms: C_17  and  C_29
REMARK                            x       y       z     vdW  Elec       q    Type
REMARK                         _______ _______ _______ _____ _____    ______ ____
ROOT
ATOM      1  N   UNL     1       0.953  -6.110   1.838  0.00  0.00    -0.244 N 
ATOM      2  C   UNL     1       0.374  -7.019   1.038  0.00  0.00    +0.141 C 
ATOM      3  S   UNL     1      -0.822  -6.499  -0.071  0.00  0.00    -0.018 S 
ATOM      4  N   UNL     1       0.700  -8.322   1.076  0.00  0.00    -0.319 N 
ATOM      5  C   UNL     1       1.778  -8.779   1.969  0.00  0.00    +0.112 C 
ATOM      6  C   UNL     1       1.675  -7.969   3.272  0.00  0.00    +0.096 C 
ATOM      7  C   UNL     1       1.923  -6.488   2.864  0.00  0.00    +0.183 C 
ATOM      8  O   UNL     1       3.254  -6.354   2.377  0.00  0.00    -0.468 OA
ATOM      9  C   UNL     1       3.737  -7.287   1.514  0.00  0.00    +0.129 A 
ATOM     10  C   UNL     1       3.091  -8.460   1.291  0.00  0.00    +0.022 A 
ATOM     11  C   UNL     1       3.642  -9.400   0.404  0.00  0.00    -0.009 A 
ATOM     12  C   UNL     1       3.000 -10.626   0.154  0.00  0.00    +0.009 A 
ATOM     13  C   UNL     1       3.562 -11.516  -0.710  0.00  0.00    +0.001 A 
ATOM     14  C   UNL     1       4.765 -11.231  -1.352  0.00  0.00    +0.001 A 
ATOM     15  C   UNL     1       5.414 -10.055  -1.135  0.00  0.00    +0.008 A 
ATOM     16  C   UNL     1       4.865  -9.111  -0.251  0.00  0.00    -0.017 A 
ATOM     17  C   UNL     1       5.504  -7.885   0.000  0.00  0.00    +0.012 A 
ATOM     18  C   UNL     1       4.943  -7.006   0.851  0.00  0.00    +0.047 A 
ATOM     19  C   UNL     1       1.740  -5.592   4.090  0.00  0.00    +0.079 C 
ATOM     20  H   UNL     1       0.227  -8.959   0.518  0.00  0.00    +0.148 HD
ENDROOT
BRANCH   1  24
ATOM     21  C   UNL     1      -0.033  -2.086   1.371  0.00  0.00    +0.121 A 
ATOM     22  C   UNL     1       1.091  -2.602   0.741  0.00  0.00    +0.047 A 
ATOM     23  C   UNL     1       1.418  -3.935   0.895  0.00  0.00    +0.027 A 
ATOM     24  C   UNL     1       0.622  -4.758   1.681  0.00  0.00    +0.039 A 
ATOM     25  C   UNL     1      -0.501  -4.240   2.312  0.00  0.00    +0.027 A 
ATOM     26  C   UNL     1      -0.825  -2.906   2.160  0.00  0.00    +0.047 A 
BRANCH  21  27
ATOM     27  O   UNL     1      -0.354  -0.774   1.218  0.00  0.00    -0.492 OA
BRANCH  27  29
ATOM     28  C   UNL     1      -0.013   1.452   0.339  0.00  0.00    +0.048 C 
ATOM     29  C   UNL     1       0.506   0.013   0.391  0.00  0.00    +0.225 C 
ENDBRANCH  27  29
ENDBRANCH  21  27
ENDBRANCH   1  24
TORSDOF 3
