REMARK  Name = ZINC39494224
REMARK  10 active torsions:
REMARK  status: ('A' for Active; 'I' for Inactive)
REMARK    1  A    between atoms: C_4  and  C_7
REMARK    2  A    between atoms: C_7  and  C_9
REMARK    3  A    between atoms: C_7  and  C_27
REMARK    4  A    between atoms: C_9  and  C_11
REMARK    5  A    between atoms: C_9  and  N_17
REMARK    6  A    between atoms: C_18  and  C_20
REMARK    7  A    between atoms: C_25  and  O_26
REMARK    8  A    between atoms: C_27  and  S_29
REMARK    9  A    between atoms: S_29  and  O_32
REMARK   10  A    between atoms: O_32  and  C_33
REMARK                            x       y       z     vdW  Elec       q    Type
REMARK                         _______ _______ _______ _____ _____    ______ ____
ROOT
ATOM      1  C   UNL     1       3.745  -0.701  -0.038  0.00  0.00    +0.137 C 
ENDROOT
BRANCH   1   5
ATOM      2  C   UNL     1       0.018   1.386  -0.077  0.00  0.00    +0.000 A 
ATOM      3  C   UNL     1       1.206   2.092  -0.054  0.00  0.00    +0.000 A 
ATOM      4  C   UNL     1       2.412   1.417  -0.041  0.00  0.00    +0.004 A 
ATOM      5  C   UNL     1       2.430   0.035  -0.051  0.00  0.00    -0.033 A 
ATOM      6  C   UNL     1       1.242  -0.672  -0.073  0.00  0.00    +0.004 A 
ATOM      7  C   UNL     1       0.036   0.003  -0.088  0.00  0.00    +0.000 A 
ENDBRANCH   1   5
BRANCH   1   8
ATOM      8  C   UNL     1       3.803  -1.647  -1.210  0.00  0.00    +0.316 C 
ATOM      9  O   UNL     1       3.933  -2.833  -1.023  0.00  0.00    -0.268 OA
BRANCH   8  10
ATOM     10  S   UNL     1       3.682  -1.022  -2.853  0.00  0.00    +0.185 S 
ATOM     11  O   UNL     1       3.558  -2.150  -3.708  0.00  0.00    -0.128 OA
ATOM     12  O   UNL     1       2.715   0.019  -2.821  0.00  0.00    -0.128 OA
BRANCH  10  13
ATOM     13  O   UNL     1       5.015  -0.367  -3.185  0.00  0.00    -0.340 OA
BRANCH  13  14
ATOM     14  C   UNL     1       6.016  -1.251  -3.441  0.00  0.00    +0.157 A 
ATOM     15  C   UNL     1       6.816  -1.712  -2.407  0.00  0.00    +0.048 A 
ATOM     16  C   UNL     1       7.833  -2.610  -2.669  0.00  0.00    +0.004 A 
ATOM     17  C   UNL     1       8.052  -3.049  -3.962  0.00  0.00    +0.000 A 
ATOM     18  C   UNL     1       7.256  -2.590  -4.995  0.00  0.00    +0.004 A 
ATOM     19  C   UNL     1       6.234  -1.696  -4.737  0.00  0.00    +0.048 A 
ENDBRANCH  13  14
ENDBRANCH  10  13
ENDBRANCH   8  10
ENDBRANCH   1   8
BRANCH   1  20
ATOM     20  C   UNL     1       3.872  -1.495   1.264  0.00  0.00    +0.120 C 
BRANCH  20  21
ATOM     21  C   UNL     1       3.721  -0.561   2.438  0.00  0.00    -0.026 A 
ATOM     22  C   UNL     1       4.742   0.313   2.762  0.00  0.00    +0.005 A 
ATOM     23  C   UNL     1       4.604   1.169   3.838  0.00  0.00    +0.000 A 
ATOM     24  C   UNL     1       3.444   1.151   4.591  0.00  0.00    +0.000 A 
ATOM     25  C   UNL     1       2.423   0.277   4.266  0.00  0.00    +0.000 A 
ATOM     26  C   UNL     1       2.560  -0.576   3.187  0.00  0.00    +0.005 A 
ENDBRANCH  20  21
BRANCH  20  27
ATOM     27  N   UNL     1       5.188  -2.138   1.318  0.00  0.00    -0.303 N 
ATOM     28  C   UNL     1       5.365  -3.249   2.059  0.00  0.00    +0.248 C 
ATOM     29  O   UNL     1       4.433  -3.718   2.683  0.00  0.00    -0.270 OA
ATOM     30  H   UNL     1       5.931  -1.763   0.820  0.00  0.00    +0.150 HD
BRANCH  28  31
ATOM     31  C   UNL     1       6.689  -3.897   2.113  0.00  0.00    +0.078 A 
ATOM     32  C   UNL     1       7.764  -3.358   1.401  0.00  0.00    +0.017 A 
ATOM     33  C   UNL     1       8.999  -3.967   1.456  0.00  0.00    +0.001 A 
ATOM     34  C   UNL     1       9.180  -5.113   2.214  0.00  0.00    +0.004 A 
ATOM     35  C   UNL     1       8.126  -5.656   2.922  0.00  0.00    +0.046 A 
ATOM     36  C   UNL     1       6.878  -5.053   2.882  0.00  0.00    +0.129 A 
BRANCH  36  37
ATOM     37  O   UNL     1       5.843  -5.582   3.581  0.00  0.00    -0.506 OA
ATOM     38  H   UNL     1       5.327  -6.235   3.088  0.00  0.00    +0.292 HD
ENDBRANCH  36  37
ENDBRANCH  28  31
ENDBRANCH  20  27
ENDBRANCH   1  20
TORSDOF 10
