REMARK  Name = ZINC66391696
REMARK  8 active torsions:
REMARK  status: ('A' for Active; 'I' for Inactive)
REMARK    1  A    between atoms: C_1  and  C_2
REMARK    2  A    between atoms: C_3  and  C_28
REMARK    3  A    between atoms: C_11  and  C_13
REMARK    4  A    between atoms: C_13  and  C_15
REMARK    5  A    between atoms: C_13  and  N_16
REMARK    6  A    between atoms: N_16  and  C_17
REMARK    7  A    between atoms: C_17  and  C_19
REMARK    8  A    between atoms: C_17  and  C_20
REMARK                            x       y       z     vdW  Elec       q    Type
REMARK                         _______ _______ _______ _____ _____    ______ ____
ROOT
ATOM      1  C   UNL     1       0.155  -3.439   4.433  0.00  0.00    +0.118 C 
ATOM      2  C   UNL     1       1.240  -3.117   5.463  0.00  0.00    +0.032 C 
ENDROOT
BRANCH   1  13
ATOM      3  C   UNL     1       1.133   0.993  -0.501  0.00  0.00    +0.045 C 
ATOM      4  C   UNL     1       1.003  -0.502  -0.371  0.00  0.00    -0.026 A 
ATOM      5  C   UNL     1       1.090  -1.289  -1.455  0.00  0.00    -0.008 A 
ATOM      6  S   UNL     1       0.879  -2.931  -0.793  0.00  0.00    -0.073 S 
ATOM      7  C   UNL     1       0.679  -2.512   0.920  0.00  0.00    +0.116 A 
ATOM      8  C   UNL     1       0.788  -1.110   0.929  0.00  0.00    +0.075 A 
ATOM      9  C   UNL     1       0.667  -0.488   2.215  0.00  0.00    +0.260 A 
ATOM     10  O   UNL     1       0.743   0.724   2.326  0.00  0.00    -0.267 OA
ATOM     11  N   UNL     1       0.468  -1.262   3.297  0.00  0.00    -0.309 N 
ATOM     12  H   UNL     1       0.385  -0.847   4.170  0.00  0.00    +0.170 HD
ATOM     13  C   UNL     1       0.380  -2.613   3.192  0.00  0.00    +0.128 A 
ATOM     14  N   UNL     1       0.477  -3.209   2.034  0.00  0.00    -0.225 NA
ATOM     15  C   UNL     1       1.313  -0.882  -2.889  0.00  0.00    +0.052 C 
ENDBRANCH   1  13
BRANCH   1  16
ATOM     16  N   UNL     1       0.215  -4.866   4.089  0.00  0.00    -0.301 NA
ATOM     17  H   UNL     1       0.926  -5.041   3.396  0.00  0.00    +0.123 HD
BRANCH  16  18
ATOM     18  C   UNL     1      -1.095  -5.353   3.634  0.00  0.00    +0.081 C 
ATOM     19  C   UNL     1      -1.932  -5.770   4.845  0.00  0.00    +0.029 C 
BRANCH  18  20
ATOM     20  C   UNL     1      -0.901  -6.538   2.724  0.00  0.00    -0.029 A 
ATOM     21  C   UNL     1       0.057  -7.489   3.023  0.00  0.00    +0.008 A 
ATOM     22  C   UNL     1       0.236  -8.577   2.190  0.00  0.00    +0.040 A 
ATOM     23  C   UNL     1      -0.545  -8.715   1.055  0.00  0.00    +0.142 A 
ATOM     24  C   UNL     1      -1.506  -7.762   0.756  0.00  0.00    +0.076 A 
ATOM     25  C   UNL     1      -1.686  -6.677   1.595  0.00  0.00    +0.028 A 
ATOM     26 CL   UNL     1      -2.486  -7.933  -0.666  0.00  0.00    -0.081 Cl
ATOM     27  F   UNL     1      -0.371  -9.778   0.240  0.00  0.00    -0.204 F 
ENDBRANCH  18  20
ENDBRANCH  16  18
ENDBRANCH   1  16
TORSDOF 4
