REMARK  Name = ZINC07523924
REMARK  3 active torsions:
REMARK  status: ('A' for Active; 'I' for Inactive)
REMARK    1  A    between atoms: C_4  and  S_8
REMARK    2  A    between atoms: S_8  and  C_9
REMARK    3  A    between atoms: C_9  and  C_10
REMARK                            x       y       z     vdW  Elec       q    Type
REMARK                         _______ _______ _______ _____ _____    ______ ____
ROOT
ATOM      1  C   UNL     1       5.653  -1.781   1.841  0.00  0.00    +0.146 A 
ATOM      2  N   UNL     1       5.669  -3.101   1.892  0.00  0.00    -0.199 NA
ATOM      3  C   UNL     1       6.826  -3.751   2.003  0.00  0.00    +0.217 A 
ATOM      4  N   UNL     1       7.965  -3.070   2.064  0.00  0.00    -0.181 NA
ATOM      5  C   UNL     1       7.944  -1.742   2.013  0.00  0.00    +0.217 A 
ATOM      6  N   UNL     1       6.784  -1.100   1.897  0.00  0.00    -0.199 NA
ATOM      7  N   UNL     1       9.125  -1.030   2.076  0.00  0.00    -0.327 N 
ATOM      8  N   UNL     1       6.842  -5.130   2.056  0.00  0.00    -0.327 N 
ATOM      9  H   UNL     1       9.970  -1.499   2.158  0.00  0.00    +0.145 HD
ATOM     10  H   UNL     1       9.109  -0.061   2.039  0.00  0.00    +0.145 HD
ATOM     11  H   UNL     1       6.010  -5.626   2.012  0.00  0.00    +0.145 HD
ATOM     12  H   UNL     1       7.685  -5.602   2.137  0.00  0.00    +0.145 HD
ENDROOT
BRANCH   1  13
ATOM     13  C   UNL     1       4.341  -1.050   1.715  0.00  0.00    +0.150 C 
BRANCH  13  14
ATOM     14  S   UNL     1       3.940  -0.827  -0.040  0.00  0.00    -0.114 S 
BRANCH  14  18
ATOM     15  C   UNL     1      -0.017   1.379   0.010  0.00  0.00    +0.003 A 
ATOM     16  C   UNL     1       1.169   2.090   0.002  0.00  0.00    +0.021 A 
ATOM     17  C   UNL     1       2.378   1.421  -0.013  0.00  0.00    +0.056 A 
ATOM     18  C   UNL     1       2.401   0.031  -0.021  0.00  0.00    +0.045 A 
ATOM     19  C   UNL     1       1.207  -0.680  -0.013  0.00  0.00    +0.056 A 
ATOM     20  C   UNL     1       0.002  -0.004   0.002  0.00  0.00    +0.021 A 
ATOM     21 CL   UNL     1       1.229  -2.416  -0.023  0.00  0.00    -0.082 Cl
ATOM     22 CL   UNL     1       3.866   2.315  -0.023  0.00  0.00    -0.082 Cl
ENDBRANCH  14  18
ENDBRANCH  13  14
ENDBRANCH   1  13
TORSDOF 3
