REMARK  Name = ZINC39661021
REMARK  6 active torsions:
REMARK  status: ('A' for Active; 'I' for Inactive)
REMARK    1  A    between atoms: C_1  and  C_2
REMARK    2  A    between atoms: C_2  and  O_4
REMARK    3  A    between atoms: O_4  and  C_5
REMARK    4  A    between atoms: C_10  and  C_11
REMARK    5  A    between atoms: C_15  and  C_24
REMARK    6  A    between atoms: N_26  and  C_27
REMARK                            x       y       z     vdW  Elec       q    Type
REMARK                         _______ _______ _______ _____ _____    ______ ____
ROOT
ATOM      1  C   UNL     1      -3.438  -2.251  -0.118  0.00  0.00    +0.250 C 
ATOM      2  O   UNL     1      -3.560  -1.044  -0.196  0.00  0.00    -0.270 OA
ATOM      3  N   UNL     1      -4.531  -3.038  -0.084  0.00  0.00    -0.296 N 
ATOM      4  C   UNL     1      -4.584  -4.519  -0.052  0.00  0.00    +0.121 C 
ATOM      5  C   UNL     1      -5.738  -4.848   0.921  0.00  0.00    +0.100 C 
ATOM      6  C   UNL     1      -6.634  -3.598   0.905  0.00  0.00    -0.004 C 
ATOM      7  C   UNL     1      -5.953  -2.618  -0.062  0.00  0.00    +0.115 C 
ATOM      8  C   UNL     1      -6.711  -2.985   2.300  0.00  0.00    -0.010 C 
ATOM      9  C   UNL     1      -7.652  -1.778   2.270  0.00  0.00    -0.082 C 
ATOM     10  N   UNL     1      -8.985  -2.205   1.827  0.00  0.00    +0.379 N 
ATOM     11  C   UNL     1      -8.917  -2.708   0.449  0.00  0.00    -0.082 C 
ATOM     12  C   UNL     1      -8.029  -3.954   0.402  0.00  0.00    -0.010 C 
ATOM     13  H   UNL     1      -9.322  -2.937   2.434  0.00  0.00    -0.086 HD
ATOM     14  H   UNL     1      -9.619  -1.421   1.866  0.00  0.00    -0.086 HD
ENDROOT
BRANCH   1  20
ATOM     15  C   UNL     1      -1.058  -2.206   0.628  0.00  0.00    +0.144 A 
ATOM     16  C   UNL     1       0.201  -2.785   0.681  0.00  0.00    +0.047 A 
ATOM     17  C   UNL     1       0.434  -3.992   0.053  0.00  0.00    +0.004 A 
ATOM     18  C   UNL     1      -0.584  -4.634  -0.634  0.00  0.00    +0.001 A 
ATOM     19  C   UNL     1      -1.841  -4.072  -0.697  0.00  0.00    +0.017 A 
ATOM     20  C   UNL     1      -2.092  -2.855  -0.060  0.00  0.00    +0.079 A 
BRANCH  15  21
ATOM     21  O   UNL     1      -1.290  -1.020   1.245  0.00  0.00    -0.425 OA
BRANCH  21  23
ATOM     22  C   UNL     1      -1.901   0.243   3.278  0.00  0.00    +0.136 C 
ATOM     23  C   UNL     1      -1.737  -1.044   2.511  0.00  0.00    +0.309 C 
ATOM     24  O   UNL     1      -2.009  -2.099   3.036  0.00  0.00    -0.251 OA
ENDBRANCH  21  23
ENDBRANCH  15  21
ENDBRANCH   1  20
BRANCH   5  25
ATOM     25  C   UNL     1      -5.201  -5.094   2.307  0.00  0.00    +0.219 C 
ATOM     26  O   UNL     1      -4.243  -4.467   2.706  0.00  0.00    -0.275 OA
ATOM     27  N   UNL     1      -5.786  -6.011   3.104  0.00  0.00    -0.304 N 
ATOM     28  H   UNL     1      -6.552  -6.512   2.785  0.00  0.00    +0.149 HD
BRANCH  27  29
ATOM     29  C   UNL     1      -5.264  -6.249   4.452  0.00  0.00    +0.151 C 
ATOM     30  C   UNL     1      -5.598  -7.683   4.868  0.00  0.00    +0.042 C 
ATOM     31  C   UNL     1      -5.582  -7.740   6.414  0.00  0.00    +0.079 C 
ATOM     32  S   UNL     1      -6.083  -6.031   6.854  0.00  0.00    -0.086 S 
ATOM     33  C   UNL     1      -5.861  -5.234   5.397  0.00  0.00    +0.209 C 
ATOM     34  O   UNL     1      -6.125  -4.075   5.152  0.00  0.00    -0.283 OA
ENDBRANCH  27  29
ENDBRANCH   5  25
TORSDOF 5
