REMARK  Name = ZINC63558022
REMARK  10 active torsions:
REMARK  status: ('A' for Active; 'I' for Inactive)
REMARK    1  A    between atoms: C_1  and  C_2
REMARK    2  A    between atoms: C_2  and  C_3
REMARK    3  A    between atoms: C_3  and  C_4
REMARK    4  A    between atoms: C_3  and  C_5
REMARK    5  A    between atoms: C_3  and  C_6
REMARK    6  A    between atoms: C_10  and  N_13
REMARK    7  A    between atoms: C_14  and  C_16
REMARK    8  A    between atoms: N_21  and  C_23
REMARK    9  A    between atoms: C_23  and  C_24
REMARK   10  A    between atoms: C_24  and  C_25
REMARK                            x       y       z     vdW  Elec       q    Type
REMARK                         _______ _______ _______ _____ _____    ______ ____
ROOT
ATOM      1  C   UNL     1      -0.331  -7.861  -1.116  0.00  0.00    +0.101 C 
ATOM      2  C   UNL     1       0.887  -7.837  -0.165  0.00  0.00    +0.110 C 
ATOM      3  C   UNL     1       1.305  -9.287  -0.061  0.00  0.00    +0.216 C 
ATOM      4  O   UNL     1       2.036  -9.740   0.794  0.00  0.00    -0.276 OA
ATOM      5  N   UNL     1       0.748 -10.001  -1.054  0.00  0.00    -0.300 N 
ATOM      6  C   UNL     1      -0.076  -9.152  -1.924  0.00  0.00    +0.121 C 
ENDROOT
BRANCH   1   8
ATOM      7  N   UNL     1      -0.480  -5.420  -1.492  0.00  0.00    -0.290 N 
ATOM      8  C   UNL     1      -0.335  -6.653  -2.018  0.00  0.00    +0.220 C 
ATOM      9  O   UNL     1      -0.208  -6.790  -3.216  0.00  0.00    -0.275 OA
ATOM     10  H   UNL     1      -0.582  -5.311  -0.534  0.00  0.00    +0.151 HD
BRANCH   7  14
ATOM     11  C   UNL     1       0.739  -2.027  -1.265  0.00  0.00    +0.135 C 
ATOM     12  N   UNL     1       1.330  -2.562  -2.531  0.00  0.00    -0.241 NA
ATOM     13  N   UNL     1       0.891  -3.913  -2.813  0.00  0.00    -0.227 NA
ATOM     14  C   UNL     1      -0.483  -4.246  -2.368  0.00  0.00    +0.216 C 
ATOM     15  S   UNL     1      -0.963  -2.729  -1.434  0.00  0.00    -0.101 S 
ATOM     16  H   UNL     1       1.135  -1.949  -3.308  0.00  0.00    +0.142 HD
ATOM     17  H   UNL     1       1.021  -4.139  -3.788  0.00  0.00    +0.143 HD
BRANCH  11  18
ATOM     18  C   UNL     1       0.718  -0.497  -1.257  0.00  0.00    -0.009 C 
ATOM     19  C   UNL     1      -0.022   0.009  -2.496  0.00  0.00    +0.013 C 
ATOM     20  C   UNL     1       2.154   0.032  -1.268  0.00  0.00    +0.013 C 
BRANCH  18  22
ATOM     21  C   UNL     1      -0.019   1.526   0.010  0.00  0.00    +0.004 C 
ATOM     22  C   UNL     1       0.002  -0.004   0.002  0.00  0.00    +0.005 C 
ENDBRANCH  18  22
ENDBRANCH  11  18
ENDBRANCH   7  14
ENDBRANCH   1   8
BRANCH   5  23
ATOM     23  C   UNL     1       0.938 -11.441  -1.245  0.00  0.00    +0.112 C 
BRANCH  23  24
ATOM     24  C   UNL     1      -0.145 -12.204  -0.479  0.00  0.00    +0.052 C 
BRANCH  24  25
ATOM     25  C   UNL     1       0.050 -13.685  -0.675  0.00  0.00    -0.040 C 
ATOM     26  C   UNL     1       0.711 -14.534   0.145  0.00  0.00    +0.002 A 
ATOM     27  C   UNL     1       1.420 -14.338   1.416  0.00  0.00    +0.048 A 
ATOM     28  C   UNL     1       1.998 -15.405   2.016  0.00  0.00    +0.124 A 
ATOM     29  C   UNL     1       1.936 -16.690   1.454  0.00  0.00    +0.040 A 
ATOM     30  C   UNL     1       1.304 -16.947   0.290  0.00  0.00    +0.029 A 
ATOM     31  C   UNL     1       0.661 -15.899  -0.426  0.00  0.00    +0.043 A 
ATOM     32  N   UNL     1      -0.005 -15.894  -1.555  0.00  0.00    -0.380 N 
ATOM     33  C   UNL     1      -0.459 -14.526  -1.825  0.00  0.00    +0.144 C 
ATOM     34  F   UNL     1       2.651 -15.228   3.185  0.00  0.00    -0.205 F 
ATOM     35  H   UNL     1      -0.173 -16.668  -2.116  0.00  0.00    +0.160 HD
ENDBRANCH  24  25
ENDBRANCH  23  24
ENDBRANCH   5  23
TORSDOF 7
