REMARK  Name = ZINC10059074
REMARK  6 active torsions:
REMARK  status: ('A' for Active; 'I' for Inactive)
REMARK    1  A    between atoms: C_1  and  O_2
REMARK    2  A    between atoms: O_2  and  C_3
REMARK    3  A    between atoms: C_5  and  C_18
REMARK    4  A    between atoms: C_8  and  O_9
REMARK    5  A    between atoms: O_9  and  C_10
REMARK    6  A    between atoms: C_10  and  C_11
REMARK                            x       y       z     vdW  Elec       q    Type
REMARK                         _______ _______ _______ _____ _____    ______ ____
ROOT
ATOM      1  C   UNL     1      -3.122   0.022   0.043  0.00  0.00    +0.218 C 
ATOM      2  C   UNL     1      -5.248   1.189  -0.218  0.00  0.00    +0.159 C 
ATOM      3  N   UNL     1      -4.695   2.429   0.044  0.00  0.00    -0.259 N 
ATOM      4  C   UNL     1      -3.308   2.508   0.042  0.00  0.00    +0.205 A 
ATOM      5  N   UNL     1      -2.543   1.365   0.035  0.00  0.00    -0.287 N 
ATOM      6  C   UNL     1      -1.224   1.753   0.017  0.00  0.00    +0.072 A 
ATOM      7  C   UNL     1      -0.013   1.076   0.008  0.00  0.00    +0.028 A 
ATOM      8  C   UNL     1       1.172   1.782   0.000  0.00  0.00    +0.002 A 
ATOM      9  C   UNL     1       1.165   3.169   0.008  0.00  0.00    +0.002 A 
ATOM     10  C   UNL     1      -0.026   3.859   0.023  0.00  0.00    +0.030 A 
ATOM     11  C   UNL     1      -1.235   3.161   0.031  0.00  0.00    +0.091 A 
ATOM     12  N   UNL     1      -2.539   3.554   0.043  0.00  0.00    -0.214 NA
ATOM     13  N   UNL     1      -6.596   1.114  -0.479  0.00  0.00    -0.332 N 
ATOM     14  H   UNL     1      -5.248   3.206   0.222  0.00  0.00    +0.158 HD
ATOM     15  H   UNL     1      -7.136   1.919  -0.476  0.00  0.00    +0.145 HD
ATOM     16  H   UNL     1      -7.006   0.255  -0.666  0.00  0.00    +0.145 HD
ATOM     17  N   UNL     1      -4.608   0.013  -0.251  0.00  0.00    -0.337 N 
ATOM     18  H   UNL     1      -5.104  -0.859  -0.467  0.00  0.00    +0.164 HD
ENDROOT
BRANCH   1  21
ATOM     19  C   UNL     1      -1.665  -2.090   2.816  0.00  0.00    +0.162 A 
ATOM     20  C   UNL     1      -1.869  -1.509   1.574  0.00  0.00    +0.057 A 
ATOM     21  C   UNL     1      -2.902  -0.608   1.394  0.00  0.00    -0.001 A 
ATOM     22  C   UNL     1      -3.730  -0.281   2.451  0.00  0.00    +0.011 A 
ATOM     23  C   UNL     1      -3.536  -0.861   3.691  0.00  0.00    +0.050 A 
ATOM     24  C   UNL     1      -2.502  -1.765   3.879  0.00  0.00    +0.162 A 
BRANCH  19  26
ATOM     25  C   UNL     1       0.171  -3.262   1.860  0.00  0.00    +0.277 C 
ATOM     26  O   UNL     1      -0.649  -2.976   2.995  0.00  0.00    -0.491 OA
ENDBRANCH  19  26
BRANCH  24  27
ATOM     27  O   UNL     1      -2.306  -2.332   5.099  0.00  0.00    -0.484 OA
BRANCH  27  28
ATOM     28  C   UNL     1      -3.204  -1.951   6.143  0.00  0.00    +0.264 C 
BRANCH  28  29
ATOM     29  C   UNL     1      -2.835  -2.675   7.412  0.00  0.00    -0.010 A 
ATOM     30  C   UNL     1      -3.401  -3.904   7.697  0.00  0.00    +0.008 A 
ATOM     31  C   UNL     1      -3.058  -4.570   8.858  0.00  0.00    +0.015 A 
ATOM     32  C   UNL     1      -2.158  -4.003   9.741  0.00  0.00    +0.018 A 
ATOM     33  C   UNL     1      -1.596  -2.771   9.459  0.00  0.00    +0.015 A 
ATOM     34  C   UNL     1      -1.934  -2.107   8.295  0.00  0.00    +0.008 A 
ATOM     35 BR   UNL     1      -1.694  -4.912  11.334  0.00  0.00    -0.050 Br
ENDBRANCH  28  29
ENDBRANCH  27  28
ENDBRANCH  24  27
ENDBRANCH   1  21
TORSDOF 5
