REMARK  Name = ZINC39571031
REMARK  5 active torsions:
REMARK  status: ('A' for Active; 'I' for Inactive)
REMARK    1  A    between atoms: C_1  and  C_2
REMARK    2  A    between atoms: C_2  and  C_21
REMARK    3  A    between atoms: N_3  and  N_4
REMARK    4  A    between atoms: C_5  and  C_7
REMARK    5  A    between atoms: C_24  and  O_27
REMARK                            x       y       z     vdW  Elec       q    Type
REMARK                         _______ _______ _______ _____ _____    ______ ____
ROOT
ATOM      1  N   UNL     1       0.024   0.035   2.339  0.00  0.00    -0.205 N 
ATOM      2  C   UNL     1       0.044  -0.645   3.503  0.00  0.00    +0.263 C 
ATOM      3  O   UNL     1       0.060  -1.858   3.496  0.00  0.00    -0.271 OA
ATOM      4  H   UNL     1       0.011   1.005   2.345  0.00  0.00    +0.177 HD
ENDROOT
BRANCH   2   5
ATOM      5  C   UNL     1       0.046   0.101   4.812  0.00  0.00    +0.243 C 
ATOM      6  C   UNL     1      -1.348   0.505   5.196  0.00  0.00    -0.007 C 
ATOM      7  C   UNL     1      -1.581  -0.141   6.366  0.00  0.00    +0.095 C 
ATOM      8  C   UNL     1      -2.895   0.019   7.040  0.00  0.00    +0.005 A 
ATOM      9  C   UNL     1      -3.092  -0.383   8.353  0.00  0.00    +0.010 A 
ATOM     10  C   UNL     1      -4.323  -0.183   8.949  0.00  0.00    +0.001 A 
ATOM     11  C   UNL     1      -5.345   0.417   8.235  0.00  0.00    +0.000 A 
ATOM     12  C   UNL     1      -5.153   0.806   6.923  0.00  0.00    +0.004 A 
ATOM     13  C   UNL     1      -3.933   0.598   6.307  0.00  0.00    -0.038 A 
ATOM     14  C   UNL     1      -3.758   0.947   4.854  0.00  0.00    +0.040 C 
ATOM     15  C   UNL     1      -2.337   1.415   4.538  0.00  0.00    +0.040 C 
ATOM     16  N   UNL     1      -0.497  -0.862   6.718  0.00  0.00    -0.153 NA
ATOM     17  N   UNL     1       0.452  -0.787   5.920  0.00  0.00    -0.170 NA
ENDBRANCH   2   5
BRANCH   1  20
ATOM     18  C   UNL     1      -0.018   1.503   0.010  0.00  0.00    +0.068 C 
ATOM     19  C   UNL     1       0.002  -0.004   0.002  0.00  0.00    +0.063 C 
ATOM     20  N   UNL     1       0.022  -0.659   1.122  0.00  0.00    -0.184 NA
BRANCH  19  21
ATOM     21  C   UNL     1      -0.000  -0.734  -1.279  0.00  0.00    -0.002 A 
ATOM     22  C   UNL     1      -0.015  -0.031  -2.486  0.00  0.00    +0.013 A 
ATOM     23  C   UNL     1      -0.017  -0.718  -3.681  0.00  0.00    +0.046 A 
ATOM     24  C   UNL     1      -0.004  -2.107  -3.686  0.00  0.00    +0.117 A 
ATOM     25  C   UNL     1       0.010  -2.810  -2.488  0.00  0.00    +0.046 A 
ATOM     26  C   UNL     1       0.019  -2.131  -1.289  0.00  0.00    +0.013 A 
BRANCH  24  27
ATOM     27  O   UNL     1      -0.006  -2.780  -4.866  0.00  0.00    -0.507 OA
ATOM     28  H   UNL     1       0.876  -2.966  -5.214  0.00  0.00    +0.292 HD
ENDBRANCH  24  27
ENDBRANCH  19  21
ENDBRANCH   1  20
TORSDOF 4
