REMARK  Name = ZINC39674816
REMARK  11 active torsions:
REMARK  status: ('A' for Active; 'I' for Inactive)
REMARK    1  A    between atoms: C_1  and  C_2
REMARK    2  A    between atoms: C_4  and  C_14
REMARK    3  A    between atoms: C_7  and  C_12
REMARK    4  A    between atoms: C_14  and  C_15
REMARK    5  A    between atoms: C_15  and  N_16
REMARK    6  A    between atoms: C_17  and  C_19
REMARK    7  A    between atoms: C_30  and  C_32
REMARK    8  A    between atoms: C_34  and  O_40
REMARK    9  A    between atoms: C_37  and  O_38
REMARK   10  A    between atoms: O_38  and  C_39
REMARK   11  A    between atoms: O_40  and  C_41
REMARK                            x       y       z     vdW  Elec       q    Type
REMARK                         _______ _______ _______ _____ _____    ______ ____
ROOT
ATOM      1  C   UNL     1      -7.115  -1.144  -2.390  0.00  0.00    +0.100 C 
ATOM      2  C   UNL     1      -7.568   0.334  -2.374  0.00  0.00    +0.121 C 
ATOM      3  N   UNL     1      -9.031   0.279  -2.606  0.00  0.00    -0.296 N 
ATOM      4  C   UNL     1      -9.485  -0.896  -1.824  0.00  0.00    +0.115 C 
ATOM      5  C   UNL     1      -8.375  -1.947  -2.028  0.00  0.00    -0.004 C 
ATOM      6  C   UNL     1      -8.150  -2.732  -0.739  0.00  0.00    -0.010 C 
ATOM      7  C   UNL     1      -9.395  -3.568  -0.431  0.00  0.00    -0.082 C 
ATOM      8  N   UNL     1      -9.659  -4.486  -1.547  0.00  0.00    +0.379 N 
ATOM      9  C   UNL     1      -9.967  -3.721  -2.761  0.00  0.00    -0.082 C 
ATOM     10  C   UNL     1      -8.745  -2.891  -3.168  0.00  0.00    -0.010 C 
ATOM     11  C   UNL     1      -9.779   1.110  -3.358  0.00  0.00    +0.250 C 
ATOM     12  O   UNL     1      -9.244   1.977  -4.022  0.00  0.00    -0.270 OA
ATOM     13  H   UNL     1      -8.845  -5.059  -1.709  0.00  0.00    -0.086 HD
ATOM     14  H   UNL     1     -10.443  -5.077  -1.316  0.00  0.00    -0.086 HD
ENDROOT
BRANCH  11  15
ATOM     15  C   UNL     1     -11.248   0.968  -3.375  0.00  0.00    +0.082 A 
ATOM     16  C   UNL     1     -11.929   0.580  -2.219  0.00  0.00    +0.062 A 
ATOM     17  C   UNL     1     -13.305   0.449  -2.243  0.00  0.00    +0.121 A 
ATOM     18  C   UNL     1     -14.011   0.702  -3.413  0.00  0.00    +0.049 A 
ATOM     19  C   UNL     1     -13.346   1.086  -4.559  0.00  0.00    +0.050 A 
ATOM     20  C   UNL     1     -11.966   1.227  -4.550  0.00  0.00    +0.132 A 
BRANCH  20  21
ATOM     21  O   UNL     1     -11.313   1.610  -5.676  0.00  0.00    -0.494 OA
ATOM     22  C   UNL     1     -12.111   1.857  -6.836  0.00  0.00    +0.277 C 
ENDBRANCH  20  21
BRANCH  17  23
ATOM     23  O   UNL     1     -13.970   0.071  -1.118  0.00  0.00    -0.495 OA
ATOM     24  C   UNL     1     -15.391  -0.044  -1.212  0.00  0.00    +0.277 C 
ENDBRANCH  17  23
ENDBRANCH  11  15
BRANCH   1  26
ATOM     25  N   UNL     1      -5.215  -2.437  -1.476  0.00  0.00    -0.315 N 
ATOM     26  C   UNL     1      -6.034  -1.373  -1.365  0.00  0.00    +0.218 C 
ATOM     27  O   UNL     1      -5.902  -0.599  -0.440  0.00  0.00    -0.275 OA
ATOM     28  H   UNL     1      -5.320  -3.055  -2.216  0.00  0.00    +0.149 HD
BRANCH  25  29
ATOM     29  C   UNL     1      -4.164  -2.659  -0.479  0.00  0.00    +0.108 C 
BRANCH  29  30
ATOM     30  C   UNL     1      -3.382  -3.925  -0.836  0.00  0.00    +0.052 C 
BRANCH  30  33
ATOM     31  C   UNL     1      -0.436  -5.259  -1.043  0.00  0.00    +0.035 C 
ATOM     32  C   UNL     1      -1.302  -5.287   0.218  0.00  0.00    +0.103 C 
ATOM     33  C   UNL     1      -2.302  -4.154   0.189  0.00  0.00    -0.037 C 
ATOM     34  C   UNL     1      -2.029  -3.384   1.273  0.00  0.00    +0.000 A 
ATOM     35  C   UNL     1      -2.628  -2.194   1.765  0.00  0.00    +0.028 A 
ATOM     36  C   UNL     1      -2.148  -1.603   2.910  0.00  0.00    +0.052 A 
ATOM     37  C   UNL     1      -1.024  -2.174   3.644  0.00  0.00    +0.021 A 
ATOM     38  C   UNL     1      -0.416  -3.303   3.224  0.00  0.00    +0.027 A 
ATOM     39  C   UNL     1      -0.888  -3.973   2.008  0.00  0.00    +0.043 A 
ATOM     40  N   UNL     1      -0.471  -5.062   1.406  0.00  0.00    -0.378 N 
ATOM     41  H   UNL     1       0.263  -5.625   1.697  0.00  0.00    +0.160 HD
BRANCH  36  42
ATOM     42  C   UNL     1      -2.764  -0.403   3.392  0.00  0.00    +0.099 C 
ATOM     43  N   UNL     1      -3.252   0.549   3.774  0.00  0.00    -0.191 NA
ENDBRANCH  36  42
ENDBRANCH  30  33
ENDBRANCH  29  30
ENDBRANCH  25  29
ENDBRANCH   1  26
TORSDOF 8
