REMARK  Name = ZINC44221345
REMARK  3 active torsions:
REMARK  status: ('A' for Active; 'I' for Inactive)
REMARK    1  A    between atoms: C_1  and  C_2
REMARK    2  A    between atoms: C_5  and  C_7
REMARK    3  A    between atoms: C_12  and  C_15
REMARK                            x       y       z     vdW  Elec       q    Type
REMARK                         _______ _______ _______ _____ _____    ______ ____
ROOT
ATOM      1  C   UNL     1       1.076  -3.942  -0.025  0.00  0.00    +0.254 C 
ATOM      2  O   UNL     1       0.339  -4.911  -0.028  0.00  0.00    -0.269 OA
ATOM      3  N   UNL     1       2.409  -4.109  -0.134  0.00  0.00    -0.293 N 
ATOM      4  C   UNL     1       3.005  -5.450  -0.263  0.00  0.00    +0.113 C 
ATOM      5  C   UNL     1       3.717  -5.522  -1.616  0.00  0.00    +0.054 C 
ATOM      6  C   UNL     1       4.538  -4.287  -1.841  0.00  0.00    -0.039 C 
ATOM      7  C   UNL     1       4.367  -3.156  -1.197  0.00  0.00    -0.004 C 
ATOM      8  C   UNL     1       3.325  -2.960  -0.135  0.00  0.00    +0.135 C 
ENDROOT
BRANCH   6   9
ATOM      9  C   UNL     1       5.610  -4.346  -2.854  0.00  0.00    +0.005 A 
ATOM     10  C   UNL     1       6.810  -4.970  -2.731  0.00  0.00    +0.093 A 
ATOM     11  N   UNL     1       7.533  -4.806  -3.878  0.00  0.00    -0.345 N 
ATOM     12  H   UNL     1       8.423  -5.162  -4.026  0.00  0.00    +0.167 HD
ATOM     13  C   UNL     1       6.821  -4.065  -4.791  0.00  0.00    +0.139 A 
ATOM     14  C   UNL     1       5.585  -3.748  -4.199  0.00  0.00    +0.026 A 
ATOM     15  C   UNL     1       4.652  -2.998  -4.913  0.00  0.00    +0.013 A 
ATOM     16  C   UNL     1       4.984  -2.595  -6.194  0.00  0.00    +0.020 A 
ATOM     17  C   UNL     1       6.218  -2.946  -6.718  0.00  0.00    +0.113 A 
ATOM     18  N   UNL     1       7.087  -3.648  -6.022  0.00  0.00    -0.237 NA
ENDBRANCH   6   9
BRANCH   1  23
ATOM     19  C   UNL     1       0.015   1.479   0.547  0.00  0.00    +0.051 C 
ATOM     20  C   UNL     1       0.027  -0.017   0.370  0.00  0.00    -0.013 A 
ATOM     21  C   UNL     1      -1.034  -0.844   0.198  0.00  0.00    +0.011 A 
ATOM     22  C   UNL     1      -0.813  -2.193   0.053  0.00  0.00    +0.021 A 
ATOM     23  C   UNL     1       0.513  -2.594   0.096  0.00  0.00    +0.074 A 
ATOM     24  S   UNL     1       1.358  -1.042   0.333  0.00  0.00    -0.089 S 
ENDBRANCH   1  23
TORSDOF 2
