REMARK  Name = ZINC36499009
REMARK  17 active torsions:
REMARK  status: ('A' for Active; 'I' for Inactive)
REMARK    1  A    between atoms: C_1  and  C_2
REMARK    2  A    between atoms: C_2  and  C_3
REMARK    3  A    between atoms: C_2  and  C_4
REMARK    4  A    between atoms: C_2  and  C_5
REMARK    5  A    between atoms: C_5  and  C_6
REMARK    6  A    between atoms: C_6  and  C_7
REMARK    7  A    between atoms: C_6  and  C_8
REMARK    8  A    between atoms: C_6  and  N_9
REMARK    9  A    between atoms: C_10  and  C_12
REMARK   10  A    between atoms: C_12  and  C_14
REMARK   11  A    between atoms: C_12  and  N_23
REMARK   12  A    between atoms: C_15  and  O_22
REMARK   13  A    between atoms: C_17  and  O_21
REMARK   14  A    between atoms: C_19  and  O_20
REMARK   15  A    between atoms: N_23  and  C_24
REMARK   16  A    between atoms: C_24  and  C_25
REMARK   17  A    between atoms: C_30  and  C_32
REMARK                            x       y       z     vdW  Elec       q    Type
REMARK                         _______ _______ _______ _____ _____    ______ ____
ROOT
ATOM      1  C   UNL     1       5.077  -0.752  -4.499  0.00  0.00    +0.200 C 
ENDROOT
BRANCH   1   2
ATOM      2  C   UNL     1       4.867   0.141  -5.695  0.00  0.00    +0.065 A 
ATOM      3  C   UNL     1       5.485  -0.158  -6.900  0.00  0.00    +0.129 A 
ATOM      4  C   UNL     1       5.292   0.663  -8.001  0.00  0.00    +0.091 A 
ATOM      5  C   UNL     1       4.481   1.784  -7.896  0.00  0.00    +0.124 A 
ATOM      6  C   UNL     1       3.863   2.082  -6.691  0.00  0.00    +0.091 A 
ATOM      7  C   UNL     1       4.053   1.258  -5.592  0.00  0.00    +0.129 A 
BRANCH   7   8
ATOM      8  O   UNL     1       3.443   1.547  -4.413  0.00  0.00    -0.506 OA
ATOM      9  H   UNL     1       3.963   2.118  -3.830  0.00  0.00    +0.292 HD
ENDBRANCH   7   8
BRANCH   5  10
ATOM     10  O   UNL     1       4.293   2.589  -8.974  0.00  0.00    -0.507 OA
ATOM     11  H   UNL     1       3.539   2.338  -9.526  0.00  0.00    +0.292 HD
ENDBRANCH   5  10
BRANCH   3  12
ATOM     12  O   UNL     1       6.280  -1.256  -7.003  0.00  0.00    -0.506 OA
ATOM     13  H   UNL     1       5.799  -2.073  -7.196  0.00  0.00    +0.292 HD
ENDBRANCH   3  12
ENDBRANCH   1   2
BRANCH   1  15
ATOM     14  N   UNL     1       2.777  -1.284  -3.760  0.00  0.00    -0.308 N 
ATOM     15  C   UNL     1       3.918  -0.599  -3.548  0.00  0.00    +0.239 C 
ATOM     16  O   UNL     1       4.012   0.142  -2.593  0.00  0.00    -0.273 OA
ATOM     17  H   UNL     1       2.685  -1.841  -4.549  0.00  0.00    +0.149 HD
BRANCH  14  18
ATOM     18  C   UNL     1       1.676  -1.188  -2.798  0.00  0.00    +0.030 C 
ATOM     19  C   UNL     1       1.250   0.274  -2.655  0.00  0.00    +0.031 C 
ATOM     20  C   UNL     1       2.137  -1.720  -1.440  0.00  0.00    +0.031 C 
BRANCH  18  21
ATOM     21  C   UNL     1       0.491  -2.018  -3.296  0.00  0.00    +0.031 C 
BRANCH  21  23
ATOM     22  C   UNL     1       1.296  -2.641  -5.577  0.00  0.00    +0.010 C 
ATOM     23  C   UNL     1       0.298  -1.785  -4.795  0.00  0.00    -0.036 C 
ATOM     24  C   UNL     1       0.533  -0.307  -5.116  0.00  0.00    +0.010 C 
ATOM     25  C   UNL     1      -1.128  -2.172  -5.193  0.00  0.00    +0.010 C 
ENDBRANCH  21  23
ENDBRANCH  18  21
ENDBRANCH  14  18
ENDBRANCH   1  15
BRANCH   1  26
ATOM     26  N   UNL     1       6.319  -0.376  -3.820  0.00  0.00    -0.274 N 
ATOM     27  C   UNL     1       6.953  -1.266  -3.032  0.00  0.00    +0.248 C 
ATOM     28  O   UNL     1       8.014  -0.974  -2.516  0.00  0.00    -0.270 OA
BRANCH  27  29
ATOM     29  C   UNL     1       6.357  -2.598  -2.793  0.00  0.00    +0.038 A 
ATOM     30  C   UNL     1       5.071  -2.883  -3.255  0.00  0.00    +0.013 A 
ATOM     31  C   UNL     1       4.520  -4.128  -3.030  0.00  0.00    +0.002 A 
ATOM     32  C   UNL     1       5.239  -5.093  -2.349  0.00  0.00    +0.020 A 
ATOM     33  C   UNL     1       6.516  -4.818  -1.889  0.00  0.00    +0.042 A 
ATOM     34  C   UNL     1       7.080  -3.578  -2.112  0.00  0.00    +0.033 A 
ATOM     35 CL   UNL     1       7.411  -6.036  -1.035  0.00  0.00    -0.084 Cl
ENDBRANCH  27  29
BRANCH  26  36
ATOM     36  C   UNL     1       6.873   0.969  -3.999  0.00  0.00    +0.183 C 
BRANCH  36  37
ATOM     37  C   UNL     1       6.410   1.856  -2.872  0.00  0.00    +0.122 A 
ATOM     38  C   UNL     1       6.997   1.968  -1.667  0.00  0.00    +0.046 A 
ATOM     39  C   UNL     1       6.237   2.903  -0.927  0.00  0.00    +0.041 A 
ATOM     40  C   UNL     1       5.232   3.307  -1.724  0.00  0.00    +0.195 A 
ATOM     41  O   UNL     1       5.345   2.674  -2.903  0.00  0.00    -0.466 OA
ENDBRANCH  36  37
ENDBRANCH  26  36
ENDBRANCH   1  26
TORSDOF 12
