REMARK  Name = ZINC18264923
REMARK  8 active torsions:
REMARK  status: ('A' for Active; 'I' for Inactive)
REMARK    1  A    between atoms: C_1  and  C_2
REMARK    2  A    between atoms: C_2  and  C_3
REMARK    3  A    between atoms: C_3  and  C_5
REMARK    4  A    between atoms: C_3  and  C_6
REMARK    5  A    between atoms: C_9  and  C_12
REMARK    6  A    between atoms: C_18  and  C_20
REMARK    7  A    between atoms: C_20  and  S_21
REMARK    8  A    between atoms: S_21  and  C_22
REMARK                            x       y       z     vdW  Elec       q    Type
REMARK                         _______ _______ _______ _____ _____    ______ ____
ROOT
ATOM      1  C   UNL     1      -1.358  -6.275   0.455  0.00  0.00    +0.080 A 
ATOM      2  C   UNL     1      -1.969  -6.894   1.509  0.00  0.00    +0.076 A 
ATOM      3  S   UNL     1      -1.632  -8.608   1.128  0.00  0.00    -0.060 S 
ATOM      4  C   UNL     1      -0.720  -8.325  -0.383  0.00  0.00    +0.165 A 
ATOM      5  N   UNL     1      -0.753  -7.008  -0.468  0.00  0.00    -0.225 NA
ATOM      6  N   UNL     1      -0.136  -9.247  -1.243  0.00  0.00    -0.264 N 
ATOM      7  C   UNL     1      -0.221 -10.566  -0.977  0.00  0.00    +0.229 C 
ATOM      8  O   UNL     1      -0.808 -10.947   0.014  0.00  0.00    -0.275 OA
ATOM      9  H   UNL     1       0.333  -8.942  -2.036  0.00  0.00    +0.157 HD
ENDROOT
BRANCH   1  13
ATOM     10  C   UNL     1      -1.414  -2.036   0.129  0.00  0.00    -0.045 A 
ATOM     11  C   UNL     1      -0.779  -2.793  -0.840  0.00  0.00    +0.004 A 
ATOM     12  C   UNL     1      -0.757  -4.170  -0.739  0.00  0.00    +0.010 A 
ATOM     13  C   UNL     1      -1.377  -4.796   0.341  0.00  0.00    +0.001 A 
ATOM     14  C   UNL     1      -2.015  -4.028   1.314  0.00  0.00    +0.010 A 
ATOM     15  C   UNL     1      -2.026  -2.652   1.205  0.00  0.00    +0.004 A 
BRANCH  10  16
ATOM     16  C   UNL     1      -1.433  -0.534   0.013  0.00  0.00    +0.016 C 
ATOM     17  C   UNL     1      -2.135  -0.131  -1.286  0.00  0.00    +0.012 C 
BRANCH  16  19
ATOM     18  C   UNL     1      -0.019   1.526   0.010  0.00  0.00    +0.004 C 
ATOM     19  C   UNL     1       0.002  -0.004   0.002  0.00  0.00    +0.004 C 
ENDBRANCH  16  19
ENDBRANCH  10  16
ENDBRANCH   1  13
BRANCH   7  20
ATOM     20  C   UNL     1       0.412 -11.566  -1.910  0.00  0.00    +0.173 C 
BRANCH  20  21
ATOM     21  S   UNL     1       0.126 -13.243  -1.282  0.00  0.00    -0.075 S 
BRANCH  21  22
ATOM     22  C   UNL     1       0.916 -14.282  -2.466  0.00  0.00    +0.210 A 
ATOM     23  N   UNL     1       0.966 -15.618  -2.418  0.00  0.00    -0.188 NA
ATOM     24  H   UNL     1       2.533 -15.041  -5.024  0.00  0.00    +0.192 HD
ATOM     25  C   UNL     1       1.632 -16.073  -3.458  0.00  0.00    +0.209 A 
ATOM     26  N   UNL     1       2.024 -15.015  -4.198  0.00  0.00    -0.246 N 
ATOM     27  N   UNL     1       1.545 -13.870  -3.541  0.00  0.00    -0.144 NA
ATOM     28  N   UNL     1       1.887 -17.403  -3.742  0.00  0.00    -0.328 N 
ATOM     29  H   UNL     1       1.562 -18.096  -3.146  0.00  0.00    +0.145 HD
ATOM     30  H   UNL     1       2.389 -17.642  -4.536  0.00  0.00    +0.145 HD
ENDBRANCH  21  22
ENDBRANCH  20  21
ENDBRANCH   7  20
TORSDOF 6
