REMARK  Name = ZINC18179056
REMARK  8 active torsions:
REMARK  status: ('A' for Active; 'I' for Inactive)
REMARK    1  A    between atoms: C_1  and  C_2
REMARK    2  A    between atoms: N_9  and  N_10
REMARK    3  A    between atoms: N_10  and  C_11
REMARK    4  A    between atoms: C_11  and  N_13
REMARK    5  A    between atoms: C_17  and  C_27
REMARK    6  A    between atoms: C_17  and  C_28
REMARK    7  A    between atoms: C_19  and  C_20
REMARK    8  A    between atoms: C_19  and  C_21
REMARK                            x       y       z     vdW  Elec       q    Type
REMARK                         _______ _______ _______ _____ _____    ______ ____
ROOT
ATOM      1  C   UNL     1       1.216   1.469   0.073  0.00  0.00    +0.044 C 
ATOM      2  C   UNL     1       1.006  -0.023   0.037  0.00  0.00    -0.039 A 
ATOM      3  C   UNL     1       1.185  -0.756  -1.131  0.00  0.00    +0.004 A 
ATOM      4  C   UNL     1       0.999  -2.131  -1.192  0.00  0.00    +0.006 A 
ATOM      5  C   UNL     1       0.620  -2.842  -0.079  0.00  0.00    -0.015 A 
ATOM      6  C   UNL     1       0.437  -2.117   1.095  0.00  0.00    +0.051 A 
ATOM      7  C   UNL     1       0.628  -0.733   1.173  0.00  0.00    +0.032 A 
ATOM      8  C   UNL     1       0.346  -0.382   2.569  0.00  0.00    +0.153 C 
ATOM      9  N   UNL     1       0.392   0.810   3.115  0.00  0.00    -0.175 NA
ATOM     10  C   UNL     1      -0.005  -1.665   3.233  0.00  0.00    +0.272 C 
ATOM     11  O   UNL     1      -0.305  -1.802   4.404  0.00  0.00    -0.268 OA
ATOM     12  N   UNL     1       0.054  -2.643   2.319  0.00  0.00    -0.260 N 
ATOM     13  C   UNL     1      -0.202  -4.086   2.455  0.00  0.00    +0.038 C 
ATOM     14  C   UNL     1      -0.639  -4.630   1.089  0.00  0.00    +0.041 C 
ATOM     15  C   UNL     1       0.388  -4.323  -0.006  0.00  0.00    +0.022 C 
ATOM     16  C   UNL     1       1.706  -5.030   0.319  0.00  0.00    +0.021 C 
ATOM     17  C   UNL     1       1.075  -4.796   2.908  0.00  0.00    +0.032 C 
ATOM     18  C   UNL     1      -1.313  -4.319   3.481  0.00  0.00    +0.032 C 
ENDROOT
BRANCH  15  19
ATOM     19  C   UNL     1      -0.130  -4.815  -1.333  0.00  0.00    -0.037 A 
ATOM     20  C   UNL     1       0.501  -5.864  -1.976  0.00  0.00    +0.004 A 
ATOM     21  C   UNL     1       0.025  -6.315  -3.192  0.00  0.00    +0.000 A 
ATOM     22  C   UNL     1      -1.082  -5.719  -3.766  0.00  0.00    +0.000 A 
ATOM     23  C   UNL     1      -1.714  -4.671  -3.123  0.00  0.00    +0.000 A 
ATOM     24  C   UNL     1      -1.240  -4.222  -1.904  0.00  0.00    +0.004 A 
ENDBRANCH  15  19
BRANCH   9  25
ATOM     25  N   UNL     1       0.144   1.948   2.335  0.00  0.00    -0.218 N 
ATOM     26  H   UNL     1      -0.154   1.851   1.417  0.00  0.00    +0.176 HD
BRANCH  25  27
ATOM     27  C   UNL     1       0.321   3.176   2.861  0.00  0.00    +0.147 C 
ATOM     28  S   UNL     1       0.018   4.566   1.908  0.00  0.00    -0.017 S 
BRANCH  27  29
ATOM     29  N   UNL     1       0.736   3.311   4.136  0.00  0.00    -0.339 N 
ATOM     30  H   UNL     1       0.907   2.523   4.676  0.00  0.00    +0.144 HD
ATOM     31  H   UNL     1       0.863   4.195   4.514  0.00  0.00    +0.144 HD
ENDBRANCH  27  29
ENDBRANCH  25  27
ENDBRANCH   9  25
TORSDOF 4
