REMARK  Name = ZINC09781797
REMARK  10 active torsions:
REMARK  status: ('A' for Active; 'I' for Inactive)
REMARK    1  A    between atoms: C_1  and  C_2
REMARK    2  A    between atoms: C_4  and  C_36
REMARK    3  A    between atoms: C_6  and  O_8
REMARK    4  A    between atoms: O_8  and  C_9
REMARK    5  A    between atoms: C_9  and  C_10
REMARK    6  A    between atoms: C_10  and  C_12
REMARK    7  A    between atoms: C_10  and  O_35
REMARK    8  A    between atoms: C_12  and  N_13
REMARK    9  A    between atoms: C_16  and  C_19
REMARK   10  A    between atoms: C_19  and  N_20
REMARK                            x       y       z     vdW  Elec       q    Type
REMARK                         _______ _______ _______ _____ _____    ______ ____
ROOT
ATOM      1  N   UNL     1      -0.017  -2.935   7.282  0.00  0.00    +0.381 N 
ATOM      2  C   UNL     1       1.327  -3.507   7.435  0.00  0.00    -0.078 C 
ATOM      3  C   UNL     1       1.361  -4.414   8.667  0.00  0.00    -0.014 C 
ATOM      4  C   UNL     1       1.010  -3.592   9.910  0.00  0.00    +0.003 C 
ATOM      5  C   UNL     1      -0.361  -2.940   9.707  0.00  0.00    -0.014 C 
ATOM      6  C   UNL     1      -0.332  -2.087   8.437  0.00  0.00    -0.078 C 
ATOM      7  H   UNL     1      -0.692  -3.682   7.219  0.00  0.00    -0.082 HD
ENDROOT
BRANCH   1   8
ATOM      8  C   UNL     1      -0.066  -2.127   6.056  0.00  0.00    -0.044 C 
BRANCH   8   9
ATOM      9  C   UNL     1      -1.503  -1.663   5.809  0.00  0.00    +0.135 C 
BRANCH   9  10
ATOM     10  O   UNL     1      -2.351  -2.802   5.651  0.00  0.00    -0.390 OA
ATOM     11  H   UNL     1      -2.106  -3.376   4.912  0.00  0.00    +0.210 HD
ENDBRANCH   9  10
BRANCH   9  12
ATOM     12  C   UNL     1      -1.552  -0.811   4.539  0.00  0.00    +0.258 C 
BRANCH  12  13
ATOM     13  O   UNL     1      -2.869  -0.281   4.372  0.00  0.00    -0.489 OA
BRANCH  13  19
ATOM     14  C   UNL     1      -1.148   1.837   0.325  0.00  0.00    +0.044 C 
ATOM     15  C   UNL     1      -2.271   1.559   1.290  0.00  0.00    -0.047 A 
ATOM     16  C   UNL     1      -3.523   2.103   1.069  0.00  0.00    +0.007 A 
ATOM     17  C   UNL     1      -4.556   1.849   1.952  0.00  0.00    -0.047 A 
ATOM     18  C   UNL     1      -4.339   1.051   3.059  0.00  0.00    +0.049 A 
ATOM     19  C   UNL     1      -3.084   0.504   3.284  0.00  0.00    +0.121 A 
ATOM     20  C   UNL     1      -2.051   0.755   2.393  0.00  0.00    +0.049 A 
ATOM     21  C   UNL     1      -5.919   2.444   1.708  0.00  0.00    +0.044 C 
ENDBRANCH  13  19
ENDBRANCH  12  13
ENDBRANCH   9  12
ENDBRANCH   8   9
ENDBRANCH   1   8
BRANCH   4  22
ATOM     22  C   UNL     1       0.964  -4.509  11.134  0.00  0.00    +0.120 C 
BRANCH  22  23
ATOM     23  N   UNL     1       0.746  -3.705  12.339  0.00  0.00    -0.234 N 
ATOM     24  C   UNL     1       1.816  -3.225  13.001  0.00  0.00    +0.254 C 
ATOM     25  O   UNL     1       2.937  -3.465  12.593  0.00  0.00    -0.270 OA
ATOM     26  C   UNL     1       1.637  -2.413  14.214  0.00  0.00    +0.046 A 
ATOM     27  C   UNL     1       2.711  -1.900  14.926  0.00  0.00    +0.014 A 
ATOM     28  C   UNL     1       2.490  -1.138  16.068  0.00  0.00    +0.001 A 
ATOM     29  C   UNL     1       1.229  -0.873  16.519  0.00  0.00    +0.008 A 
ATOM     30  C   UNL     1       0.114  -1.375  15.826  0.00  0.00    -0.016 A 
ATOM     31  C   UNL     1       0.324  -2.150  14.666  0.00  0.00    +0.006 A 
ATOM     32  C   UNL     1      -0.776  -2.669  13.947  0.00  0.00    +0.046 A 
ATOM     33  C   UNL     1      -2.061  -2.405  14.399  0.00  0.00    +0.014 A 
ATOM     34  C   UNL     1      -2.255  -1.639  15.543  0.00  0.00    +0.001 A 
ATOM     35  C   UNL     1      -1.204  -1.130  16.250  0.00  0.00    +0.008 A 
ATOM     36  C   UNL     1      -0.517  -3.468  12.740  0.00  0.00    +0.254 C 
ATOM     37  O   UNL     1      -1.449  -3.920  12.103  0.00  0.00    -0.270 OA
ENDBRANCH  22  23
ENDBRANCH   4  22
TORSDOF 8
