REMARK  Name = ZINC18162959
REMARK  7 active torsions:
REMARK  status: ('A' for Active; 'I' for Inactive)
REMARK    1  A    between atoms: C_2  and  N_24
REMARK    2  A    between atoms: N_8  and  C1*_11
REMARK    3  A    between atoms: C2*_13  and  O2*_23
REMARK    4  A    between atoms: C3*_15  and  O3*_22
REMARK    5  A    between atoms: C4*_17  and  C5*_20
REMARK    6  A    between atoms: C5*_20  and  O5*_21
REMARK    7  A    between atoms: N_24  and  C_25
REMARK                            x       y       z     vdW  Elec       q    Type
REMARK                         _______ _______ _______ _____ _____    ______ ____
ROOT
ATOM      1  C   UNL     1       4.020   2.033  -0.026  0.00  0.00    +0.065 A 
ATOM      2  C   UNL     1       3.478   0.752  -0.027  0.00  0.00    +0.060 A 
ATOM      3  C   UNL     1       2.078   0.627  -0.014  0.00  0.00    +0.129 A 
ATOM      4  C   UNL     1       1.292   1.789  -0.001  0.00  0.00    +0.166 A 
ATOM      5  N   UNL     1       1.863   2.986  -0.000  0.00  0.00    -0.216 NA
ATOM      6  C   UNL     1       3.174   3.129  -0.012  0.00  0.00    +0.133 A 
ATOM      7 CL   UNL     1       3.854   4.726  -0.011  0.00  0.00    -0.062 Cl
ATOM      8  N   UNL     1      -0.016   1.358   0.009  0.00  0.00    -0.286 N 
ATOM      9  C   UNL     1       0.002  -0.004   0.002  0.00  0.00    +0.203 A 
ATOM     10  N   UNL     1       1.230  -0.432  -0.012  0.00  0.00    -0.232 NA
ENDROOT
BRANCH   8  11
ATOM     11  C1* UNL     1      -1.209   2.209   0.020  0.00  0.00    +0.253 C 
ATOM     12  C2* UNL     1      -1.619   2.591  -1.425  0.00  0.00    +0.195 C 
ATOM     13  C3* UNL     1      -3.130   2.889  -1.265  0.00  0.00    +0.178 C 
ATOM     14  C4* UNL     1      -3.524   2.156   0.032  0.00  0.00    +0.177 C 
ATOM     15  O4* UNL     1      -2.351   1.478   0.516  0.00  0.00    -0.346 OA
BRANCH  13  16
ATOM     16  O3* UNL     1      -3.352   4.294  -1.133  0.00  0.00    -0.386 OA
ATOM     17  H3* UNL     1      -4.282   4.537  -1.029  0.00  0.00    +0.210 HD
ENDBRANCH  13  16
BRANCH  12  18
ATOM     18  O2* UNL     1      -0.915   3.754  -1.864  0.00  0.00    -0.385 OA
ATOM     19  H2* UNL     1      -1.137   4.033  -2.763  0.00  0.00    +0.210 HD
ENDBRANCH  12  18
BRANCH  14  20
ATOM     20  C5* UNL     1      -4.631   1.141  -0.259  0.00  0.00    +0.190 C 
BRANCH  20  21
ATOM     21  O5* UNL     1      -5.070   0.550   0.966  0.00  0.00    -0.392 OA
ATOM     22  H5* UNL     1      -5.773  -0.105   0.857  0.00  0.00    +0.210 HD
ENDBRANCH  20  21
ENDBRANCH  14  20
ENDBRANCH   8  11
BRANCH   2  23
ATOM     23  N   UNL     1       4.298  -0.371  -0.041  0.00  0.00    -0.339 N 
ATOM     24  H   UNL     1       3.905  -1.258  -0.041  0.00  0.00    +0.146 HD
BRANCH  23  25
ATOM     25  C   UNL     1       5.755  -0.215  -0.054  0.00  0.00    +0.070 C 
ATOM     26  C   UNL     1       6.235  -0.029  -1.494  0.00  0.00    +0.022 C 
ATOM     27  C   UNL     1       7.756   0.134  -1.508  0.00  0.00    +0.002 C 
ATOM     28  C   UNL     1       8.408  -1.115  -0.911  0.00  0.00    +0.000 C 
ATOM     29  C   UNL     1       7.928  -1.301   0.530  0.00  0.00    +0.002 C 
ATOM     30  C   UNL     1       6.407  -1.464   0.543  0.00  0.00    +0.022 C 
ENDBRANCH  23  25
ENDBRANCH   2  23
TORSDOF 7
