REMARK  Name = ZINC04455703
REMARK  4 active torsions:
REMARK  status: ('A' for Active; 'I' for Inactive)
REMARK    1  A    between atoms: C_1  and  N_2
REMARK    2  A    between atoms: N_9  and  N_10
REMARK    3  A    between atoms: C_11  and  C_12
REMARK    4  A    between atoms: N_22  and  C_23
REMARK                            x       y       z     vdW  Elec       q    Type
REMARK                         _______ _______ _______ _____ _____    ______ ____
ROOT
ATOM      1  C   UNL     1      -2.106  -3.649  -0.510  0.00  0.00    +0.128 C 
ATOM      2  N   UNL     1      -3.534  -3.915  -0.325  0.00  0.00    -0.316 N 
ATOM      3  C   UNL     1      -4.437  -2.870  -0.325  0.00  0.00    +0.221 A 
ATOM      4  N   UNL     1      -5.733  -3.112  -0.157  0.00  0.00    -0.181 NA
ATOM      5  C   UNL     1      -6.603  -2.106  -0.157  0.00  0.00    +0.225 A 
ATOM      6  N   UNL     1      -6.175  -0.858  -0.320  0.00  0.00    -0.179 NA
ATOM      7  C   UNL     1      -4.879  -0.617  -0.494  0.00  0.00    +0.241 A 
ATOM      8  N   UNL     1      -4.010  -1.623  -0.494  0.00  0.00    -0.180 NA
ATOM      9  N   UNL     1      -4.436   0.678  -0.669  0.00  0.00    -0.205 N 
ATOM     10  N   UNL     1      -7.950  -2.358   0.018  0.00  0.00    -0.283 N 
ATOM     11  H   UNL     1      -3.846  -4.825  -0.202  0.00  0.00    +0.149 HD
ATOM     12  H   UNL     1      -5.070   1.412  -0.669  0.00  0.00    +0.177 HD
ATOM     13  H   UNL     1      -8.271  -3.272   0.062  0.00  0.00    +0.155 HD
ENDROOT
BRANCH  10  14
ATOM     14  C   UNL     1      -8.851  -1.294   0.133  0.00  0.00    +0.034 A 
ATOM     15  C   UNL     1      -8.458  -0.113   0.750  0.00  0.00    +0.023 A 
ATOM     16  C   UNL     1      -9.348   0.937   0.858  0.00  0.00    +0.002 A 
ATOM     17  C   UNL     1     -10.633   0.810   0.362  0.00  0.00    +0.000 A 
ATOM     18  C   UNL     1     -11.029  -0.366  -0.248  0.00  0.00    +0.002 A 
ATOM     19  C   UNL     1     -10.142  -1.419  -0.363  0.00  0.00    +0.023 A 
ENDBRANCH  10  14
BRANCH   9  20
ATOM     20  N   UNL     1      -3.070   0.933  -0.846  0.00  0.00    -0.187 NA
ATOM     21  C   UNL     1      -2.652   2.152  -1.011  0.00  0.00    +0.140 C 
BRANCH  21  22
ATOM     22  C   UNL     1      -1.217   2.420  -1.198  0.00  0.00    +0.020 A 
ATOM     23  C   UNL     1      -0.633   3.634  -1.378  0.00  0.00    +0.093 A 
ATOM     24  N   UNL     1       0.715   3.480  -1.522  0.00  0.00    -0.360 N 
ATOM     25  H   UNL     1       1.343   4.205  -1.667  0.00  0.00    +0.165 HD
ATOM     26  C   UNL     1       1.055   2.147  -1.432  0.00  0.00    +0.047 A 
ATOM     27  C   UNL     1      -0.131   1.423  -1.222  0.00  0.00    +0.008 A 
ATOM     28  C   UNL     1      -0.088   0.037  -1.092  0.00  0.00    +0.010 A 
ATOM     29  C   UNL     1       1.121  -0.618  -1.171  0.00  0.00    +0.001 A 
ATOM     30  C   UNL     1       2.292   0.095  -1.378  0.00  0.00    +0.002 A 
ATOM     31  C   UNL     1       2.265   1.467  -1.509  0.00  0.00    +0.026 A 
ENDBRANCH  21  22
ENDBRANCH   9  20
TORSDOF 3
