REMARK  Name = ZINC04067211
REMARK  11 active torsions:
REMARK  status: ('A' for Active; 'I' for Inactive)
REMARK    1  A    between atoms: C_1  and  C_2
REMARK    2  A    between atoms: C_2  and  O_3
REMARK    3  A    between atoms: O_3  and  C_4
REMARK    4  A    between atoms: C_6  and  C_12
REMARK    5  A    between atoms: C_9  and  O_10
REMARK    6  A    between atoms: C_22  and  C_35
REMARK    7  A    between atoms: C_23  and  C_24
REMARK    8  A    between atoms: C_24  and  O_26
REMARK    9  A    between atoms: O_26  and  C_27
REMARK   10  A    between atoms: C_27  and  C_28
REMARK   11  A    between atoms: C_28  and  C_29
REMARK                            x       y       z     vdW  Elec       q    Type
REMARK                         _______ _______ _______ _____ _____    ______ ____
ROOT
ATOM      1  C   UNL     1      -0.419  10.127  -1.420  0.00  0.00    +0.092 C 
ATOM      2  C   UNL     1       0.169  11.506  -1.593  0.00  0.00    +0.024 C 
ATOM      3  C   UNL     1       0.371  12.019  -2.825  0.00  0.00    +0.015 C 
ATOM      4  C   UNL     1       0.930  13.409  -3.006  0.00  0.00    +0.051 C 
ATOM      5  C   UNL     1       1.869  13.740  -1.844  0.00  0.00    +0.014 C 
ATOM      6  C   UNL     1       1.081  13.623  -0.535  0.00  0.00    +0.080 C 
ATOM      7  C   UNL     1       0.491  12.242  -0.439  0.00  0.00    +0.162 C 
ATOM      8  O   UNL     1       0.289  11.754   0.655  0.00  0.00    -0.292 OA
ATOM      9  N   UNL     1       0.068  11.286  -3.941  0.00  0.00    -0.321 N 
ATOM     10  C   UNL     1      -0.068   9.928  -3.868  0.00  0.00    +0.016 C 
ATOM     11  C   UNL     1      -0.295   9.329  -2.686  0.00  0.00    +0.065 C 
ATOM     12  C   UNL     1       0.038   9.096  -5.120  0.00  0.00    +0.061 C 
ATOM     13  H   UNL     1      -0.068  11.790  -4.910  0.00  0.00    +0.152 HD
ENDROOT
BRANCH   1  16
ATOM     14  C   UNL     1      -3.662   9.858   0.499  0.00  0.00    +0.163 A 
ATOM     15  C   UNL     1      -2.323   9.749   0.158  0.00  0.00    +0.054 A 
ATOM     16  C   UNL     1      -1.875  10.246  -1.051  0.00  0.00    -0.030 A 
ATOM     17  C   UNL     1      -2.759  10.859  -1.920  0.00  0.00    +0.023 A 
ATOM     18  C   UNL     1      -4.097  10.967  -1.588  0.00  0.00    +0.063 A 
ATOM     19  C   UNL     1      -4.553  10.470  -0.377  0.00  0.00    +0.173 A 
ATOM     20 BR   UNL     1      -5.303  11.800  -2.783  0.00  0.00    -0.046 Br
BRANCH  19  21
ATOM     21  O   UNL     1      -5.867  10.580  -0.046  0.00  0.00    -0.503 OA
ATOM     22  H   UNL     1      -6.570  11.064  -0.740  0.00  0.00    +0.292 HD
ENDBRANCH  19  21
BRANCH  14  23
ATOM     23  O   UNL     1      -4.104   9.370   1.689  0.00  0.00    -0.489 OA
BRANCH  23  25
ATOM     24  C   UNL     1      -3.812   8.270   3.821  0.00  0.00    +0.048 C 
ATOM     25  C   UNL     1      -3.133   8.755   2.539  0.00  0.00    +0.226 C 
ENDBRANCH  23  25
ENDBRANCH  14  23
ENDBRANCH   1  16
BRANCH  11  26
ATOM     26  C   UNL     1      -0.426   7.922  -2.635  0.00  0.00    +0.338 C 
ATOM     27  O   UNL     1       0.476   7.243  -2.183  0.00  0.00    -0.245 OA
BRANCH  26  28
ATOM     28  O   UNL     1      -1.553   7.332  -3.087  0.00  0.00    -0.461 OA
BRANCH  28  29
ATOM     29  C   UNL     1      -1.617   5.907  -3.006  0.00  0.00    +0.237 C 
BRANCH  29  30
ATOM     30  C   UNL     1      -2.958   5.424  -3.561  0.00  0.00    +0.076 C 
BRANCH  30  31
ATOM     31  C   UNL     1      -3.026   3.921  -3.475  0.00  0.00    -0.044 A 
ATOM     32  C   UNL     1      -3.540   3.317  -2.343  0.00  0.00    +0.004 A 
ATOM     33  C   UNL     1      -3.602   1.938  -2.264  0.00  0.00    +0.000 A 
ATOM     34  C   UNL     1      -3.149   1.164  -3.316  0.00  0.00    +0.000 A 
ATOM     35  C   UNL     1      -2.630   1.769  -4.446  0.00  0.00    +0.000 A 
ATOM     36  C   UNL     1      -2.574   3.147  -4.527  0.00  0.00    +0.004 A 
ENDBRANCH  30  31
ENDBRANCH  29  30
ENDBRANCH  28  29
ENDBRANCH  26  28
ENDBRANCH  11  26
TORSDOF 9
