REMARK  Name = ZINC20911961
REMARK  14 active torsions:
REMARK  status: ('A' for Active; 'I' for Inactive)
REMARK    1  A    between atoms: C_1  and  C_2
REMARK    2  A    between atoms: C_7  and  N_8
REMARK    3  A    between atoms: C_9  and  C_11
REMARK    4  A    between atoms: C_11  and  C_12
REMARK    5  A    between atoms: C_12  and  S_13
REMARK    6  A    between atoms: S_13  and  C_14
REMARK    7  A    between atoms: N_18  and  N_19
REMARK    8  A    between atoms: N_20  and  N_21
REMARK    9  A    between atoms: C_22  and  C_23
REMARK   10  A    between atoms: C_24  and  C_32
REMARK   11  A    between atoms: N_26  and  C_29
REMARK   12  A    between atoms: C_27  and  C_28
REMARK   13  A    between atoms: C_29  and  C_30
REMARK   14  A    between atoms: C_29  and  C_31
REMARK                            x       y       z     vdW  Elec       q    Type
REMARK                         _______ _______ _______ _____ _____    ______ ____
ROOT
ATOM      1  C   UNL     1       1.306  -0.409  -0.044  0.00  0.00    +0.210 A 
ATOM      2  N   UNL     1       2.062   0.662  -0.037  0.00  0.00    -0.119 NA
ATOM      3  N   UNL     1       1.223   1.784  -0.026  0.00  0.00    -0.109 NA
ATOM      4  C   UNL     1      -0.018   1.362  -0.027  0.00  0.00    +0.254 A 
ATOM      5  N   UNL     1       0.001  -0.005  -0.038  0.00  0.00    -0.211 N 
ATOM      6  N   UNL     1      -1.151   2.162  -0.024  0.00  0.00    -0.204 N 
ATOM      7  H   UNL     1      -2.150   1.700  -0.030  0.00  0.00    +0.177 HD
ENDROOT
BRANCH   5   8
ATOM      8  N   UNL     1      -1.093  -0.823  -0.042  0.00  0.00    -0.294 N 
ATOM      9  H   UNL     1      -2.104  -0.390  -0.037  0.00  0.00    +0.163 HD
ATOM     10  H   UNL     1      -0.963  -1.915  -0.050  0.00  0.00    +0.163 HD
ENDBRANCH   5   8
BRANCH   6  11
ATOM     11  N   UNL     1      -1.024   3.557  -0.013  0.00  0.00    -0.187 NA
ATOM     12  C   UNL     1      -2.084   4.305  -0.010  0.00  0.00    +0.141 C 
BRANCH  12  13
ATOM     13  C   UNL     1      -1.950   5.775   0.002  0.00  0.00    +0.038 A 
ATOM     14  C   UNL     1      -0.742   6.505   0.011  0.00  0.00    +0.069 A 
ATOM     15  N   UNL     1      -1.036   7.777   0.019  0.00  0.00    -0.175 NA
ATOM     16  N   UNL     1      -2.428   7.920   0.017  0.00  0.00    -0.265 N 
ATOM     17  C   UNL     1      -2.981   6.689   0.001  0.00  0.00    +0.045 A 
ATOM     18  C   UNL     1      -4.454   6.373  -0.012  0.00  0.00    +0.066 C 
ATOM     19  C   UNL     1       0.646   5.918   0.011  0.00  0.00    +0.068 C 
BRANCH  16  20
ATOM     20  C   UNL     1      -3.161   9.188   0.024  0.00  0.00    +0.101 C 
ATOM     21  C   UNL     1      -2.794   9.982   1.280  0.00  0.00    +0.032 C 
ATOM     22  C   UNL     1      -2.788  10.000  -1.218  0.00  0.00    +0.032 C 
ENDBRANCH  16  20
ENDBRANCH  12  13
ENDBRANCH   6  11
BRANCH   1  23
ATOM     23  S   UNL     1       1.873  -2.078  -0.058  0.00  0.00    -0.084 S 
BRANCH  23  24
ATOM     24  C   UNL     1       3.681  -1.926  -0.060  0.00  0.00    +0.086 C 
BRANCH  24  25
ATOM     25  C   UNL     1       4.310  -3.321  -0.072  0.00  0.00    +0.107 C 
BRANCH  25  27
ATOM     26  N   UNL     1       6.580  -4.302  -0.084  0.00  0.00    -0.285 N 
ATOM     27  C   UNL     1       5.811  -3.195  -0.074  0.00  0.00    +0.218 C 
ATOM     28  O   UNL     1       6.328  -2.098  -0.066  0.00  0.00    -0.275 OA
ATOM     29  H   UNL     1       6.115  -5.295   0.001  0.00  0.00    +0.155 HD
BRANCH  26  36
ATOM     30  C   UNL     1       8.194  -6.414   0.933  0.00  0.00    +0.045 C 
ATOM     31  C   UNL     1       8.794  -5.195   0.280  0.00  0.00    -0.029 A 
ATOM     32  C   UNL     1      10.166  -5.080   0.163  0.00  0.00    +0.006 A 
ATOM     33  C   UNL     1      10.719  -3.963  -0.435  0.00  0.00    +0.020 A 
ATOM     34  C   UNL     1       9.900  -2.956  -0.917  0.00  0.00    +0.043 A 
ATOM     35  C   UNL     1       8.527  -3.069  -0.807  0.00  0.00    +0.043 A 
ATOM     36  C   UNL     1       7.970  -4.188  -0.202  0.00  0.00    +0.038 A 
ATOM     37 CL   UNL     1      10.598  -1.554  -1.667  0.00  0.00    -0.083 Cl
ENDBRANCH  26  36
ENDBRANCH  25  27
ENDBRANCH  24  25
ENDBRANCH  23  24
ENDBRANCH   1  23
TORSDOF 9
