REMARK  Name = ZINC40793546
REMARK  4 active torsions:
REMARK  status: ('A' for Active; 'I' for Inactive)
REMARK    1  A    between atoms: C_11  and  N_28
REMARK    2  A    between atoms: C_12  and  N_16
REMARK    3  A    between atoms: N_16  and  N_17
REMARK    4  A    between atoms: C_18  and  C_20
REMARK                            x       y       z     vdW  Elec       q    Type
REMARK                         _______ _______ _______ _____ _____    ______ ____
ROOT
ATOM      1  C   UNL     1       0.111   0.271  -2.090  0.00  0.00    +0.002 A 
ATOM      2  C   UNL     1       1.315   0.807  -2.524  0.00  0.00    +0.002 A 
ATOM      3  C   UNL     1       2.493   0.490  -1.881  0.00  0.00    +0.028 A 
ATOM      4  C   UNL     1       2.471  -0.371  -0.793  0.00  0.00    +0.075 A 
ATOM      5  C   UNL     1       1.252  -0.913  -0.353  0.00  0.00    +0.089 A 
ATOM      6  C   UNL     1       0.071  -0.578  -1.021  0.00  0.00    +0.030 A 
ATOM      7  N   UNL     1       1.532  -1.708   0.712  0.00  0.00    -0.235 NA
ATOM      8  C   UNL     1       2.811  -1.689   0.949  0.00  0.00    +0.206 A 
ATOM      9  N   UNL     1       3.441  -0.880   0.051  0.00  0.00    -0.281 N 
ATOM     10  C   UNL     1       4.811  -0.616  -0.006  0.00  0.00    +0.165 A 
ATOM     11  C   UNL     1       5.736  -1.659   0.034  0.00  0.00    +0.110 A 
ATOM     12  C   UNL     1       7.095  -1.338  -0.026  0.00  0.00    +0.161 A 
ATOM     13  N   UNL     1       7.452  -0.060  -0.119  0.00  0.00    -0.217 NA
ATOM     14  C   UNL     1       6.544   0.895  -0.154  0.00  0.00    +0.225 A 
ATOM     15  N   UNL     1       5.254   0.635  -0.105  0.00  0.00    -0.216 NA
ENDROOT
BRANCH  11  16
ATOM     16  N   UNL     1       5.314  -2.993   0.134  0.00  0.00    -0.352 N 
ATOM     17  H   UNL     1       4.370  -3.209   0.072  0.00  0.00    +0.143 HD
ATOM     18  H   UNL     1       5.965  -3.699   0.264  0.00  0.00    +0.143 HD
ENDBRANCH  11  16
BRANCH  12  19
ATOM     19  N   UNL     1       8.058  -2.339   0.011  0.00  0.00    -0.247 N 
ATOM     20  H   UNL     1       7.790  -3.268   0.079  0.00  0.00    +0.172 HD
BRANCH  19  21
ATOM     21  N   UNL     1       9.418  -2.005  -0.050  0.00  0.00    -0.231 N 
ATOM     22  C   UNL     1      10.352  -2.975  -0.014  0.00  0.00    +0.262 C 
ATOM     23  O   UNL     1      10.015  -4.141   0.071  0.00  0.00    -0.269 OA
ATOM     24  H   UNL     1       9.686  -1.075  -0.119  0.00  0.00    +0.173 HD
BRANCH  22  25
ATOM     25  C   UNL     1      11.785  -2.624  -0.079  0.00  0.00    +0.057 A 
ATOM     26  C   UNL     1      12.175  -1.286  -0.172  0.00  0.00    +0.016 A 
ATOM     27  C   UNL     1      13.514  -0.964  -0.231  0.00  0.00    +0.021 A 
ATOM     28  C   UNL     1      14.473  -1.963  -0.199  0.00  0.00    +0.042 A 
ATOM     29  C   UNL     1      14.094  -3.292  -0.108  0.00  0.00    +0.040 A 
ATOM     30  C   UNL     1      12.757  -3.627  -0.042  0.00  0.00    +0.054 A 
ATOM     31 CL   UNL     1      12.282  -5.293   0.080  0.00  0.00    -0.083 Cl
ATOM     32 CL   UNL     1      16.157  -1.548  -0.275  0.00  0.00    -0.083 Cl
ENDBRANCH  22  25
ENDBRANCH  19  21
ENDBRANCH  12  19
TORSDOF 4
