REMARK  Name = ZINC12005442
REMARK  9 active torsions:
REMARK  status: ('A' for Active; 'I' for Inactive)
REMARK    1  A    between atoms: C_1  and  C_2
REMARK    2  A    between atoms: C_5  and  C_9
REMARK    3  A    between atoms: C_6  and  C_8
REMARK    4  A    between atoms: C_9  and  N_68
REMARK    5  A    between atoms: C_12  and  C_15
REMARK    6  A    between atoms: C_12  and  O_34
REMARK    7  A    between atoms: C_22  and  C_24
REMARK    8  A    between atoms: N_26  and  C_27
REMARK    9  A    between atoms: C_27  and  C_28
REMARK                            x       y       z     vdW  Elec       q    Type
REMARK                         _______ _______ _______ _____ _____    ______ ____
ROOT
ATOM      1  C   UNL     1      -1.746  10.136  -2.919  0.00  0.00    -0.015 A 
ATOM      2  C   UNL     1      -1.014   9.967  -1.751  0.00  0.00    +0.010 A 
ATOM      3  C   UNL     1      -0.693   8.706  -1.298  0.00  0.00    +0.047 A 
ATOM      4  C   UNL     1      -1.105   7.588  -2.013  0.00  0.00    +0.136 A 
ATOM      5  C   UNL     1      -1.847   7.765  -3.196  0.00  0.00    +0.021 A 
ATOM      6  C   UNL     1      -2.162   9.052  -3.638  0.00  0.00    +0.018 A 
ATOM      7  C   UNL     1      -2.115   6.419  -3.701  0.00  0.00    +0.063 A 
ATOM      8  C   UNL     1      -1.544   5.564  -2.814  0.00  0.00    +0.190 A 
ATOM      9  O   UNL     1      -0.948   6.263  -1.826  0.00  0.00    -0.450 OA
ENDROOT
BRANCH   1  12
ATOM     10  C   UNL     1      -2.497  13.883  -2.683  0.00  0.00    -0.075 C 
ATOM     11  C   UNL     1      -2.213  12.462  -2.190  0.00  0.00    +0.021 C 
ATOM     12  C   UNL     1      -2.085  11.526  -3.395  0.00  0.00    +0.088 C 
ATOM     13  C   UNL     1      -0.972  12.037  -4.313  0.00  0.00    +0.021 C 
ATOM     14  C   UNL     1      -1.292  13.470  -4.745  0.00  0.00    -0.075 C 
ATOM     15  N   UNL     1      -1.378  14.326  -3.542  0.00  0.00    +0.383 N 
ATOM     16  H   UNL     1      -0.501  14.246  -3.013  0.00  0.00    -0.081 HD
BRANCH  12  17
ATOM     17  O   UNL     1      -3.321  11.497  -4.111  0.00  0.00    -0.384 OA
ATOM     18  H   UNL     1      -3.311  10.923  -4.890  0.00  0.00    +0.211 HD
ENDBRANCH  12  17
BRANCH  15  19
ATOM     19  C   UNL     1      -1.573  15.736  -3.938  0.00  0.00    -0.043 C 
BRANCH  19  24
ATOM     20  C   UNL     1       3.397  17.764  -6.078  0.00  0.00    +0.044 C 
ATOM     21  C   UNL     1       2.101  17.235  -5.520  0.00  0.00    -0.050 A 
ATOM     22  C   UNL     1       1.044  16.960  -6.368  0.00  0.00    +0.003 A 
ATOM     23  C   UNL     1      -0.144  16.475  -5.856  0.00  0.00    +0.002 A 
ATOM     24  C   UNL     1      -0.277  16.264  -4.496  0.00  0.00    -0.061 A 
ATOM     25  C   UNL     1       0.778  16.544  -3.648  0.00  0.00    -0.049 A 
ATOM     26  C   UNL     1       1.969  17.024  -4.160  0.00  0.00    +0.007 A 
ATOM     27  C   UNL     1       0.632  16.320  -2.165  0.00  0.00    +0.044 C 
ENDBRANCH  19  24
ENDBRANCH  15  19
ENDBRANCH   1  12
BRANCH   8  28
ATOM     28  C   UNL     1      -1.565   4.098  -2.919  0.00  0.00    +0.279 C 
ATOM     29  O   UNL     1      -2.131   3.563  -3.854  0.00  0.00    -0.267 OA
ATOM     30  N   UNL     1      -0.958   3.346  -1.980  0.00  0.00    -0.306 N 
ATOM     31  H   UNL     1      -0.507   3.772  -1.235  0.00  0.00    +0.149 HD
BRANCH  30  32
ATOM     32  C   UNL     1      -0.980   1.885  -2.084  0.00  0.00    +0.136 C 
BRANCH  32  33
ATOM     33  C   UNL     1      -0.224   1.278  -0.900  0.00  0.00    +0.135 C 
ATOM     34  C   UNL     1      -0.241  -0.260  -1.001  0.00  0.00    +0.035 C 
ATOM     35  C   UNL     1       1.255  -0.654  -1.040  0.00  0.00    +0.031 C 
ATOM     36  C   UNL     1       1.936   0.594  -0.422  0.00  0.00    +0.160 C 
ATOM     37  O   UNL     1       1.151   1.693  -0.933  0.00  0.00    -0.375 OA
ENDBRANCH  32  33
ENDBRANCH  30  32
ENDBRANCH   8  28
TORSDOF 7
