REMARK  Name = ZINC63550544
REMARK  10 active torsions:
REMARK  status: ('A' for Active; 'I' for Inactive)
REMARK    1  A    between atoms: C_1  and  C_2
REMARK    2  A    between atoms: C_2  and  C_3
REMARK    3  A    between atoms: C_2  and  C_4
REMARK    4  A    between atoms: C_2  and  C_5
REMARK    5  A    between atoms: C_5  and  C_6
REMARK    6  A    between atoms: C_5  and  N_11
REMARK    7  A    between atoms: N_11  and  C_12
REMARK    8  A    between atoms: C_12  and  C_13
REMARK    9  A    between atoms: N_15  and  C_16
REMARK   10  A    between atoms: N_20  and  C_21
REMARK                            x       y       z     vdW  Elec       q    Type
REMARK                         _______ _______ _______ _____ _____    ______ ____
ROOT
ATOM      1  C   UNL     1      -1.046  -1.918  -1.045  0.00  0.00    +0.016 C 
ENDROOT
BRANCH   1   2
ATOM      2  C   UNL     1      -1.297  -3.401  -0.947  0.00  0.00    +0.201 C 
ATOM      3  O   UNL     1      -0.367  -4.164  -0.793  0.00  0.00    -0.278 OA
ATOM      4  N   UNL     1      -2.554  -3.879  -1.031  0.00  0.00    -0.272 N 
ATOM      5  H   UNL     1      -3.298  -3.268  -1.155  0.00  0.00    +0.156 HD
BRANCH   4   6
ATOM      6  C   UNL     1      -2.786  -5.251  -0.940  0.00  0.00    +0.123 A 
ATOM      7  C   UNL     1      -1.843  -6.216  -0.762  0.00  0.00    +0.065 A 
ATOM      8  C   UNL     1      -2.496  -7.451  -0.725  0.00  0.00    +0.136 A 
ATOM      9  N   UNL     1      -3.779  -7.242  -0.875  0.00  0.00    -0.178 NA
ATOM     10  N   UNL     1      -3.990  -5.864  -1.008  0.00  0.00    -0.247 N 
BRANCH  10  11
ATOM     11  C   UNL     1      -5.285  -5.204  -1.190  0.00  0.00    +0.109 C 
ATOM     12  C   UNL     1      -6.230  -5.563  -0.026  0.00  0.00    +0.027 C 
ATOM     13  C   UNL     1      -7.622  -5.692  -0.692  0.00  0.00    +0.002 C 
ATOM     14  C   UNL     1      -7.291  -6.362  -2.049  0.00  0.00    +0.002 C 
ATOM     15  C   UNL     1      -5.959  -5.712  -2.477  0.00  0.00    +0.027 C 
ENDBRANCH  10  11
ENDBRANCH   4   6
ENDBRANCH   1   2
BRANCH   1  16
ATOM     16  N   UNL     1       0.394  -1.656  -0.925  0.00  0.00    +0.390 N 
ATOM     17  H   UNL     1       0.884  -2.122  -1.674  0.00  0.00    -0.084 HD
ATOM     18  H   UNL     1       0.727  -2.003  -0.038  0.00  0.00    -0.084 HD
BRANCH  16  19
ATOM     19  C   UNL     1       0.637  -0.210  -1.007  0.00  0.00    -0.028 C 
BRANCH  19  20
ATOM     20  C   UNL     1       0.281   0.283  -2.386  0.00  0.00    -0.024 A 
ATOM     21  C   UNL     1      -0.341   1.431  -2.748  0.00  0.00    +0.009 A 
ATOM     22  C   UNL     1      -0.567   1.677  -4.090  0.00  0.00    +0.008 A 
ATOM     23  C   UNL     1      -0.160   0.763  -5.003  0.00  0.00    +0.045 A 
ATOM     24  S   UNL     1       0.575  -0.492  -3.967  0.00  0.00    -0.103 S 
ENDBRANCH  19  20
BRANCH  19  26
ATOM     25  C   UNL     1       2.386   1.572  -0.899  0.00  0.00    +0.009 C 
ATOM     26  C   UNL     1       2.115   0.076  -0.730  0.00  0.00    -0.046 C 
ATOM     27  C   UNL     1       2.980  -0.713  -1.715  0.00  0.00    +0.009 C 
ATOM     28  C   UNL     1       2.456  -0.346   0.700  0.00  0.00    +0.009 C 
ENDBRANCH  19  26
ENDBRANCH  16  19
ENDBRANCH   1  16
TORSDOF 7
