REMARK  Name = ZINC19626394
REMARK  10 active torsions:
REMARK  status: ('A' for Active; 'I' for Inactive)
REMARK    1  A    between atoms: C_4  and  C_7
REMARK    2  A    between atoms: C_7  and  N_8
REMARK    3  A    between atoms: C_9  and  N_37
REMARK    4  A    between atoms: C_10  and  N_17
REMARK    5  A    between atoms: N_17  and  C_18
REMARK    6  A    between atoms: C_18  and  C_19
REMARK    7  A    between atoms: C_19  and  C_20
REMARK    8  A    between atoms: C_26  and  C_28
REMARK    9  A    between atoms: C_28  and  C_29
REMARK   10  A    between atoms: C_29  and  C_30
REMARK                            x       y       z     vdW  Elec       q    Type
REMARK                         _______ _______ _______ _____ _____    ______ ____
ROOT
ATOM      1  N   UNL     1      -0.448   4.987  -4.285  0.00  0.00    -0.264 N 
ATOM      2  C   UNL     1      -0.483   4.267  -5.426  0.00  0.00    +0.220 C 
ATOM      3  O   UNL     1      -0.666   4.822  -6.489  0.00  0.00    -0.275 OA
ENDROOT
BRANCH   1   6
ATOM      4  N   UNL     1      -0.066   8.634  -4.054  0.00  0.00    -0.276 N 
ATOM      5  C   UNL     1       0.243   7.295  -4.014  0.00  0.00    +0.128 A 
ATOM      6  C   UNL     1      -0.735   6.368  -4.314  0.00  0.00    +0.140 A 
ATOM      7  C   UNL     1      -2.025   6.825  -4.644  0.00  0.00    +0.277 A 
ATOM      8  O   UNL     1      -2.909   6.027  -4.909  0.00  0.00    -0.266 OA
ATOM      9  N   UNL     1      -2.276   8.148  -4.665  0.00  0.00    -0.273 N 
ATOM     10  H   UNL     1      -3.282   8.513  -4.921  0.00  0.00    +0.173 HD
ATOM     11  C   UNL     1      -1.310   9.037  -4.374  0.00  0.00    +0.331 A 
ATOM     12  O   UNL     1      -1.564  10.225  -4.400  0.00  0.00    -0.246 OA
BRANCH   5  13
ATOM     13  N   UNL     1       1.512   6.883  -3.682  0.00  0.00    -0.343 N 
ATOM     14  H   UNL     1       1.752   5.811  -3.652  0.00  0.00    +0.144 HD
ATOM     15  H   UNL     1       2.287   7.628  -3.448  0.00  0.00    +0.144 HD
ENDBRANCH   5  13
BRANCH   4  16
ATOM     16  C   UNL     1       0.963   9.629  -3.743  0.00  0.00    +0.163 C 
BRANCH  16  20
ATOM     17  C   UNL     1       0.921  10.459   0.448  0.00  0.00    +0.000 A 
ATOM     18  C   UNL     1       1.721   9.446  -0.049  0.00  0.00    +0.000 A 
ATOM     19  C   UNL     1       1.734   9.177  -1.405  0.00  0.00    +0.005 A 
ATOM     20  C   UNL     1       0.948   9.921  -2.264  0.00  0.00    -0.028 A 
ATOM     21  C   UNL     1       0.152  10.937  -1.769  0.00  0.00    +0.005 A 
ATOM     22  C   UNL     1       0.135  11.202  -0.412  0.00  0.00    +0.000 A 
ENDBRANCH  16  20
ENDBRANCH   4  16
ENDBRANCH   1   6
BRANCH   1  23
ATOM     23  C   UNL     1      -0.112   4.335  -3.017  0.00  0.00    +0.118 C 
BRANCH  23  24
ATOM     24  C   UNL     1      -1.398   3.927  -2.297  0.00  0.00    +0.050 C 
BRANCH  24  25
ATOM     25  C   UNL     1      -1.052   3.256  -0.992  0.00  0.00    -0.072 C 
ATOM     26  C   UNL     1      -1.035   3.983   0.078  0.00  0.00    -0.028 C 
ATOM     27  C   UNL     1      -0.700   3.461   1.444  0.00  0.00    +0.027 C 
ATOM     28  C   UNL     1      -0.800   1.935   1.468  0.00  0.00    +0.004 C 
ATOM     29  C   UNL     1      -0.023   1.378   0.268  0.00  0.00    +0.005 C 
ATOM     30  C   UNL     1      -0.749   1.787  -1.016  0.00  0.00    +0.030 C 
ENDBRANCH  24  25
ENDBRANCH  23  24
ENDBRANCH   1  23
BRANCH   2  31
ATOM     31  C   UNL     1      -0.295   2.772  -5.379  0.00  0.00    +0.101 C 
BRANCH  31  32
ATOM     32  C   UNL     1      -0.378   2.203  -6.797  0.00  0.00    +0.047 C 
BRANCH  32  33
ATOM     33  C   UNL     1      -0.190   0.709  -6.751  0.00  0.00    -0.012 A 
ATOM     34  C   UNL     1       1.061   0.163  -6.966  0.00  0.00    +0.006 A 
ATOM     35  C   UNL     1       1.235  -1.208  -6.918  0.00  0.00    +0.000 A 
ATOM     36  C   UNL     1       0.155  -2.034  -6.665  0.00  0.00    +0.003 A 
ATOM     37  C   UNL     1      -1.097  -1.491  -6.456  0.00  0.00    +0.038 A 
ATOM     38  C   UNL     1      -1.272  -0.118  -6.498  0.00  0.00    +0.127 A 
ATOM     39  F   UNL     1      -2.496   0.415  -6.293  0.00  0.00    -0.205 F 
ENDBRANCH  32  33
ENDBRANCH  31  32
ENDBRANCH   2  31
TORSDOF 10
