REMARK  Name = ZINC36647985
REMARK  11 active torsions:
REMARK  status: ('A' for Active; 'I' for Inactive)
REMARK    1  A    between atoms: C_1  and  C_2
REMARK    2  A    between atoms: C_5  and  C_35
REMARK    3  A    between atoms: N_11  and  C_12
REMARK    4  A    between atoms: C_12  and  C_13
REMARK    5  A    between atoms: C_13  and  C_14
REMARK    6  A    between atoms: C_14  and  N_15
REMARK    7  A    between atoms: N_15  and  C_16
REMARK    8  A    between atoms: N_15  and  C_17
REMARK    9  A    between atoms: C_18  and  C_20
REMARK   10  A    between atoms: N_25  and  S_27
REMARK   11  A    between atoms: S_27  and  C_30
REMARK                            x       y       z     vdW  Elec       q    Type
REMARK                         _______ _______ _______ _____ _____    ______ ____
ROOT
ATOM      1  C   UNL     1      -0.719   1.512   0.115  0.00  0.00    +0.046 C 
ATOM      2  C   UNL     1      -0.446   0.031   0.060  0.00  0.00    -0.024 A 
ATOM      3  C   UNL     1      -0.470  -0.619  -1.147  0.00  0.00    +0.006 A 
ATOM      4  C   UNL     1      -0.224  -1.980  -1.242  0.00  0.00    +0.005 A 
ATOM      5  C   UNL     1       0.052  -2.701  -0.094  0.00  0.00    -0.035 A 
ATOM      6  C   UNL     1       0.078  -2.059   1.119  0.00  0.00    +0.044 A 
ATOM      7  C   UNL     1      -0.162  -0.672   1.254  0.00  0.00    +0.083 A 
ATOM      8  N   UNL     1      -0.096  -0.187   2.512  0.00  0.00    -0.224 NA
ATOM      9  C   UNL     1       0.178  -0.945   3.547  0.00  0.00    +0.168 A 
ATOM     10  S   UNL     1       0.376  -2.556   2.798  0.00  0.00    -0.052 S 
ATOM     11  N   UNL     1       0.279  -0.590   4.883  0.00  0.00    -0.250 N 
ATOM     12  C   UNL     1       0.184   0.705   5.244  0.00  0.00    +0.226 C 
ATOM     13  O   UNL     1       0.192   1.009   6.418  0.00  0.00    -0.275 OA
ATOM     14  C   UNL     1       0.322  -4.181  -0.174  0.00  0.00    +0.045 C 
ENDROOT
BRANCH  12  15
ATOM     15  C   UNL     1       0.069   1.775   4.190  0.00  0.00    +0.091 C 
ATOM     16  C   UNL     1       1.355   1.817   3.361  0.00  0.00    +0.015 C 
ATOM     17  C   UNL     1       1.225   2.881   2.269  0.00  0.00    +0.018 C 
ATOM     18  C   UNL     1       1.025   4.253   2.920  0.00  0.00    +0.109 C 
ATOM     19  N   UNL     1      -0.126   4.181   3.831  0.00  0.00    -0.175 NA
ATOM     20  C   UNL     1      -0.146   3.135   4.862  0.00  0.00    +0.122 C 
BRANCH  19  21
ATOM     21  S   UNL     1      -1.376   5.259   3.698  0.00  0.00    +0.067 S 
ATOM     22  O   UNL     1      -2.003   5.312   4.972  0.00  0.00    -0.152 OA
ATOM     23  O   UNL     1      -0.851   6.414   3.059  0.00  0.00    -0.152 OA
BRANCH  21  24
ATOM     24  C   UNL     1      -2.551   4.559   2.587  0.00  0.00    +0.143 A 
ATOM     25  C   UNL     1      -3.611   3.758   2.858  0.00  0.00    +0.036 A 
ATOM     26  C   UNL     1      -4.407   3.324   1.815  0.00  0.00    +0.010 A 
ATOM     27  C   UNL     1      -4.104   3.711   0.552  0.00  0.00    +0.047 A 
ATOM     28  S   UNL     1      -2.659   4.726   0.813  0.00  0.00    -0.077 S 
ENDBRANCH  21  24
ENDBRANCH  19  21
ENDBRANCH  12  15
BRANCH  11  29
ATOM     29  C   UNL     1       0.489  -1.621   5.902  0.00  0.00    +0.114 C 
BRANCH  29  30
ATOM     30  C   UNL     1       1.983  -1.932   6.012  0.00  0.00    +0.001 C 
BRANCH  30  31
ATOM     31  C   UNL     1       2.202  -3.010   7.076  0.00  0.00    -0.078 C 
BRANCH  31  32
ATOM     32  N   UNL     1       3.637  -3.308   7.183  0.00  0.00    +0.376 N 
ATOM     33  C   UNL     1       4.348  -2.122   7.678  0.00  0.00    -0.097 C 
ATOM     34  C   UNL     1       3.837  -4.424   8.116  0.00  0.00    -0.097 C 
ATOM     35  H   UNL     1       3.996  -3.561   6.274  0.00  0.00    -0.083 HD
ENDBRANCH  31  32
ENDBRANCH  30  31
ENDBRANCH  29  30
ENDBRANCH  11  29
TORSDOF 7
