REMARK  Name = ZINC12879266
REMARK  8 active torsions:
REMARK  status: ('A' for Active; 'I' for Inactive)
REMARK    1  A    between atoms: C_1  and  C_2
REMARK    2  A    between atoms: C_2  and  C_3
REMARK    3  A    between atoms: C_3  and  N_4
REMARK    4  A    between atoms: C_5  and  C_7
REMARK    5  A    between atoms: C_7  and  C_9
REMARK    6  A    between atoms: C_7  and  N_10
REMARK    7  A    between atoms: C_11  and  C_13
REMARK    8  A    between atoms: C_27  and  C_28
REMARK                            x       y       z     vdW  Elec       q    Type
REMARK                         _______ _______ _______ _____ _____    ______ ____
ROOT
ATOM      1  C   UNL     1      -0.647   0.718   2.361  0.00  0.00    +0.051 A 
ATOM      2  C   UNL     1      -1.119   1.332   3.602  0.00  0.00    +0.013 A 
ATOM      3  C   UNL     1      -0.910   0.725   4.845  0.00  0.00    +0.011 A 
ATOM      4  C   UNL     1      -1.365   1.333   5.977  0.00  0.00    +0.001 A 
ATOM      5  C   UNL     1      -2.037   2.552   5.912  0.00  0.00    +0.002 A 
ATOM      6  C   UNL     1      -2.258   3.170   4.720  0.00  0.00    +0.028 A 
ATOM      7  C   UNL     1      -1.803   2.572   3.529  0.00  0.00    +0.072 A 
ATOM      8  N   UNL     1      -2.004   3.150   2.348  0.00  0.00    -0.247 NA
ATOM      9  C   UNL     1      -1.590   2.615   1.212  0.00  0.00    +0.072 A 
ATOM     10  C   UNL     1      -0.899   1.391   1.173  0.00  0.00    -0.009 A 
ATOM     11  C   UNL     1      -0.419   0.788  -0.117  0.00  0.00    +0.038 C 
ATOM     12  C   UNL     1      -1.215   1.320  -1.306  0.00  0.00    +0.009 C 
ATOM     13  C   UNL     1      -1.164   2.854  -1.304  0.00  0.00    +0.037 C 
ATOM     14  C   UNL     1      -1.870   3.330  -0.053  0.00  0.00    -0.021 C 
ATOM     15  C   UNL     1      -2.723   4.370  -0.089  0.00  0.00    +0.013 C 
ENDROOT
BRANCH  15  16
ATOM     16  C   UNL     1      -2.855   5.171  -1.317  0.00  0.00    -0.021 A 
ATOM     17  C   UNL     1      -1.747   5.372  -2.146  0.00  0.00    +0.012 A 
ATOM     18  C   UNL     1      -1.875   6.117  -3.298  0.00  0.00    +0.050 A 
ATOM     19  C   UNL     1      -3.098   6.681  -3.634  0.00  0.00    +0.166 A 
ATOM     20  C   UNL     1      -4.207   6.489  -2.809  0.00  0.00    +0.167 A 
ATOM     21  C   UNL     1      -4.088   5.738  -1.655  0.00  0.00    +0.057 A 
ATOM     22  O   UNL     1      -5.275   7.139  -3.357  0.00  0.00    -0.453 OA
ATOM     23  C   UNL     1      -4.715   8.067  -4.305  0.00  0.00    +0.466 C 
ATOM     24  O   UNL     1      -3.475   7.450  -4.697  0.00  0.00    -0.453 OA
ENDBRANCH  15  16
BRANCH   1  26
ATOM     25  N   UNL     1      -0.613  -1.729   2.270  0.00  0.00    -0.300 N 
ATOM     26  C   UNL     1       0.073  -0.574   2.372  0.00  0.00    +0.246 C 
ATOM     27  O   UNL     1       1.285  -0.593   2.472  0.00  0.00    -0.270 OA
ATOM     28  H   UNL     1      -1.580  -1.713   2.190  0.00  0.00    +0.150 HD
BRANCH  25  29
ATOM     29  C   UNL     1       0.101  -3.008   2.280  0.00  0.00    +0.156 C 
ATOM     30  C   UNL     1       0.339  -3.448   3.727  0.00  0.00    +0.038 C 
BRANCH  29  32
ATOM     31  N   UNL     1      -0.265  -5.311   1.454  0.00  0.00    -0.314 N 
ATOM     32  C   UNL     1      -0.725  -4.049   1.569  0.00  0.00    +0.233 C 
ATOM     33  O   UNL     1      -1.802  -3.752   1.099  0.00  0.00    -0.274 OA
ATOM     34  H   UNL     1       0.598  -5.549   1.830  0.00  0.00    +0.149 HD
BRANCH  31  35
ATOM     35  C   UNL     1      -1.067  -6.323   0.762  0.00  0.00    +0.104 C 
BRANCH  35  37
ATOM     36  C   UNL     1      -1.159  -8.716   0.051  0.00  0.00    +0.005 C 
ATOM     37  C   UNL     1      -0.321  -7.659   0.773  0.00  0.00    +0.015 C 
ENDBRANCH  35  37
ENDBRANCH  31  35
ENDBRANCH  29  32
ENDBRANCH  25  29
ENDBRANCH   1  26
TORSDOF 6
