REMARK  Name = ZINC40436785
REMARK  4 active torsions:
REMARK  status: ('A' for Active; 'I' for Inactive)
REMARK    1  A    between atoms: C_1  and  C_2
REMARK    2  A    between atoms: C_4  and  S_9
REMARK    3  A    between atoms: S_9  and  N_12
REMARK    4  A    between atoms: N_12  and  C_13
REMARK                            x       y       z     vdW  Elec       q    Type
REMARK                         _______ _______ _______ _____ _____    ______ ____
ROOT
ATOM      1  S   UNL     1       0.029  -2.943  -2.738  0.00  0.00    +0.059 S 
ATOM      2  O   UNL     1      -0.502  -4.234  -2.471  0.00  0.00    -0.153 OA
ATOM      3  O   UNL     1      -0.539  -2.070  -3.704  0.00  0.00    -0.153 OA
ENDROOT
BRANCH   1   7
ATOM      4  C   UNL     1      -0.018   1.503   0.010  0.00  0.00    +0.045 C 
ATOM      5  C   UNL     1       0.002  -0.004   0.002  0.00  0.00    -0.035 A 
ATOM      6  C   UNL     1       0.006  -0.689  -1.199  0.00  0.00    +0.033 A 
ATOM      7  C   UNL     1       0.025  -2.071  -1.207  0.00  0.00    +0.106 A 
ATOM      8  C   UNL     1       0.041  -2.769  -0.013  0.00  0.00    +0.029 A 
ATOM      9  C   UNL     1       0.037  -2.085   1.188  0.00  0.00    +0.017 A 
ATOM     10  C   UNL     1       0.023  -0.702   1.196  0.00  0.00    +0.021 A 
ATOM     11 BR   UNL     1       0.025   0.234   2.839  0.00  0.00    -0.050 Br
ENDBRANCH   1   7
BRANCH   1  12
ATOM     12  N   UNL     1       1.612  -3.163  -3.171  0.00  0.00    -0.188 NA
ATOM     13  H   UNL     1       1.960  -2.736  -3.969  0.00  0.00    +0.148 HD
BRANCH  12  14
ATOM     14  C   UNL     1       2.486  -4.004  -2.350  0.00  0.00    +0.061 C 
ATOM     15  C   UNL     1       2.611  -5.426  -2.958  0.00  0.00    +0.000 C 
ATOM     16  C   UNL     1       3.985  -5.882  -2.408  0.00  0.00    -0.077 C 
ATOM     17  N   UNL     1       4.826  -4.665  -2.419  0.00  0.00    +0.383 N 
ATOM     18  C   UNL     1       3.936  -3.481  -2.385  0.00  0.00    -0.050 C 
ATOM     19  C   UNL     1       4.233  -2.718  -1.078  0.00  0.00    -0.016 C 
ATOM     20  C   UNL     1       5.676  -3.171  -0.732  0.00  0.00    -0.020 C 
ATOM     21  C   UNL     1       5.660  -4.653  -1.198  0.00  0.00    -0.078 C 
ATOM     22  H   UNL     1       5.409  -4.649  -3.242  0.00  0.00    -0.081 HD
ENDBRANCH  12  14
ENDBRANCH   1  12
TORSDOF 3
