REMARK  Name = ZINC20430269
REMARK  6 active torsions:
REMARK  status: ('A' for Active; 'I' for Inactive)
REMARK    1  A    between atoms: C_1  and  C_2
REMARK    2  A    between atoms: C_5  and  C_11
REMARK    3  A    between atoms: C_7  and  N_8
REMARK    4  A    between atoms: C_11  and  C_13
REMARK    5  A    between atoms: C_11  and  N_14
REMARK    6  A    between atoms: N_14  and  C_15
REMARK                            x       y       z     vdW  Elec       q    Type
REMARK                         _______ _______ _______ _____ _____    ______ ____
ROOT
ATOM      1  C   UNL     1      -3.732   2.592   0.028  0.00  0.00    +0.098 C 
ATOM      2  C   UNL     1      -3.940   2.689   1.541  0.00  0.00    +0.033 C 
ENDROOT
BRANCH   1   7
ATOM      3  C   UNL     1      -7.808  -0.804  -2.261  0.00  0.00    +0.046 C 
ATOM      4  C   UNL     1      -6.745   0.081  -1.665  0.00  0.00    -0.020 A 
ATOM      5  C   UNL     1      -5.644  -0.481  -1.046  0.00  0.00    +0.006 A 
ATOM      6  C   UNL     1      -4.669   0.331  -0.498  0.00  0.00    +0.006 A 
ATOM      7  C   UNL     1      -4.795   1.706  -0.569  0.00  0.00    -0.025 A 
ATOM      8  C   UNL     1      -5.898   2.268  -1.183  0.00  0.00    +0.038 A 
ATOM      9  C   UNL     1      -6.871   1.456  -1.735  0.00  0.00    +0.129 A 
BRANCH   9  10
ATOM     10  N   UNL     1      -8.050   2.058  -2.397  0.00  0.00    +0.057 N 
ATOM     11  O   UNL     1      -8.108   3.264  -2.559  0.00  0.00    -0.126 OA
ATOM     12  O   UNL     1      -8.962   1.348  -2.780  0.00  0.00    -0.126 OA
ENDBRANCH   9  10
ENDBRANCH   1   7
BRANCH   1  13
ATOM     13  N   UNL     1      -2.410   2.022  -0.247  0.00  0.00    -0.336 N 
ATOM     14  H   UNL     1      -2.303   0.943  -0.428  0.00  0.00    +0.147 HD
BRANCH  13  15
ATOM     15  C   UNL     1      -1.285   2.852  -0.281  0.00  0.00    +0.042 A 
ATOM     16  C   UNL     1      -1.418   4.215  -0.048  0.00  0.00    +0.027 A 
ATOM     17  C   UNL     1      -0.306   5.033  -0.088  0.00  0.00    +0.040 A 
ATOM     18  C   UNL     1       0.942   4.495  -0.354  0.00  0.00    +0.125 A 
ATOM     19  C   UNL     1       1.079   3.136  -0.581  0.00  0.00    +0.055 A 
ATOM     20  C   UNL     1      -0.031   2.313  -0.542  0.00  0.00    +0.041 A 
ATOM     21 BR   UNL     1       0.156   0.458  -0.853  0.00  0.00    -0.048 Br
ATOM     22  F   UNL     1       2.028   5.298  -0.392  0.00  0.00    -0.205 F 
ENDBRANCH  13  15
ENDBRANCH   1  13
TORSDOF 4
