REMARK  Name = ZINC58931678
REMARK  8 active torsions:
REMARK  status: ('A' for Active; 'I' for Inactive)
REMARK    1  A    between atoms: C_1  and  C_2
REMARK    2  A    between atoms: C_6  and  N_22
REMARK    3  A    between atoms: C_7  and  S_8
REMARK    4  A    between atoms: S_8  and  N_11
REMARK    5  A    between atoms: N_11  and  C_12
REMARK    6  A    between atoms: C_12  and  C_13
REMARK    7  A    between atoms: C_12  and  C_14
REMARK    8  A    between atoms: C_12  and  C_15
REMARK                            x       y       z     vdW  Elec       q    Type
REMARK                         _______ _______ _______ _____ _____    ______ ____
ROOT
ATOM      1  S   UNL     1       1.432   2.144   1.204  0.00  0.00    +0.062 S 
ATOM      2  O   UNL     1       2.546   1.302   1.466  0.00  0.00    -0.153 OA
ATOM      3  O   UNL     1       1.563   3.548   1.027  0.00  0.00    -0.153 OA
ENDROOT
BRANCH   1  10
ATOM      4  C   UNL     1       2.299  -0.372  -0.234  0.00  0.00    +0.046 C 
ATOM      5  C   UNL     1       1.131   0.362  -0.841  0.00  0.00    -0.022 A 
ATOM      6  C   UNL     1       0.524  -0.129  -1.983  0.00  0.00    +0.005 A 
ATOM      7  C   UNL     1      -0.546   0.544  -2.540  0.00  0.00    +0.003 A 
ATOM      8  C   UNL     1      -1.011   1.708  -1.956  0.00  0.00    +0.035 A 
ATOM      9  C   UNL     1      -0.405   2.198  -0.815  0.00  0.00    +0.153 A 
ATOM     10  C   UNL     1       0.663   1.522  -0.255  0.00  0.00    +0.138 A 
BRANCH   9  11
ATOM     11  N   UNL     1      -0.902   3.444  -0.190  0.00  0.00    +0.058 N 
ATOM     12  O   UNL     1      -1.256   4.369  -0.884  0.00  0.00    -0.126 OA
ATOM     13  O   UNL     1      -0.955   3.537   1.014  0.00  0.00    -0.126 OA
ENDBRANCH   9  11
ENDBRANCH   1  10
BRANCH   1  14
ATOM     14  N   UNL     1       0.366   1.921   2.452  0.00  0.00    -0.180 NA
ATOM     15  H   UNL     1       0.016   2.687   2.933  0.00  0.00    +0.149 HD
BRANCH  14  16
ATOM     16  C   UNL     1      -0.049   0.568   2.828  0.00  0.00    +0.059 C 
ATOM     17  C   UNL     1      -0.748  -0.100   1.642  0.00  0.00    +0.034 C 
ATOM     18  C   UNL     1       1.181  -0.252   3.222  0.00  0.00    +0.034 C 
BRANCH  16  19
ATOM     19  C   UNL     1      -0.999   0.640   3.996  0.00  0.00    -0.026 A 
ATOM     20  C   UNL     1      -1.748   1.782   4.207  0.00  0.00    +0.006 A 
ATOM     21  C   UNL     1      -2.620   1.849   5.278  0.00  0.00    +0.015 A 
ATOM     22  C   UNL     1      -2.743   0.772   6.137  0.00  0.00    +0.018 A 
ATOM     23  C   UNL     1      -1.993  -0.371   5.925  0.00  0.00    +0.015 A 
ATOM     24  C   UNL     1      -1.126  -0.439   4.851  0.00  0.00    +0.006 A 
ATOM     25 BR   UNL     1      -3.935   0.862   7.602  0.00  0.00    -0.050 Br
ENDBRANCH  16  19
ENDBRANCH  14  16
ENDBRANCH   1  14
TORSDOF 5
