REMARK  Name = ZINC59875969
REMARK  7 active torsions:
REMARK  status: ('A' for Active; 'I' for Inactive)
REMARK    1  A    between atoms: C_1  and  C_2
REMARK    2  A    between atoms: C_2  and  C_3
REMARK    3  A    between atoms: C_2  and  C_4
REMARK    4  A    between atoms: C_4  and  C_6
REMARK    5  A    between atoms: C_4  and  N_20
REMARK    6  A    between atoms: N_20  and  C_21
REMARK    7  A    between atoms: C_24  and  C_28
REMARK                            x       y       z     vdW  Elec       q    Type
REMARK                         _______ _______ _______ _____ _____    ______ ____
ROOT
ATOM      1  C   UNL     1      -1.526  -0.384  -0.055  0.00  0.00    +0.159 C 
ENDROOT
BRANCH   1   2
ATOM      2  C   UNL     1      -2.228   0.335   1.068  0.00  0.00    +0.236 C 
ATOM      3  O   UNL     1      -2.902   1.316   0.833  0.00  0.00    -0.274 OA
ATOM      4  N   UNL     1      -2.107  -0.112   2.334  0.00  0.00    -0.300 N 
ATOM      5  C   UNL     1      -1.365  -1.347   2.623  0.00  0.00    +0.110 C 
ATOM      6  C   UNL     1      -2.270  -2.289   3.424  0.00  0.00    +0.054 C 
ATOM      7  C   UNL     1      -2.802  -1.557   4.652  0.00  0.00    +0.115 C 
ATOM      8  C   UNL     1      -3.610  -0.330   4.244  0.00  0.00    +0.054 C 
ATOM      9  C   UNL     1      -2.710   0.630   3.449  0.00  0.00    +0.110 C 
ATOM     10  C   UNL     1      -3.644  -2.486   5.496  0.00  0.00    +0.244 C 
ATOM     11  O   UNL     1      -4.666  -3.050   5.170  0.00  0.00    -0.273 OA
ATOM     12  N   UNL     1      -3.017  -2.557   6.689  0.00  0.00    -0.238 N 
ATOM     13  C   UNL     1      -1.908  -1.806   6.708  0.00  0.00    +0.307 C 
ATOM     14  O   UNL     1      -1.175  -1.709   7.672  0.00  0.00    -0.252 OA
ATOM     15  N   UNL     1      -1.696  -1.172   5.539  0.00  0.00    -0.285 N 
ATOM     16  H   UNL     1      -3.331  -3.085   7.439  0.00  0.00    +0.159 HD
ATOM     17  H   UNL     1      -0.960  -0.579   5.325  0.00  0.00    +0.151 HD
ENDBRANCH   1   2
BRANCH   1  19
ATOM     18  C   UNL     1      -0.116   1.658  -0.344  0.00  0.00    +0.009 C 
ATOM     19  C   UNL     1      -0.093   0.138  -0.178  0.00  0.00    +0.012 C 
ATOM     20  C   UNL     1       0.691  -0.226   1.085  0.00  0.00    +0.009 C 
ENDBRANCH   1  19
BRANCH   1  21
ATOM     21  N   UNL     1      -2.242  -0.144  -1.311  0.00  0.00    -0.332 N 
ATOM     22  H   UNL     1      -2.786   0.652  -1.415  0.00  0.00    +0.147 HD
BRANCH  21  23
ATOM     23  C   UNL     1      -2.139  -1.062  -2.360  0.00  0.00    +0.046 A 
ATOM     24  C   UNL     1      -1.365  -2.205  -2.211  0.00  0.00    +0.025 A 
ATOM     25  C   UNL     1      -1.266  -3.111  -3.249  0.00  0.00    +0.014 A 
ATOM     26  C   UNL     1      -1.938  -2.881  -4.436  0.00  0.00    +0.056 A 
ATOM     27  C   UNL     1      -2.710  -1.745  -4.588  0.00  0.00    +0.034 A 
ATOM     28  C   UNL     1      -2.818  -0.837  -3.552  0.00  0.00    +0.062 A 
ATOM     29 CL   UNL     1      -3.793   0.587  -3.741  0.00  0.00    -0.082 Cl
BRANCH  26  30
ATOM     30  C   UNL     1      -1.827  -3.872  -5.566  0.00  0.00    +0.417 C 
ATOM     31  F   UNL     1      -2.841  -4.829  -5.449  0.00  0.00    -0.166 F 
ATOM     32  F   UNL     1      -1.956  -3.202  -6.788  0.00  0.00    -0.166 F 
ATOM     33  F   UNL     1      -0.580  -4.504  -5.512  0.00  0.00    -0.166 F 
ENDBRANCH  26  30
ENDBRANCH  21  23
ENDBRANCH   1  21
TORSDOF 5
