REMARK  Name = ZINC16572221
REMARK  6 active torsions:
REMARK  status: ('A' for Active; 'I' for Inactive)
REMARK    1  A    between atoms: C_4  and  C_7
REMARK    2  A    between atoms: C_7  and  C_8
REMARK    3  A    between atoms: C_8  and  C_10
REMARK    4  A    between atoms: C_8  and  N_24
REMARK    5  A    between atoms: C_16  and  C_18
REMARK    6  A    between atoms: N_27  and  C_28
REMARK                            x       y       z     vdW  Elec       q    Type
REMARK                         _______ _______ _______ _____ _____    ______ ____
ROOT
ATOM      1  C   UNL     1       0.023  -0.522   1.442  0.00  0.00    +0.165 C 
ENDROOT
BRANCH   1   2
ATOM      2  C   UNL     1       0.167  -2.022   1.434  0.00  0.00    +0.239 C 
ATOM      3  O   UNL     1      -0.691  -2.716   1.938  0.00  0.00    -0.273 OA
ATOM      4  N   UNL     1       1.249  -2.592   0.867  0.00  0.00    -0.262 N 
ATOM      5  C   UNL     1       1.382  -3.975   0.860  0.00  0.00    +0.188 A 
ATOM      6  N   UNL     1       0.575  -4.901   1.354  0.00  0.00    -0.125 NA
ATOM      7  N   UNL     1       0.838  -6.133   1.263  0.00  0.00    -0.140 NA
ATOM      8  C   UNL     1       1.953  -6.539   0.670  0.00  0.00    +0.134 A 
ATOM      9  S   UNL     1       2.657  -4.961   0.207  0.00  0.00    -0.030 S 
ATOM     10  H   UNL     1       1.935  -2.037   0.465  0.00  0.00    +0.157 HD
BRANCH   8  11
ATOM     11  C   UNL     1       2.468  -7.908   0.453  0.00  0.00    +0.009 A 
ATOM     12  C   UNL     1       3.680  -8.104  -0.210  0.00  0.00    +0.010 A 
ATOM     13  C   UNL     1       4.158  -9.383  -0.404  0.00  0.00    +0.001 A 
ATOM     14  C   UNL     1       3.432 -10.472   0.047  0.00  0.00    +0.000 A 
ATOM     15  C   UNL     1       2.227 -10.284   0.700  0.00  0.00    +0.001 A 
ATOM     16  C   UNL     1       1.741  -9.010   0.905  0.00  0.00    +0.010 A 
ENDBRANCH   8  11
ENDBRANCH   1   2
BRANCH   1  17
ATOM     17  N   UNL     1      -1.228  -0.155   2.111  0.00  0.00    -0.288 N 
ATOM     18  C   UNL     1      -1.354   1.058   2.685  0.00  0.00    +0.301 C 
ATOM     19  O   UNL     1      -0.430   1.847   2.648  0.00  0.00    -0.253 OA
ATOM     20  N   UNL     1      -2.505   1.395   3.301  0.00  0.00    -0.294 N 
ATOM     21  H   UNL     1      -1.965  -0.784   2.140  0.00  0.00    +0.151 HD
ATOM     22  H   UNL     1      -3.242   0.766   3.330  0.00  0.00    +0.151 HD
BRANCH  20  23
ATOM     23  C   UNL     1      -2.642   2.713   3.925  0.00  0.00    +0.037 C 
ATOM     24  C   UNL     1      -1.579   2.875   5.014  0.00  0.00    +0.029 C 
ATOM     25  C   UNL     1      -1.722   4.251   5.666  0.00  0.00    -0.008 C 
ATOM     26  C   UNL     1      -3.114   4.378   6.289  0.00  0.00    +0.007 C 
ATOM     27  C   UNL     1      -4.177   4.217   5.200  0.00  0.00    -0.008 C 
ATOM     28  C   UNL     1      -4.034   2.840   4.548  0.00  0.00    +0.029 C 
ATOM     29  C   UNL     1      -3.991   5.305   4.141  0.00  0.00    +0.007 C 
ATOM     30  C   UNL     1      -2.599   5.178   3.518  0.00  0.00    -0.008 C 
ATOM     31  C   UNL     1      -1.537   5.340   4.607  0.00  0.00    +0.007 C 
ATOM     32  C   UNL     1      -2.456   3.802   2.866  0.00  0.00    +0.029 C 
ENDBRANCH  20  23
ENDBRANCH   1  17
BRANCH   1  33
ATOM     33  C   UNL     1       0.002  -0.004   0.002  0.00  0.00    +0.067 C 
BRANCH  33  37
ATOM     34  C   UNL     1      -0.056   4.267   0.025  0.00  0.00    +0.000 A 
ATOM     35  C   UNL     1       1.151   3.592   0.010  0.00  0.00    +0.000 A 
ATOM     36  C   UNL     1       1.169   2.210   0.003  0.00  0.00    +0.004 A 
ATOM     37  C   UNL     1      -0.018   1.503   0.010  0.00  0.00    -0.045 A 
ATOM     38  C   UNL     1      -1.225   2.178   0.020  0.00  0.00    +0.004 A 
ATOM     39  C   UNL     1      -1.244   3.560   0.032  0.00  0.00    +0.000 A 
ENDBRANCH  33  37
ENDBRANCH   1  33
TORSDOF 6
