REMARK  Name = ZINC15107905
REMARK  6 active torsions:
REMARK  status: ('A' for Active; 'I' for Inactive)
REMARK    1  A    between atoms: C_1  and  C_2
REMARK    2  A    between atoms: C_4  and  C_25
REMARK    3  A    between atoms: C_6  and  N_24
REMARK    4  A    between atoms: C_7  and  C_11
REMARK    5  A    between atoms: C_25  and  O_26
REMARK    6  A    between atoms: O_26  and  C_27
REMARK                            x       y       z     vdW  Elec       q    Type
REMARK                         _______ _______ _______ _____ _____    ______ ____
ROOT
ATOM      1  C   UNL     1       1.037   3.519   0.011  0.00  0.00    +0.065 C 
ATOM      2  C   UNL     1       1.100   2.014   0.002  0.00  0.00    +0.040 A 
ATOM      3  C   UNL     1       2.332   1.376  -0.013  0.00  0.00    +0.029 A 
ATOM      4  C   UNL     1       2.405   0.003  -0.021  0.00  0.00    -0.009 A 
ATOM      5  C   UNL     1       1.204  -0.748  -0.013  0.00  0.00    +0.034 A 
ATOM      6  C   UNL     1       1.032  -2.193  -0.019  0.00  0.00    +0.052 A 
ATOM      7  C   UNL     1      -0.231  -2.702  -0.009  0.00  0.00    +0.080 A 
ATOM      8  S   UNL     1      -1.264  -1.250   0.008  0.00  0.00    -0.064 S 
ATOM      9  C   UNL     1       0.002  -0.004   0.002  0.00  0.00    +0.111 A 
ATOM     10  N   UNL     1      -0.016   1.311   0.009  0.00  0.00    -0.245 NA
ENDROOT
BRANCH   7  11
ATOM     11  C   UNL     1      -0.645  -4.113  -0.013  0.00  0.00    +0.175 A 
ATOM     12  N   UNL     1       0.276  -5.079  -0.027  0.00  0.00    -0.194 NA
ATOM     13  C   UNL     1      -0.100  -6.353  -0.030  0.00  0.00    +0.217 A 
ATOM     14  N   UNL     1      -1.393  -6.666  -0.018  0.00  0.00    -0.181 NA
ATOM     15  C   UNL     1      -2.312  -5.705  -0.004  0.00  0.00    +0.223 A 
ATOM     16  N   UNL     1      -1.941  -4.430   0.004  0.00  0.00    -0.194 NA
ATOM     17  N   UNL     1      -3.653  -6.033   0.007  0.00  0.00    -0.300 N 
ATOM     18  C   UNL     1      -4.336  -5.416   1.151  0.00  0.00    +0.108 C 
ATOM     19  C   UNL     1      -5.840  -5.680   1.052  0.00  0.00    +0.019 C 
ATOM     20  C   UNL     1      -6.089  -7.191   1.039  0.00  0.00    +0.003 C 
ATOM     21  C   UNL     1      -5.327  -7.816  -0.133  0.00  0.00    +0.019 C 
ATOM     22  C   UNL     1      -3.838  -7.490   0.001  0.00  0.00    +0.108 C 
ATOM     23  N   UNL     1       0.851  -7.353  -0.045  0.00  0.00    -0.327 N 
ATOM     24  H   UNL     1       1.794  -7.125  -0.054  0.00  0.00    +0.145 HD
ATOM     25  H   UNL     1       0.577  -8.284  -0.047  0.00  0.00    +0.145 HD
ENDBRANCH   7  11
BRANCH   6  26
ATOM     26  N   UNL     1       2.139  -3.040  -0.035  0.00  0.00    -0.356 N 
ATOM     27  H   UNL     1       2.014  -4.002  -0.038  0.00  0.00    +0.142 HD
ATOM     28  H   UNL     1       3.035  -2.668  -0.042  0.00  0.00    +0.142 HD
ENDBRANCH   6  26
BRANCH   4  29
ATOM     29  C   UNL     1       3.742  -0.692  -0.037  0.00  0.00    +0.195 C 
BRANCH  29  30
ATOM     30  O   UNL     1       4.786   0.283  -0.042  0.00  0.00    -0.378 OA
ATOM     31  C   UNL     1       6.102  -0.273  -0.057  0.00  0.00    +0.194 C 
ENDBRANCH  29  30
ENDBRANCH   4  29
TORSDOF 4
