REMARK  Name = ZINC67387222
REMARK  9 active torsions:
REMARK  status: ('A' for Active; 'I' for Inactive)
REMARK    1  A    between atoms: C_1  and  C_2
REMARK    2  A    between atoms: C_2  and  C_4
REMARK    3  A    between atoms: C_2  and  N_13
REMARK    4  A    between atoms: C_4  and  C_5
REMARK    5  A    between atoms: C_5  and  C_6
REMARK    6  A    between atoms: C_9  and  O_12
REMARK    7  A    between atoms: N_16  and  N_17
REMARK    8  A    between atoms: C_18  and  C_20
REMARK    9  A    between atoms: C_20  and  C_21
REMARK                            x       y       z     vdW  Elec       q    Type
REMARK                         _______ _______ _______ _____ _____    ______ ____
ROOT
ATOM      1  N   UNL     1      -1.372  -0.511   0.012  0.00  0.00    -0.296 N 
ATOM      2  C   UNL     1      -2.029  -0.655   1.181  0.00  0.00    +0.316 C 
ATOM      3  O   UNL     1      -1.480  -0.364   2.226  0.00  0.00    -0.251 OA
ATOM      4  N   UNL     1      -3.293  -1.122   1.190  0.00  0.00    -0.218 N 
ATOM      5  H   UNL     1      -1.810  -0.743  -0.822  0.00  0.00    +0.151 HD
ATOM      6  H   UNL     1      -3.765  -1.225   2.031  0.00  0.00    +0.174 HD
ENDROOT
BRANCH   4   7
ATOM      7  N   UNL     1      -3.925  -1.457  -0.014  0.00  0.00    -0.233 N 
ATOM      8  C   UNL     1      -5.190  -1.923  -0.005  0.00  0.00    +0.229 C 
ATOM      9  O   UNL     1      -5.780  -2.053   1.047  0.00  0.00    -0.274 OA
ATOM     10  H   UNL     1      -3.453  -1.353  -0.855  0.00  0.00    +0.173 HD
BRANCH   8  11
ATOM     11  C   UNL     1      -5.870  -2.284  -1.300  0.00  0.00    +0.101 C 
BRANCH  11  12
ATOM     12  C   UNL     1      -7.287  -2.783  -1.011  0.00  0.00    -0.002 C 
ATOM     13  C   UNL     1      -7.215  -4.088  -0.215  0.00  0.00    +0.004 C 
ATOM     14  C   UNL     1      -8.632  -4.587   0.075  0.00  0.00    +0.000 C 
ATOM     15  C   UNL     1      -9.365  -4.835  -1.245  0.00  0.00    +0.000 C 
ATOM     16  C   UNL     1      -9.437  -3.530  -2.042  0.00  0.00    +0.000 C 
ATOM     17  C   UNL     1      -8.020  -3.031  -2.331  0.00  0.00    +0.004 C 
ENDBRANCH  11  12
ENDBRANCH   8  11
ENDBRANCH   4   7
BRANCH   1  19
ATOM     18  C   UNL     1      -0.019   1.526   0.010  0.00  0.00    +0.028 C 
ATOM     19  C   UNL     1       0.002  -0.004   0.002  0.00  0.00    +0.072 C 
BRANCH  19  20
ATOM     20  C   UNL     1       0.718  -0.497  -1.257  0.00  0.00    +0.026 C 
BRANCH  20  21
ATOM     21  C   UNL     1       0.849  -2.021  -1.205  0.00  0.00    +0.037 C 
BRANCH  21  22
ATOM     22  C   UNL     1       1.555  -2.507  -2.445  0.00  0.00    -0.047 A 
ATOM     23  C   UNL     1       0.823  -2.834  -3.572  0.00  0.00    +0.007 A 
ATOM     24  C   UNL     1       1.467  -3.280  -4.709  0.00  0.00    +0.045 A 
ATOM     25  C   UNL     1       2.849  -3.400  -4.721  0.00  0.00    +0.117 A 
ATOM     26  C   UNL     1       3.581  -3.071  -3.589  0.00  0.00    +0.045 A 
ATOM     27  C   UNL     1       2.933  -2.620  -2.455  0.00  0.00    +0.007 A 
BRANCH  25  28
ATOM     28  O   UNL     1       3.486  -3.839  -5.839  0.00  0.00    -0.507 OA
ATOM     29  H   UNL     1       3.739  -3.133  -6.449  0.00  0.00    +0.292 HD
ENDBRANCH  25  28
ENDBRANCH  21  22
ENDBRANCH  20  21
ENDBRANCH  19  20
ENDBRANCH   1  19
TORSDOF 8
