REMARK  Name = ZINC63234546
REMARK  10 active torsions:
REMARK  status: ('A' for Active; 'I' for Inactive)
REMARK    1  A    between atoms: C_7  and  C_10
REMARK    2  A    between atoms: C_10  and  C_11
REMARK    3  A    between atoms: C_11  and  C_12
REMARK    4  A    between atoms: C_12  and  C_13
REMARK    5  A    between atoms: C_13  and  O_15
REMARK    6  A    between atoms: O_15  and  C_16
REMARK    7  A    between atoms: C_16  and  C_17
REMARK    8  A    between atoms: N_19  and  C_20
REMARK    9  A    between atoms: C_24  and  S_26
REMARK   10  A    between atoms: S_26  and  N_29
REMARK                            x       y       z     vdW  Elec       q    Type
REMARK                         _______ _______ _______ _____ _____    ______ ____
ROOT
ATOM      1  C   UNL     1      -2.646  -7.914  -4.562  0.00  0.00    +0.255 C 
ATOM      2  O   UNL     1      -3.112  -8.386  -3.547  0.00  0.00    -0.272 OA
ATOM      3  N   UNL     1      -2.959  -8.449  -5.759  0.00  0.00    -0.283 N 
ATOM      4  H   UNL     1      -2.641  -8.032  -6.575  0.00  0.00    +0.155 HD
ENDROOT
BRANCH   3   5
ATOM      5  C   UNL     1      -3.742  -9.607  -5.825  0.00  0.00    +0.035 A 
ATOM      6  C   UNL     1      -4.760  -9.811  -4.903  0.00  0.00    +0.023 A 
ATOM      7  C   UNL     1      -5.532 -10.955  -4.970  0.00  0.00    +0.004 A 
ATOM      8  C   UNL     1      -5.290 -11.896  -5.954  0.00  0.00    +0.028 A 
ATOM      9  C   UNL     1      -4.277 -11.696  -6.873  0.00  0.00    +0.107 A 
ATOM     10  C   UNL     1      -3.506 -10.551  -6.815  0.00  0.00    +0.051 A 
BRANCH   9  11
ATOM     11  S   UNL     1      -3.974 -12.899  -8.124  0.00  0.00    +0.061 S 
ATOM     12  O   UNL     1      -2.620 -12.736  -8.525  0.00  0.00    -0.153 OA
ATOM     13  O   UNL     1      -4.480 -14.133  -7.633  0.00  0.00    -0.153 OA
BRANCH  11  14
ATOM     14  N   UNL     1      -4.906 -12.492  -9.431  0.00  0.00    -0.177 NA
ATOM     15  C   UNL     1      -6.245 -13.028  -9.521  0.00  0.00    +0.109 C 
ATOM     16  C   UNL     1      -6.212 -14.387 -10.263  0.00  0.00    +0.017 C 
ATOM     17  C   UNL     1      -5.933 -14.182 -11.693  0.00  0.00    +0.001 C 
ATOM     18  C   UNL     1      -4.571 -13.559 -11.984  0.00  0.00    +0.001 C 
ATOM     19  C   UNL     1      -4.676 -12.057 -11.885  0.00  0.00    +0.017 C 
ATOM     20  C   UNL     1      -4.337 -11.591 -10.453  0.00  0.00    +0.109 C 
ENDBRANCH  11  14
ENDBRANCH   9  11
ENDBRANCH   3   5
BRANCH   1  21
ATOM     21  C   UNL     1      -1.717  -6.730  -4.486  0.00  0.00    +0.328 C 
BRANCH  21  22
ATOM     22  O   UNL     1      -1.542  -6.349  -3.120  0.00  0.00    -0.455 OA
BRANCH  22  23
ATOM     23  C   UNL     1      -0.737  -5.303  -2.877  0.00  0.00    +0.308 C 
ATOM     24  O   UNL     1      -0.200  -4.729  -3.795  0.00  0.00    -0.251 OA
BRANCH  23  25
ATOM     25  C   UNL     1      -0.505  -4.843  -1.461  0.00  0.00    +0.121 C 
BRANCH  25  26
ATOM     26  C   UNL     1       0.444  -3.643  -1.463  0.00  0.00    +0.015 C 
BRANCH  26  27
ATOM     27  C   UNL     1       0.680  -3.177  -0.025  0.00  0.00    +0.034 C 
BRANCH  27  34
ATOM     28  C   UNL     1      -0.052   1.353   0.020  0.00  0.00    +0.001 A 
ATOM     29  C   UNL     1       1.126   2.113   0.010  0.00  0.00    +0.002 A 
ATOM     30  C   UNL     1       2.354   1.554  -0.010  0.00  0.00    +0.026 A 
ATOM     31  C   UNL     1       2.500   0.139  -0.023  0.00  0.00    +0.043 A 
ATOM     32  N   UNL     1       3.562  -0.629  -0.043  0.00  0.00    -0.380 N 
ATOM     33  C   UNL     1       3.126  -2.030  -0.048  0.00  0.00    +0.144 C 
ATOM     34  C   UNL     1       1.615  -1.994  -0.028  0.00  0.00    -0.042 C 
ATOM     35  C   UNL     1       1.271  -0.686  -0.013  0.00  0.00    -0.001 A 
ATOM     36  C   UNL     1      -0.026   0.001   0.009  0.00  0.00    +0.010 A 
ATOM     37  H   UNL     1       4.482  -0.323  -0.053  0.00  0.00    +0.160 HD
ENDBRANCH  27  34
ENDBRANCH  26  27
ENDBRANCH  25  26
ENDBRANCH  23  25
ENDBRANCH  22  23
ENDBRANCH  21  22
ENDBRANCH   1  21
TORSDOF 10
