REMARK  Name = ZINC03616689
REMARK  13 active torsions:
REMARK  status: ('A' for Active; 'I' for Inactive)
REMARK    1  A    between atoms: C_1  and  C_2
REMARK    2  A    between atoms: C_2  and  C_3
REMARK    3  A    between atoms: C_3  and  C_5
REMARK    4  A    between atoms: C_3  and  N_12
REMARK    5  A    between atoms: C_8  and  C_11
REMARK    6  A    between atoms: N_12  and  N_16
REMARK    7  A    between atoms: C_13  and  C_15
REMARK    8  A    between atoms: C_17  and  C_19
REMARK    9  A    between atoms: C_19  and  C_20
REMARK   10  A    between atoms: C_19  and  C_27
REMARK   11  A    between atoms: C_19  and  O_34
REMARK   12  A    between atoms: C_23  and  C_26
REMARK   13  A    between atoms: C_30  and  C_33
REMARK                            x       y       z     vdW  Elec       q    Type
REMARK                         _______ _______ _______ _____ _____    ______ ____
ROOT
ATOM      1  N   UNL     1       1.012  -2.512   3.094  0.00  0.00    -0.228 N 
ATOM      2  C   UNL     1       1.972  -2.457   2.150  0.00  0.00    +0.270 C 
ATOM      3  O   UNL     1       3.118  -2.735   2.432  0.00  0.00    -0.270 OA
ATOM      4  H   UNL     1       0.095  -2.289   2.868  0.00  0.00    +0.173 HD
ENDROOT
BRANCH   1   5
ATOM      5  N   UNL     1       1.338  -2.891   4.403  0.00  0.00    -0.213 N 
ATOM      6  C   UNL     1       2.002  -2.036   5.206  0.00  0.00    +0.229 C 
ATOM      7  O   UNL     1       2.284  -2.364   6.339  0.00  0.00    -0.274 OA
ATOM      8  C   UNL     1       2.393  -0.672   4.697  0.00  0.00    +0.111 C 
BRANCH   5   9
ATOM      9  C   UNL     1       0.958  -4.216   4.898  0.00  0.00    +0.127 C 
BRANCH   9  10
ATOM     10  C   UNL     1       1.687  -5.274   4.111  0.00  0.00    -0.025 A 
ATOM     11  C   UNL     1       1.615  -5.280   2.730  0.00  0.00    +0.006 A 
ATOM     12  C   UNL     1       2.287  -6.248   2.007  0.00  0.00    +0.004 A 
ATOM     13  C   UNL     1       3.022  -7.217   2.666  0.00  0.00    -0.050 A 
ATOM     14  C   UNL     1       3.089  -7.214   4.047  0.00  0.00    +0.004 A 
ATOM     15  C   UNL     1       2.421  -6.243   4.769  0.00  0.00    +0.006 A 
ATOM     16  C   UNL     1       3.750  -8.276   1.878  0.00  0.00    +0.044 C 
ENDBRANCH   9  10
BRANCH   9  18
ATOM     17  C   UNL     1      -1.291  -3.413   5.633  0.00  0.00    +0.006 C 
ATOM     18  C   UNL     1      -0.551  -4.408   4.736  0.00  0.00    +0.026 C 
ENDBRANCH   9  18
ENDBRANCH   5   9
ENDBRANCH   1   5
BRANCH   2  19
ATOM     19  C   UNL     1       1.621  -2.049   0.742  0.00  0.00    +0.194 C 
BRANCH  19  20
ATOM     20  C   UNL     1       1.632  -0.546   0.636  0.00  0.00    -0.003 A 
ATOM     21  C   UNL     1       2.613   0.185   1.281  0.00  0.00    +0.007 A 
ATOM     22  C   UNL     1       2.624   1.564   1.184  0.00  0.00    +0.004 A 
ATOM     23  C   UNL     1       1.655   2.212   0.441  0.00  0.00    -0.050 A 
ATOM     24  C   UNL     1       0.674   1.482  -0.203  0.00  0.00    +0.004 A 
ATOM     25  C   UNL     1       0.663   0.103  -0.106  0.00  0.00    +0.007 A 
ATOM     26  C   UNL     1       1.667   3.715   0.335  0.00  0.00    +0.044 C 
ENDBRANCH  19  20
BRANCH  19  27
ATOM     27  C   UNL     1       2.631  -2.628  -0.215  0.00  0.00    -0.003 A 
ATOM     28  C   UNL     1       3.951  -2.221  -0.157  0.00  0.00    +0.007 A 
ATOM     29  C   UNL     1       4.878  -2.755  -1.032  0.00  0.00    +0.004 A 
ATOM     30  C   UNL     1       4.484  -3.688  -1.972  0.00  0.00    -0.050 A 
ATOM     31  C   UNL     1       3.163  -4.092  -2.033  0.00  0.00    +0.004 A 
ATOM     32  C   UNL     1       2.236  -3.561  -1.155  0.00  0.00    +0.007 A 
ATOM     33  C   UNL     1       5.494  -4.267  -2.929  0.00  0.00    +0.044 C 
ENDBRANCH  19  27
BRANCH  19  34
ATOM     34  O   UNL     1       0.319  -2.539   0.414  0.00  0.00    -0.371 OA
ATOM     35  H   UNL     1       0.238  -3.502   0.462  0.00  0.00    +0.212 HD
ENDBRANCH  19  34
ENDBRANCH   2  19
TORSDOF 8
