REMARK  Name = ZINC28815338
REMARK  10 active torsions:
REMARK  status: ('A' for Active; 'I' for Inactive)
REMARK    1  A    between atoms: C_1  and  N_2
REMARK    2  A    between atoms: C_4  and  S_7
REMARK    3  A    between atoms: S_7  and  N_10
REMARK    4  A    between atoms: N_10  and  C_11
REMARK    5  A    between atoms: N_10  and  C_18
REMARK    6  A    between atoms: C_11  and  C_12
REMARK    7  A    between atoms: C_23  and  C_36
REMARK    8  A    between atoms: N_27  and  C_29
REMARK    9  A    between atoms: C_29  and  C_30
REMARK   10  A    between atoms: N_34  and  C_35
REMARK                            x       y       z     vdW  Elec       q    Type
REMARK                         _______ _______ _______ _____ _____    ______ ____
ROOT
ATOM      1  C   UNL     1      -2.111  -0.135   1.776  0.00  0.00    +0.102 C 
ATOM      2  C   UNL     1      -2.408  -1.543   1.255  0.00  0.00    +0.059 C 
ATOM      3  C   UNL     1      -1.735  -2.563   2.140  0.00  0.00    -0.024 A 
ATOM      4  C   UNL     1      -2.139  -3.880   2.034  0.00  0.00    +0.024 A 
ATOM      5  C   UNL     1      -1.541  -4.867   2.819  0.00  0.00    +0.052 A 
ATOM      6  C   UNL     1      -0.528  -4.515   3.716  0.00  0.00    +0.021 A 
ATOM      7  C   UNL     1      -0.133  -3.203   3.820  0.00  0.00    +0.024 A 
ATOM      8  C   UNL     1      -0.735  -2.214   3.035  0.00  0.00    +0.033 A 
ATOM      9  N   UNL     1      -0.290  -0.907   3.197  0.00  0.00    -0.322 N 
ATOM     10  C   UNL     1      -0.606  -0.044   2.058  0.00  0.00    +0.126 C 
ENDROOT
BRANCH   5  11
ATOM     11  C   UNL     1      -1.962  -6.231   2.707  0.00  0.00    +0.099 C 
ATOM     12  N   UNL     1      -2.296  -7.313   2.618  0.00  0.00    -0.191 NA
ENDBRANCH   5  11
BRANCH   1  13
ATOM     13  N   UNL     1      -2.486   0.857   0.765  0.00  0.00    -0.164 NA
BRANCH  13  14
ATOM     14  S   UNL     1      -3.466   2.128   1.176  0.00  0.00    +0.080 S 
ATOM     15  O   UNL     1      -3.320   2.317   2.577  0.00  0.00    -0.151 OA
ATOM     16  O   UNL     1      -3.206   3.161   0.236  0.00  0.00    -0.151 OA
BRANCH  14  20
ATOM     17  C   UNL     1      -8.170   1.142  -0.970  0.00  0.00    +0.150 C 
ATOM     18  N   UNL     1      -7.067   1.216  -0.008  0.00  0.00    -0.338 N 
ATOM     19  C   UNL     1      -5.828   1.752  -0.233  0.00  0.00    +0.135 A 
ATOM     20  C   UNL     1      -5.129   1.611   0.909  0.00  0.00    +0.211 A 
ATOM     21  N   UNL     1      -5.923   1.012   1.810  0.00  0.00    -0.216 NA
ATOM     22  C   UNL     1      -7.085   0.772   1.267  0.00  0.00    +0.201 A 
ENDBRANCH  14  20
ENDBRANCH  13  14
BRANCH  13  23
ATOM     23  C   UNL     1      -1.995   0.725  -0.608  0.00  0.00    +0.165 C 
BRANCH  23  24
ATOM     24  C   UNL     1      -0.683   1.453  -0.745  0.00  0.00    +0.057 A 
ATOM     25  C   UNL     1       0.502   0.748  -0.645  0.00  0.00    +0.025 A 
ATOM     26  C   UNL     1       1.704   1.426  -0.777  0.00  0.00    +0.003 A 
ATOM     27  C   UNL     1       1.669   2.794  -1.001  0.00  0.00    +0.020 A 
ATOM     28  C   UNL     1       0.446   3.432  -1.083  0.00  0.00    +0.111 A 
ATOM     29  N   UNL     1      -0.678   2.755  -0.953  0.00  0.00    -0.259 NA
ENDBRANCH  23  24
ENDBRANCH  13  23
ENDBRANCH   1  13
BRANCH   9  30
ATOM     30  C   UNL     1       1.147  -0.875   3.500  0.00  0.00    +0.160 C 
BRANCH  30  31
ATOM     31  C   UNL     1       1.926  -1.319   2.288  0.00  0.00    +0.053 A 
ATOM     32  C   UNL     1       2.418  -0.529   1.316  0.00  0.00    +0.106 A 
ATOM     33  N   UNL     1       3.045  -1.310   0.424  0.00  0.00    -0.352 N 
ATOM     34  C   UNL     1       2.960  -2.555   0.806  0.00  0.00    +0.173 A 
ATOM     35  N   UNL     1       2.273  -2.604   1.968  0.00  0.00    -0.337 N 
ATOM     36  C   UNL     1       1.957  -3.808   2.741  0.00  0.00    +0.150 C 
ATOM     37  H   UNL     1       3.524  -0.862  -0.459  0.00  0.00    +0.166 HD
ENDBRANCH  30  31
ENDBRANCH   9  30
TORSDOF 8
