REMARK  Name = ZINC40016200
REMARK  14 active torsions:
REMARK  status: ('A' for Active; 'I' for Inactive)
REMARK    1  A    between atoms: C_1  and  C_2
REMARK    2  A    between atoms: C_2  and  O_3
REMARK    3  A    between atoms: O_3  and  C_4
REMARK    4  A    between atoms: C_6  and  C_14
REMARK    5  A    between atoms: C_9  and  O_10
REMARK    6  A    between atoms: O_10  and  C_11
REMARK    7  A    between atoms: C_11  and  C_13
REMARK    8  A    between atoms: C_22  and  C_24
REMARK    9  A    between atoms: C_25  and  C_26
REMARK   10  A    between atoms: C_29  and  O_34
REMARK   11  A    between atoms: C_30  and  O_32
REMARK   12  A    between atoms: O_32  and  C_33
REMARK   13  A    between atoms: O_34  and  C_35
REMARK   14  A    between atoms: C_35  and  C_36
REMARK                            x       y       z     vdW  Elec       q    Type
REMARK                         _______ _______ _______ _____ _____    ______ ____
ROOT
ATOM      1  C   UNL     1      -0.263  -4.990   0.465  0.00  0.00    +0.028 C 
ATOM      2  C   UNL     1      -0.452  -6.301   0.166  0.00  0.00    +0.082 A 
ATOM      3  C   UNL     1      -0.914  -7.400   1.027  0.00  0.00    +0.288 A 
ATOM      4  O   UNL     1      -1.195  -7.208   2.196  0.00  0.00    -0.265 OA
ATOM      5  N   UNL     1      -1.016  -8.619   0.481  0.00  0.00    -0.169 N 
ATOM      6  C   UNL     1      -0.688  -8.783  -0.836  0.00  0.00    +0.200 A 
ATOM      7  S   UNL     1      -0.212  -7.159  -1.383  0.00  0.00    -0.044 S 
ATOM      8  N   UNL     1      -0.851 -10.029  -1.179  0.00  0.00    -0.201 NA
ATOM      9  C   UNL     1      -1.286 -10.728  -0.117  0.00  0.00    +0.176 A 
ATOM     10  N   UNL     1      -1.401  -9.919   0.911  0.00  0.00    -0.142 NA
ENDROOT
BRANCH   1  13
ATOM     11  C   UNL     1       0.803  -1.869  -1.320  0.00  0.00    +0.163 A 
ATOM     12  C   UNL     1       0.218  -2.706  -0.391  0.00  0.00    +0.057 A 
ATOM     13  C   UNL     1       0.355  -4.094  -0.520  0.00  0.00    -0.020 A 
ATOM     14  C   UNL     1       1.086  -4.624  -1.591  0.00  0.00    +0.012 A 
ATOM     15  C   UNL     1       1.666  -3.781  -2.512  0.00  0.00    +0.051 A 
ATOM     16  C   UNL     1       1.524  -2.405  -2.387  0.00  0.00    +0.173 A 
BRANCH  11  17
ATOM     17  O   UNL     1       0.672  -0.521  -1.199  0.00  0.00    -0.489 OA
BRANCH  17  19
ATOM     18  C   UNL     1      -0.118   1.489  -0.113  0.00  0.00    +0.048 C 
ATOM     19  C   UNL     1      -0.080  -0.041  -0.082  0.00  0.00    +0.226 C 
ENDBRANCH  17  19
ENDBRANCH  11  17
BRANCH  16  20
ATOM     20  O   UNL     1       2.094  -1.579  -3.303  0.00  0.00    -0.422 OA
BRANCH  20  21
ATOM     21  C   UNL     1       3.241  -0.966  -2.971  0.00  0.00    +0.309 C 
ATOM     22  O   UNL     1       3.784  -1.226  -1.923  0.00  0.00    -0.251 OA
ATOM     23  C   UNL     1       3.850   0.048  -3.904  0.00  0.00    +0.136 C 
ENDBRANCH  20  21
ENDBRANCH  16  20
ENDBRANCH   1  13
BRANCH   9  24
ATOM     24  C   UNL     1      -1.587 -12.170  -0.108  0.00  0.00    +0.050 C 
ATOM     25  C   UNL     1      -1.430 -12.896  -1.228  0.00  0.00    +0.012 C 
BRANCH  25  26
ATOM     26  C   UNL     1      -1.730 -14.338  -1.218  0.00  0.00    -0.021 A 
ATOM     27  C   UNL     1      -2.184 -14.952  -0.047  0.00  0.00    +0.012 A 
ATOM     28  C   UNL     1      -2.465 -16.302  -0.041  0.00  0.00    +0.050 A 
ATOM     29  C   UNL     1      -2.297 -17.054  -1.195  0.00  0.00    +0.162 A 
ATOM     30  C   UNL     1      -1.845 -16.449  -2.366  0.00  0.00    +0.162 A 
ATOM     31  C   UNL     1      -1.568 -15.096  -2.382  0.00  0.00    +0.057 A 
BRANCH  30  32
ATOM     32  O   UNL     1      -1.682 -17.190  -3.494  0.00  0.00    -0.491 OA
ATOM     33  C   UNL     1      -1.215 -16.505  -4.658  0.00  0.00    +0.277 C 
ENDBRANCH  30  32
BRANCH  29  34
ATOM     34  O   UNL     1      -2.575 -18.385  -1.183  0.00  0.00    -0.484 OA
BRANCH  34  35
ATOM     35  C   UNL     1      -3.034 -18.941   0.051  0.00  0.00    +0.256 C 
BRANCH  35  36
ATOM     36  C   UNL     1      -3.288 -20.416  -0.126  0.00  0.00    +0.006 C 
ATOM     37  C   UNL     1      -2.866 -21.266   0.777  0.00  0.00    +0.007 C 
ENDBRANCH  35  36
ENDBRANCH  34  35
ENDBRANCH  29  34
ENDBRANCH  25  26
ENDBRANCH   9  24
TORSDOF 11
