REMARK  Name = ZINC33928150
REMARK  9 active torsions:
REMARK  status: ('A' for Active; 'I' for Inactive)
REMARK    1  A    between atoms: C_5  and  C_7
REMARK    2  A    between atoms: C_9  and  C_27
REMARK    3  A    between atoms: C_11  and  C_22
REMARK    4  A    between atoms: C_11  and  O_26
REMARK    5  A    between atoms: C_13  and  S_17
REMARK    6  A    between atoms: C_14  and  C_15
REMARK    7  A    between atoms: S_17  and  C_18
REMARK    8  A    between atoms: C_18  and  C_19
REMARK    9  A    between atoms: C_27  and  C_29
REMARK                            x       y       z     vdW  Elec       q    Type
REMARK                         _______ _______ _______ _____ _____    ______ ____
ROOT
ATOM      1  C   UNL     1       1.347  -1.978  -1.246  0.00  0.00    +0.078 C 
ATOM      2  C   UNL     1       0.111  -2.636  -1.863  0.00  0.00    +0.132 C 
ATOM      3  C   UNL     1      -1.082  -2.422  -0.921  0.00  0.00    +0.239 C 
ATOM      4  N   UNL     1      -0.775  -3.085   0.354  0.00  0.00    -0.303 N 
ATOM      5  C   UNL     1       0.474  -2.923   0.905  0.00  0.00    +0.078 C 
ATOM      6  C   UNL     1       1.501  -2.410   0.185  0.00  0.00    +0.065 C 
ATOM      7  H   UNL     1      -1.444  -3.629   0.799  0.00  0.00    +0.150 HD
ENDROOT
BRANCH   1  12
ATOM      8  C   UNL     1       1.194   1.647  -0.203  0.00  0.00    +0.000 A 
ATOM      9  C   UNL     1       0.919   2.270  -1.406  0.00  0.00    +0.001 A 
ATOM     10  C   UNL     1       0.782   1.519  -2.558  0.00  0.00    +0.020 A 
ATOM     11  C   UNL     1       0.920   0.143  -2.507  0.00  0.00    +0.045 A 
ATOM     12  C   UNL     1       1.196  -0.480  -1.303  0.00  0.00    -0.020 A 
ATOM     13  C   UNL     1       1.333   0.273  -0.151  0.00  0.00    +0.006 A 
ATOM     14 CL   UNL     1       0.748  -0.801  -3.953  0.00  0.00    -0.083 Cl
ENDBRANCH   1  12
BRANCH   3  15
ATOM     15  C   UNL     1      -1.295  -0.925  -0.688  0.00  0.00    +0.436 C 
ATOM     16  F   UNL     1      -1.009  -0.224  -1.865  0.00  0.00    -0.166 F 
ATOM     17  F   UNL     1      -2.625  -0.696  -0.320  0.00  0.00    -0.166 F 
ATOM     18  F   UNL     1      -0.446  -0.487   0.334  0.00  0.00    -0.166 F 
ENDBRANCH   3  15
BRANCH   6  19
ATOM     19  C   UNL     1       2.780  -2.275   0.814  0.00  0.00    +0.098 C 
ATOM     20  N   UNL     1       3.796  -2.168   1.313  0.00  0.00    -0.191 NA
ENDBRANCH   6  19
BRANCH   3  21
ATOM     21  O   UNL     1      -2.259  -2.996  -1.494  0.00  0.00    -0.364 OA
ATOM     22  H   UNL     1      -3.051  -2.895  -0.948  0.00  0.00    +0.212 HD
ENDBRANCH   3  21
BRANCH   2  23
ATOM     23  C   UNL     1       0.359  -4.112  -2.042  0.00  0.00    +0.178 C 
ATOM     24  O   UNL     1       1.103  -4.699  -1.282  0.00  0.00    -0.291 OA
BRANCH  23  25
ATOM     25  C   UNL     1      -0.272  -4.811  -3.094  0.00  0.00    +0.055 A 
ATOM     26  C   UNL     1      -0.184  -6.160  -3.428  0.00  0.00    +0.019 A 
ATOM     27  C   UNL     1      -0.921  -6.552  -4.516  0.00  0.00    +0.008 A 
ATOM     28  C   UNL     1      -1.667  -5.629  -5.177  0.00  0.00    +0.046 A 
ATOM     29  S   UNL     1      -1.395  -4.200  -4.336  0.00  0.00    -0.094 S 
ENDBRANCH  23  25
ENDBRANCH   2  23
BRANCH   5  30
ATOM     30  S   UNL     1       0.743  -3.389   2.583  0.00  0.00    -0.100 S 
BRANCH  30  31
ATOM     31  C   UNL     1      -0.872  -4.006   3.131  0.00  0.00    +0.171 C 
BRANCH  31  32
ATOM     32  C   UNL     1      -0.781  -4.444   4.570  0.00  0.00    +0.221 C 
ATOM     33  O   UNL     1       0.271  -4.350   5.167  0.00  0.00    -0.275 OA
ATOM     34  N   UNL     1      -1.867  -4.941   5.194  0.00  0.00    -0.329 N 
ATOM     35  H   UNL     1      -2.708  -5.017   4.717  0.00  0.00    +0.145 HD
ATOM     36  H   UNL     1      -1.808  -5.223   6.120  0.00  0.00    +0.145 HD
ENDBRANCH  31  32
ENDBRANCH  30  31
ENDBRANCH   5  30
TORSDOF 9
