REMARK  Name = ZINC12656634
REMARK  7 active torsions:
REMARK  status: ('A' for Active; 'I' for Inactive)
REMARK    1  A    between atoms: C_1  and  O_2
REMARK    2  A    between atoms: O_2  and  C_3
REMARK    3  A    between atoms: C_3  and  C_4
REMARK    4  A    between atoms: C_4  and  O_5
REMARK    5  A    between atoms: O_5  and  C_6
REMARK    6  A    between atoms: C_6  and  C_8
REMARK    7  A    between atoms: C_9  and  N_33
REMARK                            x       y       z     vdW  Elec       q    Type
REMARK                         _______ _______ _______ _____ _____    ______ ____
ROOT
ATOM      1  C   UNL     1      -4.077   0.766   2.537  0.00  0.00    +0.117 C 
ATOM      2  C   UNL     1      -4.815   1.038   3.646  0.00  0.00    +0.196 C 
ATOM      3  O   UNL     1      -6.062   0.561   3.784  0.00  0.00    -0.441 OA
ATOM      4  C   UNL     1      -6.464  -0.523   3.083  0.00  0.00    +0.146 C 
ATOM      5  C   UNL     1      -5.819  -0.891   1.942  0.00  0.00    +0.062 C 
ATOM      6  C   UNL     1      -4.641  -0.094   1.444  0.00  0.00    +0.142 C 
ATOM      7  C   UNL     1      -5.024   0.732   0.255  0.00  0.00    -0.001 A 
ATOM      8  C   UNL     1      -5.944   1.748   0.108  0.00  0.00    +0.022 A 
ATOM      9  C   UNL     1      -6.057   2.318  -1.156  0.00  0.00    +0.018 A 
ATOM     10  C   UNL     1      -5.280   1.885  -2.212  0.00  0.00    +0.017 A 
ATOM     11  C   UNL     1      -4.354   0.864  -2.071  0.00  0.00    +0.025 A 
ATOM     12  C   UNL     1      -4.232   0.282  -0.808  0.00  0.00    +0.038 A 
ATOM     13  N   UNL     1      -3.401  -0.742  -0.388  0.00  0.00    -0.284 N 
ATOM     14  C   UNL     1      -3.574  -1.031   0.918  0.00  0.00    +0.237 C 
ATOM     15  O   UNL     1      -2.985  -1.881   1.552  0.00  0.00    -0.274 OA
ATOM     16 BR   UNL     1      -7.299   3.717  -1.433  0.00  0.00    -0.050 Br
ATOM     17  C   UNL     1      -6.220  -2.011   1.198  0.00  0.00    +0.169 C 
ATOM     18  O   UNL     1      -5.624  -2.314   0.182  0.00  0.00    -0.292 OA
ATOM     19  C   UNL     1      -7.394  -2.841   1.661  0.00  0.00    +0.115 C 
ATOM     20  C   UNL     1      -8.091  -2.413   2.931  0.00  0.00    -0.029 A 
ATOM     21  C   UNL     1      -7.619  -1.283   3.602  0.00  0.00    +0.021 A 
ATOM     22  C   UNL     1      -8.252  -0.871   4.779  0.00  0.00    +0.012 A 
ATOM     23  C   UNL     1      -9.331  -1.583   5.260  0.00  0.00    +0.001 A 
ATOM     24  C   UNL     1      -9.789  -2.701   4.587  0.00  0.00    +0.000 A 
ATOM     25  C   UNL     1      -9.167  -3.116   3.420  0.00  0.00    +0.005 A 
ATOM     26  H   UNL     1      -2.768  -1.198  -0.965  0.00  0.00    +0.155 HD
ENDROOT
BRANCH   2  27
ATOM     27  N   UNL     1      -4.279   1.816   4.636  0.00  0.00    -0.329 N 
ATOM     28  H   UNL     1      -3.417   2.241   4.506  0.00  0.00    +0.145 HD
ATOM     29  H   UNL     1      -4.761   1.943   5.468  0.00  0.00    +0.145 HD
ENDBRANCH   2  27
BRANCH   1  30
ATOM     30  C   UNL     1      -2.780   1.288   2.416  0.00  0.00    +0.342 C 
ATOM     31  O   UNL     1      -2.579   2.264   1.717  0.00  0.00    -0.245 OA
BRANCH  30  32
ATOM     32  O   UNL     1      -1.755   0.707   3.075  0.00  0.00    -0.459 OA
BRANCH  32  33
ATOM     33  C   UNL     1      -0.461   1.290   2.907  0.00  0.00    +0.260 C 
BRANCH  33  34
ATOM     34  C   UNL     1       0.564   0.501   3.724  0.00  0.00    +0.200 C 
BRANCH  34  36
ATOM     35  C   UNL     1       1.613  -1.647   3.893  0.00  0.00    +0.194 C 
ATOM     36  O   UNL     1       0.676  -0.823   3.198  0.00  0.00    -0.380 OA
ENDBRANCH  34  36
ENDBRANCH  33  34
ENDBRANCH  32  33
ENDBRANCH  30  32
ENDBRANCH   1  30
TORSDOF 6
