REMARK  Name = ZINC39243279
REMARK  12 active torsions:
REMARK  status: ('A' for Active; 'I' for Inactive)
REMARK    1  A    between atoms: C_1  and  C_2
REMARK    2  A    between atoms: C_2  and  C_3
REMARK    3  A    between atoms: C_3  and  C_4
REMARK    4  A    between atoms: C_6  and  C_18
REMARK    5  A    between atoms: C_8  and  C_16
REMARK    6  A    between atoms: C_9  and  N_15
REMARK    7  A    between atoms: C_21  and  O_26
REMARK    8  A    between atoms: C_22  and  O_24
REMARK    9  A    between atoms: O_24  and  C_25
REMARK   10  A    between atoms: O_26  and  C_27
REMARK   11  A    between atoms: C_27  and  C_28
REMARK   12  A    between atoms: C_31  and  C_34
REMARK                            x       y       z     vdW  Elec       q    Type
REMARK                         _______ _______ _______ _____ _____    ______ ____
ROOT
ATOM      1  C   UNL     1       0.861  -1.786  -1.791  0.00  0.00    +0.069 C 
ATOM      2  C   UNL     1      -0.093  -2.546  -2.272  0.00  0.00    +0.030 C 
ATOM      3  C   UNL     1      -1.463  -2.264  -2.826  0.00  0.00    +0.098 C 
ATOM      4  C   UNL     1      -2.367  -3.333  -2.240  0.00  0.00    +0.097 C 
ATOM      5  C   UNL     1      -1.871  -4.381  -1.551  0.00  0.00    +0.195 C 
ATOM      6  O   UNL     1      -0.577  -4.616  -1.266  0.00  0.00    -0.448 OA
ATOM      7  C   UNL     1       0.406  -3.979  -2.086  0.00  0.00    +0.343 C 
ATOM      8  N   UNL     1       1.671  -3.771  -1.373  0.00  0.00    -0.138 NA
ATOM      9  N   UNL     1       1.859  -2.551  -1.279  0.00  0.00    -0.155 NA
ENDROOT
BRANCH   3  10
ATOM     10  C   UNL     1      -1.926  -0.895  -2.399  0.00  0.00    -0.031 A 
ATOM     11  C   UNL     1      -2.187  -0.640  -1.065  0.00  0.00    +0.008 A 
ATOM     12  C   UNL     1      -2.612   0.614  -0.668  0.00  0.00    +0.050 A 
ATOM     13  C   UNL     1      -2.776   1.619  -1.607  0.00  0.00    +0.162 A 
ATOM     14  C   UNL     1      -2.513   1.363  -2.950  0.00  0.00    +0.162 A 
ATOM     15  C   UNL     1      -2.083   0.105  -3.340  0.00  0.00    +0.054 A 
BRANCH  14  16
ATOM     16  O   UNL     1      -2.673   2.346  -3.875  0.00  0.00    -0.491 OA
ATOM     17  C   UNL     1      -2.384   2.012  -5.234  0.00  0.00    +0.277 C 
ENDBRANCH  14  16
BRANCH  13  18
ATOM     18  O   UNL     1      -3.195   2.853  -1.218  0.00  0.00    -0.484 OA
BRANCH  18  19
ATOM     19  C   UNL     1      -3.446   3.044   0.175  0.00  0.00    +0.264 C 
BRANCH  19  20
ATOM     20  C   UNL     1      -3.898   4.462   0.415  0.00  0.00    -0.010 A 
ATOM     21  C   UNL     1      -2.966   5.448   0.679  0.00  0.00    +0.007 A 
ATOM     22  C   UNL     1      -3.380   6.748   0.899  0.00  0.00    +0.004 A 
ATOM     23  C   UNL     1      -4.726   7.062   0.855  0.00  0.00    -0.050 A 
ATOM     24  C   UNL     1      -5.657   6.076   0.590  0.00  0.00    +0.004 A 
ATOM     25  C   UNL     1      -5.243   4.776   0.365  0.00  0.00    +0.007 A 
ATOM     26  C   UNL     1      -5.177   8.480   1.096  0.00  0.00    +0.044 C 
ENDBRANCH  19  20
ENDBRANCH  18  19
ENDBRANCH  13  18
ENDBRANCH   3  10
BRANCH   5  27
ATOM     27  N   UNL     1      -2.779  -5.302  -1.093  0.00  0.00    -0.329 N 
ATOM     28  H   UNL     1      -3.725  -5.181  -1.271  0.00  0.00    +0.145 HD
ATOM     29  H   UNL     1      -2.475  -6.075  -0.592  0.00  0.00    +0.145 HD
ENDBRANCH   5  27
BRANCH   4  30
ATOM     30  C   UNL     1      -3.783  -3.226  -2.424  0.00  0.00    +0.101 C 
ATOM     31  N   UNL     1      -4.906  -3.141  -2.570  0.00  0.00    -0.191 NA
ENDBRANCH   4  30
BRANCH   1  32
ATOM     32  C   UNL     1       0.854  -0.280  -1.808  0.00  0.00    +0.057 C 
BRANCH  32  34
ATOM     33  C   UNL     1       1.406   1.744  -3.167  0.00  0.00    +0.004 C 
ATOM     34  C   UNL     1       1.504   0.218  -3.101  0.00  0.00    +0.003 C 
ENDBRANCH  32  34
ENDBRANCH   1  32
TORSDOF 9
