REMARK  Name = ZINC63314348
REMARK  12 active torsions:
REMARK  status: ('A' for Active; 'I' for Inactive)
REMARK    1  A    between atoms: C_1  and  C_2
REMARK    2  A    between atoms: C_2  and  O_3
REMARK    3  A    between atoms: O_3  and  C_4
REMARK    4  A    between atoms: C_9  and  S_14
REMARK    5  A    between atoms: S_14  and  C_15
REMARK    6  A    between atoms: C_15  and  C_16
REMARK    7  A    between atoms: C_17  and  C_32
REMARK    8  A    between atoms: C_18  and  C_24
REMARK    9  A    between atoms: C_26  and  C_31
REMARK   10  A    between atoms: C_29  and  C_30
REMARK   11  A    between atoms: C_32  and  O_34
REMARK   12  A    between atoms: O_34  and  C_35
REMARK                            x       y       z     vdW  Elec       q    Type
REMARK                         _______ _______ _______ _____ _____    ______ ____
ROOT
ATOM      1  C   UNL     1       6.294  -6.147   1.339  0.00  0.00    +0.034 C 
ATOM      2  C   UNL     1       6.165  -6.941   0.254  0.00  0.00    +0.079 C 
ATOM      3  C   UNL     1       7.330  -7.841  -0.104  0.00  0.00    +0.144 C 
ATOM      4  N   UNL     1       8.516  -7.775   0.767  0.00  0.00    -0.288 N 
ATOM      5  C   UNL     1       8.495  -6.930   1.817  0.00  0.00    +0.304 C 
ATOM      6  O   UNL     1       9.469  -6.869   2.542  0.00  0.00    -0.252 OA
ATOM      7  N   UNL     1       7.438  -6.152   2.084  0.00  0.00    -0.272 N 
ATOM      8  H   UNL     1       9.294  -8.328   0.590  0.00  0.00    +0.151 HD
ATOM      9  H   UNL     1       7.487  -5.562   2.852  0.00  0.00    +0.156 HD
ENDROOT
BRANCH   3  10
ATOM     10  C   UNL     1       7.766  -7.502  -1.506  0.00  0.00    -0.019 A 
ATOM     11  C   UNL     1       8.752  -6.555  -1.714  0.00  0.00    +0.009 A 
ATOM     12  C   UNL     1       9.151  -6.244  -3.001  0.00  0.00    -0.050 A 
ATOM     13  C   UNL     1       8.565  -6.880  -4.079  0.00  0.00    +0.003 A 
ATOM     14  C   UNL     1       7.580  -7.827  -3.871  0.00  0.00    +0.004 A 
ATOM     15  C   UNL     1       7.183  -8.142  -2.584  0.00  0.00    -0.045 A 
ATOM     16  C   UNL     1       6.113  -9.178  -2.357  0.00  0.00    +0.044 C 
ATOM     17  C   UNL     1      10.225  -5.212  -3.227  0.00  0.00    +0.044 C 
ENDBRANCH   3  10
BRANCH   2  18
ATOM     18  C   UNL     1       4.982  -6.933  -0.522  0.00  0.00    +0.339 C 
ATOM     19  O   UNL     1       4.144  -7.800  -0.361  0.00  0.00    -0.245 OA
BRANCH  18  20
ATOM     20  O   UNL     1       4.784  -5.964  -1.440  0.00  0.00    -0.465 OA
ATOM     21  C   UNL     1       3.535  -5.974  -2.134  0.00  0.00    +0.280 C 
ENDBRANCH  18  20
ENDBRANCH   2  18
BRANCH   1  22
ATOM     22  C   UNL     1       5.159  -5.237   1.730  0.00  0.00    +0.124 C 
BRANCH  22  23
ATOM     23  S   UNL     1       4.298  -5.927   3.170  0.00  0.00    -0.109 S 
BRANCH  23  29
ATOM     24  C   UNL     1       2.664  -0.569   1.557  0.00  0.00    +0.123 A 
ATOM     25  C   UNL     1       1.771  -1.307   0.673  0.00  0.00    +0.048 A 
ATOM     26  C   UNL     1       1.527  -2.620   0.843  0.00  0.00    +0.031 A 
ATOM     27  C   UNL     1       2.172  -3.346   1.948  0.00  0.00    +0.061 A 
ATOM     28  N   UNL     1       2.112  -4.588   2.333  0.00  0.00    -0.355 N 
ATOM     29  C   UNL     1       2.979  -4.729   3.509  0.00  0.00    +0.236 C 
ATOM     30  N   UNL     1       3.554  -3.403   3.761  0.00  0.00    -0.355 N 
ATOM     31  C   UNL     1       3.084  -2.594   2.851  0.00  0.00    +0.064 A 
ATOM     32  C   UNL     1       3.300  -1.168   2.593  0.00  0.00    +0.073 A 
ATOM     33  H   UNL     1       1.590  -5.292   1.917  0.00  0.00    +0.162 HD
ATOM     34  H   UNL     1       4.170  -3.170   4.474  0.00  0.00    +0.162 HD
BRANCH  24  35
ATOM     35  O   UNL     1       2.869   0.752   1.333  0.00  0.00    -0.492 OA
BRANCH  35  37
ATOM     36  C   UNL     1       2.530   2.824   0.135  0.00  0.00    +0.048 C 
ATOM     37  C   UNL     1       2.177   1.338   0.228  0.00  0.00    +0.225 C 
ENDBRANCH  35  37
ENDBRANCH  24  35
ENDBRANCH  23  29
ENDBRANCH  22  23
ENDBRANCH   1  22
TORSDOF 8
