REMARK  Name = ZINC39561039
REMARK  7 active torsions:
REMARK  status: ('A' for Active; 'I' for Inactive)
REMARK    1  A    between atoms: C_3  and  N_25
REMARK    2  A    between atoms: C_4  and  N_8
REMARK    3  A    between atoms: C_9  and  C_11
REMARK    4  A    between atoms: C_11  and  O_12
REMARK    5  A    between atoms: O_12  and  C_13
REMARK    6  A    between atoms: C_13  and  C_15
REMARK    7  A    between atoms: C_17  and  N_23
REMARK                            x       y       z     vdW  Elec       q    Type
REMARK                         _______ _______ _______ _____ _____    ______ ____
ROOT
ATOM      1  N   UNL     1       3.596  -0.641  -0.038  0.00  0.00    -0.281 N 
ATOM      2  C   UNL     1       3.605  -1.985  -0.138  0.00  0.00    +0.255 C 
ATOM      3  O   UNL     1       2.566  -2.588  -0.304  0.00  0.00    -0.272 OA
ATOM      4  H   UNL     1       4.433  -0.154   0.017  0.00  0.00    +0.155 HD
ENDROOT
BRANCH   1   8
ATOM      5  C   UNL     1      -0.029   1.421   0.034  0.00  0.00    +0.022 A 
ATOM      6  C   UNL     1       1.069   1.986  -0.586  0.00  0.00    +0.031 A 
ATOM      7  C   UNL     1       2.277   1.306  -0.613  0.00  0.00    +0.088 A 
ATOM      8  C   UNL     1       2.380   0.051  -0.013  0.00  0.00    +0.061 A 
ATOM      9  C   UNL     1       1.274  -0.510   0.608  0.00  0.00    +0.045 A 
ATOM     10  C   UNL     1       0.072   0.176   0.630  0.00  0.00    +0.043 A 
ATOM     11 CL   UNL     1      -1.311  -0.527   1.407  0.00  0.00    -0.083 Cl
BRANCH   7  12
ATOM     12  N   UNL     1       3.393   1.877  -1.243  0.00  0.00    -0.218 N 
ATOM     13  C   UNL     1       3.425   3.032  -1.936  0.00  0.00    +0.225 A 
ATOM     14  N   UNL     1       4.649   3.214  -2.363  0.00  0.00    -0.222 NA
ATOM     15  C   UNL     1       5.421   2.205  -1.965  0.00  0.00    +0.245 A 
ATOM     16  N   UNL     1       4.699   1.363  -1.271  0.00  0.00    -0.153 NA
ENDBRANCH   7  12
ENDBRANCH   1   8
BRANCH   2  17
ATOM     17  C   UNL     1       4.906  -2.740  -0.044  0.00  0.00    +0.328 C 
BRANCH  17  18
ATOM     18  O   UNL     1       4.656  -4.140  -0.179  0.00  0.00    -0.451 OA
BRANCH  18  19
ATOM     19  C   UNL     1       5.723  -4.961  -0.117  0.00  0.00    +0.360 C 
ATOM     20  O   UNL     1       6.834  -4.500   0.047  0.00  0.00    -0.243 OA
BRANCH  19  21
ATOM     21  C   UNL     1       5.539  -6.423  -0.248  0.00  0.00    +0.169 A 
ATOM     22  C   UNL     1       6.645  -7.265  -0.177  0.00  0.00    +0.095 A 
ATOM     23  C   UNL     1       6.455  -8.642  -0.303  0.00  0.00    +0.067 A 
ATOM     24  C   UNL     1       5.159  -9.116  -0.494  0.00  0.00    +0.100 A 
ATOM     25  C   UNL     1       4.109  -8.213  -0.553  0.00  0.00    +0.150 A 
ATOM     26  N   UNL     1       4.319  -6.920  -0.427  0.00  0.00    -0.226 NA
ATOM     27 CL   UNL     1       2.492  -8.797  -0.791  0.00  0.00    -0.060 Cl
ATOM     28 CL   UNL     1       4.863 -10.819  -0.657  0.00  0.00    -0.078 Cl
ATOM     29 CL   UNL     1       8.236  -6.613   0.062  0.00  0.00    -0.079 Cl
BRANCH  23  30
ATOM     30  N   UNL     1       7.535  -9.521  -0.238  0.00  0.00    -0.356 N 
ATOM     31  H   UNL     1       8.432  -9.177  -0.105  0.00  0.00    +0.142 HD
ATOM     32  H   UNL     1       7.389 -10.475  -0.327  0.00  0.00    +0.142 HD
ENDBRANCH  23  30
ENDBRANCH  19  21
ENDBRANCH  18  19
ENDBRANCH  17  18
ENDBRANCH   2  17
TORSDOF 7
