REMARK  Name = ZINC43884133
REMARK  10 active torsions:
REMARK  status: ('A' for Active; 'I' for Inactive)
REMARK    1  A    between atoms: C_1  and  C_2
REMARK    2  A    between atoms: C_2  and  C_3
REMARK    3  A    between atoms: C_2  and  C_4
REMARK    4  A    between atoms: C_2  and  C_5
REMARK    5  A    between atoms: C_5  and  C_7
REMARK    6  A    between atoms: C_5  and  N_13
REMARK    7  A    between atoms: N_16  and  C_17
REMARK    8  A    between atoms: C_22  and  S_23
REMARK    9  A    between atoms: S_23  and  C_24
REMARK   10  A    between atoms: C_24  and  C_25
REMARK                            x       y       z     vdW  Elec       q    Type
REMARK                         _______ _______ _______ _____ _____    ______ ____
ROOT
ATOM      1  N   UNL     1       0.020  -0.021  -2.454  0.00  0.00    -0.292 N 
ATOM      2  C   UNL     1      -1.040  -0.703  -2.931  0.00  0.00    +0.304 C 
ATOM      3  O   UNL     1      -1.405  -1.722  -2.379  0.00  0.00    -0.252 OA
ATOM      4  N   UNL     1      -1.694  -0.254  -4.021  0.00  0.00    -0.268 N 
ATOM      5  H   UNL     1       0.312   0.793  -2.894  0.00  0.00    +0.151 HD
ATOM      6  H   UNL     1      -1.455   0.600  -4.413  0.00  0.00    +0.156 HD
ENDROOT
BRANCH   4   7
ATOM      7  C   UNL     1      -2.721  -1.023  -4.587  0.00  0.00    +0.048 A 
ATOM      8  C   UNL     1      -2.744  -2.397  -4.402  0.00  0.00    +0.024 A 
ATOM      9  C   UNL     1      -3.757  -3.153  -4.963  0.00  0.00    +0.002 A 
ATOM     10  C   UNL     1      -4.749  -2.543  -5.708  0.00  0.00    +0.001 A 
ATOM     11  C   UNL     1      -4.735  -1.174  -5.898  0.00  0.00    +0.016 A 
ATOM     12  C   UNL     1      -3.725  -0.407  -5.334  0.00  0.00    +0.030 A 
BRANCH  12  13
ATOM     13  S   UNL     1      -3.708   1.340  -5.568  0.00  0.00    -0.114 S 
BRANCH  13  14
ATOM     14  C   UNL     1      -5.178   1.662  -6.580  0.00  0.00    +0.169 C 
BRANCH  14  15
ATOM     15  C   UNL     1      -5.284   3.139  -6.857  0.00  0.00    +0.221 C 
ATOM     16  O   UNL     1      -4.449   3.900  -6.415  0.00  0.00    -0.275 OA
ATOM     17  N   UNL     1      -6.306   3.615  -7.596  0.00  0.00    -0.329 N 
ATOM     18  H   UNL     1      -6.973   3.006  -7.949  0.00  0.00    +0.145 HD
ATOM     19  H   UNL     1      -6.374   4.566  -7.774  0.00  0.00    +0.145 HD
ENDBRANCH  14  15
ENDBRANCH  13  14
ENDBRANCH  12  13
ENDBRANCH   4   7
BRANCH   1  20
ATOM     20  C   UNL     1       0.732  -0.508  -1.270  0.00  0.00    +0.110 C 
BRANCH  20  21
ATOM     21  C   UNL     1       2.150   0.003  -1.290  0.00  0.00    -0.027 A 
ATOM     22  C   UNL     1       2.412   1.299  -1.694  0.00  0.00    +0.005 A 
ATOM     23  C   UNL     1       3.712   1.767  -1.713  0.00  0.00    +0.000 A 
ATOM     24  C   UNL     1       4.750   0.941  -1.326  0.00  0.00    +0.000 A 
ATOM     25  C   UNL     1       4.488  -0.355  -0.921  0.00  0.00    +0.000 A 
ATOM     26  C   UNL     1       3.187  -0.822  -0.899  0.00  0.00    +0.005 A 
ENDBRANCH  20  21
BRANCH  20  28
ATOM     27  C   UNL     1       0.017   1.524  -0.004  0.00  0.00    +0.013 C 
ATOM     28  C   UNL     1       0.027  -0.006  -0.008  0.00  0.00    -0.015 C 
ATOM     29  C   UNL     1       0.770  -0.515   1.228  0.00  0.00    +0.013 C 
ATOM     30  C   UNL     1      -1.412  -0.525   0.012  0.00  0.00    +0.013 C 
ENDBRANCH  20  28
ENDBRANCH   1  20
TORSDOF 7
