REMARK  Name = ZINC12156422
REMARK  7 active torsions:
REMARK  status: ('A' for Active; 'I' for Inactive)
REMARK    1  A    between atoms: C_4  and  C_7
REMARK    2  A    between atoms: C_9  and  C_12
REMARK    3  A    between atoms: C_12  and  N_13
REMARK    4  A    between atoms: C_14  and  C_16
REMARK    5  A    between atoms: C_16  and  O_17
REMARK    6  A    between atoms: O_17  and  C_18
REMARK    7  A    between atoms: C_29  and  N_66
REMARK                            x       y       z     vdW  Elec       q    Type
REMARK                         _______ _______ _______ _____ _____    ______ ____
ROOT
ATOM      1  C   UNL     1       1.242  -0.641  -0.013  0.00  0.00    +0.235 A 
ATOM      2  C   UNL     1       0.002  -0.004   0.002  0.00  0.00    +0.072 A 
ATOM      3  C   UNL     1      -0.017   1.380   0.010  0.00  0.00    +0.051 A 
ATOM      4  C   UNL     1       1.207   2.051   0.002  0.00  0.00    +0.144 A 
ATOM      5  N   UNL     1       2.336   1.360  -0.013  0.00  0.00    -0.131 NA
ATOM      6  N   UNL     1       2.351   0.077  -0.020  0.00  0.00    -0.110 NA
ATOM      7  N   UNL     1       1.240   3.443   0.008  0.00  0.00    -0.317 N 
ATOM      8  C   UNL     1       0.479   3.994  -1.122  0.00  0.00    +0.088 C 
ATOM      9  C   UNL     1       0.474   5.522  -1.034  0.00  0.00    -0.059 C 
ATOM     10  C   UNL     1       2.619   5.465   0.086  0.00  0.00    -0.059 C 
ATOM     11  C   UNL     1       2.624   3.937  -0.002  0.00  0.00    +0.088 C 
ATOM     12  N   UNL     1       1.870   6.006  -1.068  0.00  0.00    +0.384 N 
ATOM     13  H   UNL     1       2.314   5.683  -1.935  0.00  0.00    -0.081 HD
ENDROOT
BRANCH  12  14
ATOM     14  C   UNL     1       1.893   7.484  -1.037  0.00  0.00    -0.068 C 
ATOM     15  C   UNL     1       1.281   8.002   0.265  0.00  0.00    -0.015 C 
ATOM     16  C   UNL     1       1.317   9.532   0.273  0.00  0.00    -0.002 C 
ATOM     17  C   UNL     1       0.516  10.067  -0.916  0.00  0.00    -0.000 C 
ATOM     18  C   UNL     1       1.128   9.549  -2.219  0.00  0.00    -0.002 C 
ATOM     19  C   UNL     1       1.092   8.019  -2.226  0.00  0.00    -0.015 C 
ENDBRANCH  12  14
BRANCH   1  20
ATOM     20  O   UNL     1       1.309  -1.998  -0.021  0.00  0.00    -0.466 OA
BRANCH  20  21
ATOM     21  C   UNL     1       2.613  -2.582  -0.036  0.00  0.00    +0.326 C 
BRANCH  21  23
ATOM     22  N   UNL     1       3.599  -4.851  -0.057  0.00  0.00    -0.304 N 
ATOM     23  C   UNL     1       2.490  -4.084  -0.043  0.00  0.00    +0.251 C 
ATOM     24  O   UNL     1       1.394  -4.603  -0.035  0.00  0.00    -0.272 OA
ATOM     25  H   UNL     1       4.475  -4.436  -0.064  0.00  0.00    +0.149 HD
BRANCH  22  26
ATOM     26  C   UNL     1       3.479  -6.311  -0.064  0.00  0.00    +0.203 C 
BRANCH  26  29
ATOM     27  C   UNL     1       6.722  -7.766   0.470  0.00  0.00    +0.202 A 
ATOM     28  N   UNL     1       5.574  -7.251   0.965  0.00  0.00    -0.190 NA
ATOM     29  C   UNL     1       4.854  -6.927  -0.080  0.00  0.00    +0.245 A 
ATOM     30  O   UNL     1       5.566  -7.252  -1.164  0.00  0.00    -0.336 OA
ATOM     31  N   UNL     1       6.633  -7.725  -0.834  0.00  0.00    -0.056 NA
BRANCH  27  35
ATOM     32  C   UNL     1      10.008  -9.243   2.730  0.00  0.00    +0.000 A 
ATOM     33  C   UNL     1      10.057  -9.264   1.348  0.00  0.00    +0.001 A 
ATOM     34  C   UNL     1       8.994  -8.786   0.609  0.00  0.00    +0.012 A 
ATOM     35  C   UNL     1       7.869  -8.281   1.259  0.00  0.00    +0.022 A 
ATOM     36  C   UNL     1       7.827  -8.257   2.651  0.00  0.00    +0.012 A 
ATOM     37  C   UNL     1       8.894  -8.744   3.380  0.00  0.00    +0.001 A 
ENDBRANCH  27  35
ENDBRANCH  26  29
ENDBRANCH  22  26
ENDBRANCH  21  23
ENDBRANCH  20  21
ENDBRANCH   1  20
TORSDOF 7
