REMARK  Name = ZINC20764592
REMARK  8 active torsions:
REMARK  status: ('A' for Active; 'I' for Inactive)
REMARK    1  A    between atoms: C_1  and  O_2
REMARK    2  A    between atoms: O_2  and  C_3
REMARK    3  A    between atoms: C_6  and  C_9
REMARK    4  A    between atoms: C_11  and  C_25
REMARK    5  A    between atoms: C_14  and  C_17
REMARK    6  A    between atoms: C_22  and  O_23
REMARK    7  A    between atoms: C_28  and  O_32
REMARK    8  A    between atoms: O_32  and  C_33
REMARK                            x       y       z     vdW  Elec       q    Type
REMARK                         _______ _______ _______ _____ _____    ______ ____
ROOT
ATOM      1  C   UNL     1      -1.117   7.092   1.854  0.00  0.00    +0.040 C 
ATOM      2  N   UNL     1      -1.716   7.536   2.895  0.00  0.00    -0.299 NA
ATOM      3  C   UNL     1      -1.904   8.951   3.190  0.00  0.00    +0.081 C 
ATOM      4  N   UNL     1      -0.990   9.774   2.390  0.00  0.00    +0.401 N 
ATOM      5  C   UNL     1      -1.088   9.406   0.967  0.00  0.00    -0.028 C 
ATOM      6  C   UNL     1      -0.530   7.989   0.800  0.00  0.00    +0.044 C 
ATOM      7  H   UNL     1      -1.256  10.835   2.506  0.00  0.00    -0.081 HD
ATOM      8  H   UNL     1       0.043   9.615   2.732  0.00  0.00    -0.081 HD
ENDROOT
BRANCH   5   9
ATOM      9  C   UNL     1      -0.282  10.371   0.135  0.00  0.00    -0.018 A 
ATOM     10  C   UNL     1       0.757  11.077   0.709  0.00  0.00    +0.025 A 
ATOM     11  C   UNL     1       1.501  11.959  -0.055  0.00  0.00    +0.041 A 
ATOM     12  C   UNL     1       1.197  12.144  -1.393  0.00  0.00    +0.023 A 
ATOM     13  C   UNL     1       0.154  11.444  -1.968  0.00  0.00    +0.047 A 
ATOM     14  C   UNL     1      -0.588  10.555  -1.205  0.00  0.00    +0.119 A 
ATOM     15 CL   UNL     1       2.811  12.840   0.666  0.00  0.00    -0.084 Cl
BRANCH  14  16
ATOM     16  O   UNL     1      -1.615   9.866  -1.770  0.00  0.00    -0.507 OA
ATOM     17  H   UNL     1      -1.857  10.013  -2.833  0.00  0.00    +0.292 HD
ENDBRANCH  14  16
ENDBRANCH   5   9
BRANCH   3  18
ATOM     18  C   UNL     1      -3.326   9.334   2.872  0.00  0.00    -0.039 A 
ATOM     19  C   UNL     1      -3.623  10.630   2.492  0.00  0.00    +0.007 A 
ATOM     20  C   UNL     1      -4.925  10.984   2.195  0.00  0.00    +0.047 A 
ATOM     21  C   UNL     1      -5.937  10.040   2.288  0.00  0.00    +0.134 A 
ATOM     22  C   UNL     1      -5.638   8.741   2.675  0.00  0.00    +0.060 A 
ATOM     23  C   UNL     1      -4.332   8.391   2.966  0.00  0.00    +0.022 A 
ATOM     24 BR   UNL     1      -7.014   7.450   2.803  0.00  0.00    -0.047 Br
BRANCH  21  25
ATOM     25  O   UNL     1      -7.220  10.386   2.002  0.00  0.00    -0.494 OA
ATOM     26  C   UNL     1      -7.454  11.741   1.611  0.00  0.00    +0.277 C 
ENDBRANCH  21  25
ENDBRANCH   3  18
BRANCH   1  30
ATOM     27  C   UNL     1      -0.787   2.890   1.346  0.00  0.00    +0.120 A 
ATOM     28  C   UNL     1      -0.251   3.748   0.393  0.00  0.00    +0.046 A 
ATOM     29  C   UNL     1      -0.360   5.112   0.551  0.00  0.00    +0.013 A 
ATOM     30  C   UNL     1      -1.002   5.633   1.678  0.00  0.00    -0.004 A 
ATOM     31  C   UNL     1      -1.535   4.767   2.637  0.00  0.00    +0.013 A 
ATOM     32  C   UNL     1      -1.426   3.405   2.468  0.00  0.00    +0.046 A 
BRANCH  27  34
ATOM     33  C   UNL     1      -0.013   1.086   0.008  0.00  0.00    +0.277 C 
ATOM     34  O   UNL     1      -0.682   1.547   1.184  0.00  0.00    -0.495 OA
ENDBRANCH  27  34
ENDBRANCH   1  30
TORSDOF 6
