REMARK  Name = ZINC06019057
REMARK  6 active torsions:
REMARK  status: ('A' for Active; 'I' for Inactive)
REMARK    1  A    between atoms: N_7  and  S_8
REMARK    2  A    between atoms: S_8  and  C_11
REMARK    3  A    between atoms: N_19  and  N_22
REMARK    4  A    between atoms: C_23  and  C_25
REMARK    5  A    between atoms: C_25  and  N_26
REMARK    6  A    between atoms: N_26  and  C_27
REMARK                            x       y       z     vdW  Elec       q    Type
REMARK                         _______ _______ _______ _____ _____    ______ ____
ROOT
ATOM      1  C   UNL     1       1.173   2.084   0.002  0.00  0.00    +0.113 A 
ATOM      2  C   UNL     1       2.386   1.408  -0.013  0.00  0.00    +0.031 A 
ATOM      3  C   UNL     1       2.426   0.032  -0.021  0.00  0.00    +0.030 A 
ATOM      4  C   UNL     1       1.234  -0.695  -0.013  0.00  0.00    +0.078 A 
ATOM      5  C   UNL     1       0.002  -0.004   0.002  0.00  0.00    +0.068 A 
ATOM      6  C   UNL     1      -0.017   1.389   0.010  0.00  0.00    +0.044 A 
ATOM      7  C   UNL     1      -1.235  -0.799   0.010  0.00  0.00    +0.279 A 
ATOM      8  O   UNL     1      -2.329  -0.266   0.024  0.00  0.00    -0.265 OA
ATOM      9  N   UNL     1      -1.110  -2.147   0.002  0.00  0.00    -0.212 N 
ATOM     10  C   UNL     1       0.119  -2.727  -0.013  0.00  0.00    +0.223 A 
ATOM     11  N   UNL     1       1.227  -2.051  -0.020  0.00  0.00    -0.235 NA
ENDROOT
BRANCH   9  12
ATOM     12  N   UNL     1      -2.257  -2.950   0.009  0.00  0.00    -0.218 N 
ATOM     13  C   UNL     1      -2.625  -3.590   1.137  0.00  0.00    +0.248 C 
ATOM     14  O   UNL     1      -1.962  -3.470   2.146  0.00  0.00    -0.272 OA
ATOM     15  H   UNL     1      -2.787  -3.046  -0.798  0.00  0.00    +0.176 HD
BRANCH  13  16
ATOM     16  C   UNL     1      -3.859  -4.455   1.145  0.00  0.00    +0.200 C 
BRANCH  16  17
ATOM     17  N   UNL     1      -4.041  -5.034   2.478  0.00  0.00    -0.322 N 
ATOM     18  H   UNL     1      -3.408  -4.833   3.185  0.00  0.00    +0.148 HD
BRANCH  17  19
ATOM     19  C   UNL     1      -5.120  -5.873   2.729  0.00  0.00    +0.096 A 
ATOM     20  C   UNL     1      -6.024  -6.159   1.711  0.00  0.00    +0.041 A 
ATOM     21  C   UNL     1      -7.093  -6.995   1.975  0.00  0.00    +0.005 A 
ATOM     22  C   UNL     1      -7.223  -7.521   3.254  0.00  0.00    +0.018 A 
ATOM     23  C   UNL     1      -6.289  -7.195   4.217  0.00  0.00    +0.084 A 
ATOM     24  N   UNL     1      -5.223  -6.382   3.991  0.00  0.00    -0.350 N 
ATOM     25  H   UNL     1      -4.539  -6.164   4.725  0.00  0.00    +0.166 HD
ENDBRANCH  17  19
ENDBRANCH  16  17
ENDBRANCH  13  16
ENDBRANCH   9  12
BRANCH   1  26
ATOM     26  S   UNL     1       1.155   3.846   0.012  0.00  0.00    +0.101 S 
ATOM     27  O   UNL     1       2.391   4.268  -0.549  0.00  0.00    -0.146 OA
ATOM     28  O   UNL     1      -0.100   4.242  -0.525  0.00  0.00    -0.146 OA
BRANCH  26  35
ATOM     29  C   UNL     1       1.125   7.898   1.195  0.00  0.00    +0.005 A 
ATOM     30  C   UNL     1       1.133   8.277   2.549  0.00  0.00    +0.018 A 
ATOM     31  C   UNL     1       1.152   7.340   3.520  0.00  0.00    +0.084 A 
ATOM     32  N   UNL     1       1.157   6.013   3.208  0.00  0.00    -0.345 N 
ATOM     33  H   UNL     1       1.167   5.351   3.917  0.00  0.00    +0.167 HD
ATOM     34  C   UNL     1       1.155   5.610   1.895  0.00  0.00    +0.153 A 
ATOM     35  N   UNL     1       1.165   4.327   1.596  0.00  0.00    -0.111 NA
ATOM     36  C   UNL     1       1.135   6.580   0.866  0.00  0.00    +0.048 A 
ENDBRANCH  26  35
ENDBRANCH   1  26
TORSDOF 6
