REMARK  Name = ZINC09608125
REMARK  8 active torsions:
REMARK  status: ('A' for Active; 'I' for Inactive)
REMARK    1  A    between atoms: C_1  and  C_2
REMARK    2  A    between atoms: C_7  and  N_12
REMARK    3  A    between atoms: C_9  and  C_11
REMARK    4  A    between atoms: C_13  and  C_15
REMARK    5  A    between atoms: C_18  and  C_21
REMARK    6  A    between atoms: C_21  and  N_22
REMARK    7  A    between atoms: N_22  and  S_23
REMARK    8  A    between atoms: S_23  and  C_26
REMARK                            x       y       z     vdW  Elec       q    Type
REMARK                         _______ _______ _______ _____ _____    ______ ____
ROOT
ATOM      1  C   UNL     1       5.377   7.021   4.050  0.00  0.00    +0.075 C 
ATOM      2  C   UNL     1       5.468   5.546   4.444  0.00  0.00    +0.013 C 
ATOM      3  C   UNL     1       5.025   4.675   3.267  0.00  0.00    +0.005 C 
ATOM      4  C   UNL     1       3.580   5.015   2.897  0.00  0.00    +0.005 C 
ATOM      5  C   UNL     1       3.488   6.491   2.503  0.00  0.00    +0.005 C 
ATOM      6  C   UNL     1       3.932   7.362   3.680  0.00  0.00    +0.013 C 
ENDROOT
BRANCH   1   8
ATOM      7  N   UNL     1       6.354   8.521   2.343  0.00  0.00    -0.312 N 
ATOM      8  C   UNL     1       6.273   7.282   2.867  0.00  0.00    +0.216 C 
ATOM      9  O   UNL     1       6.921   6.377   2.386  0.00  0.00    -0.276 OA
ATOM     10  H   UNL     1       5.836   9.245   2.728  0.00  0.00    +0.149 HD
BRANCH   7  16
ATOM     11  C   UNL     1       6.786  12.597   1.052  0.00  0.00    +0.008 C 
ATOM     12  C   UNL     1       6.379  11.122   1.069  0.00  0.00    -0.009 C 
ATOM     13  C   UNL     1       5.631  10.784  -0.222  0.00  0.00    +0.003 C 
ATOM     14  C   UNL     1       5.224   9.309  -0.204  0.00  0.00    +0.002 C 
ATOM     15  C   UNL     1       6.477   8.437  -0.098  0.00  0.00    +0.022 C 
ATOM     16  C   UNL     1       7.225   8.774   1.193  0.00  0.00    +0.076 C 
ATOM     17  C   UNL     1       7.632  10.249   1.176  0.00  0.00    +0.009 C 
ATOM     18  C   UNL     1       8.380  10.587   2.467  0.00  0.00    +0.009 C 
ENDBRANCH   7  16
ENDBRANCH   1   8
BRANCH   4  19
ATOM     19  C   UNL     1       3.136   4.145   1.720  0.00  0.00    +0.109 C 
BRANCH  19  20
ATOM     20  N   UNL     1       1.718   4.385   1.442  0.00  0.00    -0.190 NA
ATOM     21  H   UNL     1       1.166   4.841   2.096  0.00  0.00    +0.148 HD
BRANCH  20  22
ATOM     22  S   UNL     1       1.056   3.875   0.012  0.00  0.00    +0.061 S 
ATOM     23  O   UNL     1       1.925   4.323  -1.019  0.00  0.00    -0.153 OA
ATOM     24  O   UNL     1      -0.320   4.226   0.054  0.00  0.00    -0.153 OA
BRANCH  22  25
ATOM     25  C   UNL     1       1.128   2.115   0.003  0.00  0.00    +0.133 A 
ATOM     26  C   UNL     1      -0.017   1.391   0.010  0.00  0.00    +0.031 A 
ATOM     27  C   UNL     1       0.002  -0.004   0.002  0.00  0.00    +0.004 A 
ATOM     28  C   UNL     1       1.166  -0.697  -0.013  0.00  0.00    +0.031 A 
ATOM     29  C   UNL     1       2.404  -0.004  -0.021  0.00  0.00    +0.102 A 
ATOM     30  C   UNL     1       2.385   1.456  -0.013  0.00  0.00    +0.126 A 
ATOM     31  N   UNL     1       3.612   1.973  -0.022  0.00  0.00    -0.189 NA
ATOM     32  S   UNL     1       4.599   0.756  -0.039  0.00  0.00    +0.117 S 
ATOM     33  N   UNL     1       3.645  -0.487  -0.036  0.00  0.00    -0.191 NA
ENDBRANCH  22  25
ENDBRANCH  20  22
ENDBRANCH  19  20
ENDBRANCH   4  19
TORSDOF 6
