REMARK  Name = ZINC14968085
REMARK  10 active torsions:
REMARK  status: ('A' for Active; 'I' for Inactive)
REMARK    1  A    between atoms: C_1  and  O_2
REMARK    2  A    between atoms: O_2  and  C_3
REMARK    3  A    between atoms: C_7  and  C_10
REMARK    4  A    between atoms: C_8  and  O_9
REMARK    5  A    between atoms: C_10  and  N_63
REMARK    6  A    between atoms: C_13  and  C_16
REMARK    7  A    between atoms: C_13  and  O_34
REMARK    8  A    between atoms: C_23  and  C_25
REMARK    9  A    between atoms: N_27  and  C_28
REMARK   10  A    between atoms: C_28  and  C_29
REMARK                            x       y       z     vdW  Elec       q    Type
REMARK                         _______ _______ _______ _____ _____    ______ ____
ROOT
ATOM      1  C   UNL     1       2.512   3.691  -1.942  0.00  0.00    -0.075 C 
ATOM      2  C   UNL     1       2.530   4.120  -3.410  0.00  0.00    +0.021 C 
ATOM      3  C   UNL     1       2.381   5.641  -3.494  0.00  0.00    +0.088 C 
ATOM      4  C   UNL     1       1.081   6.058  -2.800  0.00  0.00    +0.021 C 
ATOM      5  C   UNL     1       1.105   5.573  -1.349  0.00  0.00    -0.075 C 
ATOM      6  N   UNL     1       1.226   4.099  -1.338  0.00  0.00    +0.383 N 
ATOM      7  H   UNL     1       0.457   3.698  -1.888  0.00  0.00    -0.081 HD
ENDROOT
BRANCH   3   8
ATOM      8  C   UNL     1       2.338   6.064  -4.940  0.00  0.00    -0.015 A 
ATOM      9  C   UNL     1       1.119   6.134  -5.602  0.00  0.00    +0.010 A 
ATOM     10  C   UNL     1       1.057   6.518  -6.924  0.00  0.00    +0.047 A 
ATOM     11  C   UNL     1       2.224   6.840  -7.607  0.00  0.00    +0.136 A 
ATOM     12  C   UNL     1       3.456   6.768  -6.931  0.00  0.00    +0.021 A 
ATOM     13  C   UNL     1       3.497   6.382  -5.589  0.00  0.00    +0.018 A 
ATOM     14  C   UNL     1       4.469   7.162  -7.910  0.00  0.00    +0.063 A 
ATOM     15  C   UNL     1       3.797   7.432  -9.059  0.00  0.00    +0.190 A 
ATOM     16  O   UNL     1       2.474   7.239  -8.869  0.00  0.00    -0.450 OA
BRANCH  15  17
ATOM     17  C   UNL     1       4.416   7.867 -10.319  0.00  0.00    +0.280 C 
ATOM     18  O   UNL     1       5.622   8.011 -10.386  0.00  0.00    -0.267 OA
ATOM     19  N   UNL     1       3.647   8.106 -11.400  0.00  0.00    -0.304 N 
ATOM     20  H   UNL     1       2.686   7.991 -11.346  0.00  0.00    +0.149 HD
BRANCH  19  21
ATOM     21  C   UNL     1       4.264   8.540 -12.655  0.00  0.00    +0.147 C 
BRANCH  21  22
ATOM     22  C   UNL     1       3.195   8.737 -13.699  0.00  0.00    +0.007 A 
ATOM     23  C   UNL     1       2.482   9.852 -13.990  0.00  0.00    +0.013 A 
ATOM     24  C   UNL     1       1.543   9.802 -15.003  0.00  0.00    +0.008 A 
ATOM     25  C   UNL     1       1.356   8.636 -15.669  0.00  0.00    +0.045 A 
ATOM     26  S   UNL     1       2.534   7.560 -14.867  0.00  0.00    -0.100 S 
ENDBRANCH  21  22
ENDBRANCH  19  21
ENDBRANCH  15  17
ENDBRANCH   3   8
BRANCH   3  27
ATOM     27  O   UNL     1       3.490   6.267  -2.846  0.00  0.00    -0.384 OA
ATOM     28  H   UNL     1       4.348   6.047  -3.235  0.00  0.00    +0.211 HD
ENDBRANCH   3  27
BRANCH   6  29
ATOM     29  C   UNL     1       1.136   3.596   0.049  0.00  0.00    -0.039 C 
BRANCH  29  34
ATOM     30  C   UNL     1      -0.555   0.238  -0.391  0.00  0.00    +0.161 A 
ATOM     31  C   UNL     1       0.474  -0.629  -0.063  0.00  0.00    +0.049 A 
ATOM     32  C   UNL     1       1.711  -0.128   0.299  0.00  0.00    +0.004 A 
ATOM     33  C   UNL     1       1.924   1.237   0.335  0.00  0.00    +0.005 A 
ATOM     34  C   UNL     1       0.901   2.108   0.008  0.00  0.00    -0.019 A 
ATOM     35  C   UNL     1      -0.341   1.613  -0.355  0.00  0.00    +0.160 A 
BRANCH  30  37
ATOM     36  C   UNL     1      -1.920  -1.674  -0.763  0.00  0.00    +0.277 C 
ATOM     37  O   UNL     1      -1.773  -0.252  -0.748  0.00  0.00    -0.491 OA
ENDBRANCH  30  37
BRANCH  35  38
ATOM     38  O   UNL     1      -1.348   2.468  -0.677  0.00  0.00    -0.503 OA
ATOM     39  H   UNL     1      -1.932   2.684   0.063  0.00  0.00    +0.292 HD
ENDBRANCH  35  38
ENDBRANCH  29  34
ENDBRANCH   6  29
TORSDOF 9
