REMARK  Name = ZINC35345262
REMARK  5 active torsions:
REMARK  status: ('A' for Active; 'I' for Inactive)
REMARK    1  A    between atoms: C_1  and  C_2
REMARK    2  A    between atoms: C_7  and  N_12
REMARK    3  A    between atoms: C_9  and  C_11
REMARK    4  A    between atoms: N_12  and  C_13
REMARK    5  A    between atoms: C_18  and  N_19
REMARK                            x       y       z     vdW  Elec       q    Type
REMARK                         _______ _______ _______ _____ _____    ______ ____
ROOT
ATOM      1  C   UNL     1       1.197  -3.802   2.926  0.00  0.00    +0.050 A 
ATOM      2  C   UNL     1       0.259  -4.606   2.301  0.00  0.00    +0.048 A 
ATOM      3  C   UNL     1      -0.019  -5.877   2.800  0.00  0.00    +0.039 A 
ATOM      4  C   UNL     1       0.656  -6.321   3.930  0.00  0.00    -0.016 A 
ATOM      5  C   UNL     1       1.591  -5.526   4.556  0.00  0.00    +0.030 A 
ATOM      6  C   UNL     1       1.872  -4.262   4.056  0.00  0.00    +0.046 A 
ATOM      7  C   UNL     1       0.139  -7.713   4.214  0.00  0.00    +0.133 C 
ATOM      8  C   UNL     1      -0.878  -7.959   3.121  0.00  0.00    +0.222 C 
ATOM      9  O   UNL     1      -1.542  -8.963   2.968  0.00  0.00    -0.275 OA
ATOM     10  N   UNL     1      -0.908  -6.857   2.353  0.00  0.00    -0.285 N 
ATOM     11  H   UNL     1      -1.481  -6.755   1.576  0.00  0.00    +0.155 HD
ENDROOT
BRANCH   6  12
ATOM     12  N   UNL     1       2.826  -3.451   4.687  0.00  0.00    -0.357 N 
ATOM     13  H   UNL     1       3.018  -2.567   4.337  0.00  0.00    +0.142 HD
ATOM     14  H   UNL     1       3.295  -3.773   5.472  0.00  0.00    +0.142 HD
ENDBRANCH   6  12
BRANCH   1  15
ATOM     15  N   UNL     1       1.471  -2.526   2.420  0.00  0.00    -0.339 N 
ATOM     16  H   UNL     1       2.131  -1.963   2.855  0.00  0.00    +0.146 HD
BRANCH  15  22
ATOM     17  C   UNL     1      -0.019   1.526   0.010  0.00  0.00    +0.008 C 
ATOM     18  C   UNL     1       0.002  -0.004   0.002  0.00  0.00    -0.009 C 
ATOM     19  C   UNL     1       0.718  -0.497  -1.257  0.00  0.00    +0.003 C 
ATOM     20  C   UNL     1       0.739  -2.027  -1.265  0.00  0.00    +0.002 C 
ATOM     21  C   UNL     1       1.479  -2.534  -0.026  0.00  0.00    +0.022 C 
ATOM     22  C   UNL     1       0.763  -2.041   1.233  0.00  0.00    +0.074 C 
ATOM     23  C   UNL     1       0.742  -0.511   1.242  0.00  0.00    +0.009 C 
ATOM     24  C   UNL     1       0.026  -0.018   2.500  0.00  0.00    +0.009 C 
ENDBRANCH  15  22
ENDBRANCH   1  15
TORSDOF 3
