REMARK  Name = ZINC63072933
REMARK  9 active torsions:
REMARK  status: ('A' for Active; 'I' for Inactive)
REMARK    1  A    between atoms: C_1  and  O_2
REMARK    2  A    between atoms: O_2  and  C_3
REMARK    3  A    between atoms: C_3  and  C_5
REMARK    4  A    between atoms: C_5  and  C_7
REMARK    5  A    between atoms: C_5  and  N_17
REMARK    6  A    between atoms: C_7  and  C_8
REMARK    7  A    between atoms: C_18  and  C_20
REMARK    8  A    between atoms: C_20  and  C_21
REMARK    9  A    between atoms: C_21  and  N_22
REMARK                            x       y       z     vdW  Elec       q    Type
REMARK                         _______ _______ _______ _____ _____    ______ ____
ROOT
ATOM      1  N   UNL     1       1.354  -2.503  -2.345  0.00  0.00    -0.302 N 
ATOM      2  C   UNL     1       2.700  -2.578  -2.362  0.00  0.00    +0.215 C 
ATOM      3  O   UNL     1       3.334  -2.315  -1.362  0.00  0.00    -0.276 OA
ATOM      4  H   UNL     1       0.847  -2.713  -3.145  0.00  0.00    +0.150 HD
ENDROOT
BRANCH   1   5
ATOM      5  C   UNL     1       0.657  -2.104  -1.120  0.00  0.00    +0.186 C 
BRANCH   5   6
ATOM      6  C   UNL     1       0.598  -0.600  -1.043  0.00  0.00    +0.328 C 
ATOM      7  O   UNL     1       1.088   0.070  -1.921  0.00  0.00    -0.249 OA
BRANCH   6   9
ATOM      8  C   UNL     1      -0.017   1.425   0.010  0.00  0.00    +0.280 C 
ATOM      9  O   UNL     1       0.002  -0.004   0.002  0.00  0.00    -0.467 OA
ENDBRANCH   6   9
ENDBRANCH   5   6
BRANCH   5  10
ATOM     10  C   UNL     1      -0.764  -2.670  -1.133  0.00  0.00    +0.067 C 
BRANCH  10  11
ATOM     11  C   UNL     1      -0.705  -4.175  -1.086  0.00  0.00    -0.039 C 
ATOM     12  C   UNL     1      -0.796  -4.958   0.013  0.00  0.00    -0.001 A 
ATOM     13  C   UNL     1      -0.970  -4.655   1.438  0.00  0.00    +0.010 A 
ATOM     14  C   UNL     1      -1.026  -5.676   2.324  0.00  0.00    +0.001 A 
ATOM     15  C   UNL     1      -0.923  -7.013   1.915  0.00  0.00    +0.002 A 
ATOM     16  C   UNL     1      -0.763  -7.370   0.623  0.00  0.00    +0.026 A 
ATOM     17  C   UNL     1      -0.691  -6.378  -0.393  0.00  0.00    +0.043 A 
ATOM     18  N   UNL     1      -0.540  -6.469  -1.692  0.00  0.00    -0.380 N 
ATOM     19  C   UNL     1      -0.539  -5.115  -2.259  0.00  0.00    +0.144 C 
ATOM     20  H   UNL     1      -0.449  -7.293  -2.195  0.00  0.00    +0.160 HD
ENDBRANCH  10  11
ENDBRANCH   5  10
ENDBRANCH   1   5
BRANCH   2  21
ATOM     21  C   UNL     1       3.416  -2.989  -3.622  0.00  0.00    +0.117 C 
BRANCH  21  22
ATOM     22  C   UNL     1       4.925  -2.994  -3.373  0.00  0.00    +0.136 C 
BRANCH  22  23
ATOM     23  N   UNL     1       5.622  -3.393  -4.598  0.00  0.00    -0.288 N 
ATOM     24  C   UNL     1       5.873  -4.701  -4.821  0.00  0.00    +0.262 A 
ATOM     25  O   UNL     1       5.528  -5.548  -4.019  0.00  0.00    -0.267 OA
ATOM     26  C   UNL     1       6.575  -5.076  -6.062  0.00  0.00    +0.063 A 
ATOM     27  C   UNL     1       6.870  -6.403  -6.365  0.00  0.00    +0.015 A 
ATOM     28  C   UNL     1       7.528  -6.702  -7.539  0.00  0.00    +0.001 A 
ATOM     29  C   UNL     1       7.896  -5.691  -8.414  0.00  0.00    +0.002 A 
ATOM     30  C   UNL     1       7.609  -4.372  -8.126  0.00  0.00    +0.026 A 
ATOM     31  C   UNL     1       6.947  -4.052  -6.950  0.00  0.00    +0.053 A 
ATOM     32  N   UNL     1       6.640  -2.740  -6.623  0.00  0.00    -0.335 N 
ATOM     33  H   UNL     1       6.891  -2.023  -7.227  0.00  0.00    +0.168 HD
ATOM     34  C   UNL     1       5.993  -2.452  -5.481  0.00  0.00    +0.161 A 
ATOM     35  S   UNL     1       5.634  -0.815  -5.132  0.00  0.00    -0.013 S 
ENDBRANCH  22  23
ENDBRANCH  21  22
ENDBRANCH   2  21
TORSDOF 8
