REMARK  Name = ZINC03297758
REMARK  4 active torsions:
REMARK  status: ('A' for Active; 'I' for Inactive)
REMARK    1  A    between atoms: C_3  and  C_21
REMARK    2  A    between atoms: C_5  and  C_11
REMARK    3  A    between atoms: C_14  and  O_17
REMARK    4  A    between atoms: O_17  and  C_18
REMARK                            x       y       z     vdW  Elec       q    Type
REMARK                         _______ _______ _______ _____ _____    ______ ____
ROOT
ATOM      1  C   UNL     1       2.576   1.494  -0.045  0.00  0.00    +0.029 C 
ATOM      2  C   UNL     1       1.304   1.774   0.168  0.00  0.00    +0.016 C 
ATOM      3  C   UNL     1       0.834   3.200   0.379  0.00  0.00    +0.143 C 
ATOM      4  C   UNL     1      -0.380   3.426  -0.532  0.00  0.00    +0.120 C 
ATOM      5  N   UNL     1      -1.335   2.334  -0.352  0.00  0.00    -0.318 N 
ATOM      6  C   UNL     1      -0.951   1.088  -0.044  0.00  0.00    +0.135 C 
ATOM      7  S   UNL     1      -2.138  -0.144   0.039  0.00  0.00    -0.019 S 
ATOM      8  N   UNL     1       0.332   0.769   0.209  0.00  0.00    -0.300 N 
ATOM      9  H   UNL     1      -2.280   2.517  -0.465  0.00  0.00    +0.148 HD
ATOM     10  H   UNL     1       0.580  -0.146   0.413  0.00  0.00    +0.154 HD
ENDROOT
BRANCH   3  11
ATOM     11  C   UNL     1       1.935   4.161   0.013  0.00  0.00    +0.226 C 
ATOM     12  O   UNL     1       2.579   3.988  -1.000  0.00  0.00    -0.275 OA
ATOM     13  N   UNL     1       2.204   5.213   0.811  0.00  0.00    -0.297 N 
ATOM     14  C   UNL     1       1.512   5.383   2.099  0.00  0.00    +0.136 C 
ATOM     15  C   UNL     1       2.574   5.623   3.184  0.00  0.00    +0.179 C 
ATOM     16  O   UNL     1       3.428   6.694   2.777  0.00  0.00    -0.377 OA
ATOM     17  C   UNL     1       4.169   6.430   1.583  0.00  0.00    +0.179 C 
ATOM     18  C   UNL     1       3.193   6.229   0.418  0.00  0.00    +0.136 C 
ENDBRANCH   3  11
BRANCH   4  19
ATOM     19  C   UNL     1       0.072   3.468  -1.969  0.00  0.00    -0.026 A 
ATOM     20  C   UNL     1       0.325   2.290  -2.648  0.00  0.00    +0.009 A 
ATOM     21  C   UNL     1       0.733   2.325  -3.967  0.00  0.00    +0.046 A 
ATOM     22  C   UNL     1       0.901   3.545  -4.607  0.00  0.00    +0.127 A 
ATOM     23  C   UNL     1       0.652   4.725  -3.923  0.00  0.00    +0.046 A 
ATOM     24  C   UNL     1       0.238   4.684  -2.605  0.00  0.00    +0.009 A 
BRANCH  22  25
ATOM     25  O   UNL     1       1.309   3.582  -5.903  0.00  0.00    -0.434 OA
BRANCH  25  26
ATOM     26  C   UNL     1       1.547   2.328  -6.545  0.00  0.00    +0.541 C 
ATOM     27  F   UNL     1       2.547   1.633  -5.856  0.00  0.00    -0.166 F 
ATOM     28  F   UNL     1       0.369   1.573  -6.544  0.00  0.00    -0.166 F 
ENDBRANCH  25  26
ENDBRANCH  22  25
ENDBRANCH   4  19
TORSDOF 4
