REMARK  Name = ZINC28353939
REMARK  3 active torsions:
REMARK  status: ('A' for Active; 'I' for Inactive)
REMARK    1  A    between atoms: C_6  and  C_7
REMARK    2  A    between atoms: C_11  and  C_14
REMARK    3  A    between atoms: N_17  and  C_18
REMARK                            x       y       z     vdW  Elec       q    Type
REMARK                         _______ _______ _______ _____ _____    ______ ____
ROOT
ATOM      1  C   UNL     1       6.976  -4.294  -1.119  0.00  0.00    +0.017 A 
ATOM      2  C   UNL     1       5.801  -4.931  -0.874  0.00  0.00    +0.027 A 
ATOM      3  C   UNL     1       4.649  -4.191  -0.555  0.00  0.00    +0.048 A 
ATOM      4  C   UNL     1       4.726  -2.778  -0.492  0.00  0.00    +0.023 A 
ATOM      5  C   UNL     1       5.940  -2.135  -0.746  0.00  0.00    +0.027 A 
ATOM      6  C   UNL     1       7.062  -2.892  -1.058  0.00  0.00    +0.064 A 
ATOM      7  C   UNL     1       3.560  -2.039  -0.170  0.00  0.00    +0.065 A 
ATOM      8  C   UNL     1       2.379  -2.756   0.079  0.00  0.00    +0.103 A 
ATOM      9  C   UNL     1       2.396  -4.157  -0.011  0.00  0.00    +0.100 A 
ATOM     10  N   UNL     1       3.487  -4.814  -0.311  0.00  0.00    -0.360 N 
ATOM     11  N   UNL     1       3.587  -0.665  -0.097  0.00  0.00    -0.354 N 
ATOM     12  H   UNL     1       3.430  -5.911  -0.361  0.00  0.00    +0.165 HD
ATOM     13  H   UNL     1       3.808  -0.169   0.860  0.00  0.00    +0.166 HD
ENDROOT
BRANCH  11  14
ATOM     14  C   UNL     1       3.333   0.101  -1.240  0.00  0.00    +0.043 A 
ATOM     15  C   UNL     1       2.946  -0.520  -2.421  0.00  0.00    +0.029 A 
ATOM     16  C   UNL     1       2.696   0.236  -3.549  0.00  0.00    +0.051 A 
ATOM     17  C   UNL     1       2.829   1.617  -3.507  0.00  0.00    +0.162 A 
ATOM     18  C   UNL     1       3.213   2.241  -2.326  0.00  0.00    +0.164 A 
ATOM     19  C   UNL     1       3.466   1.482  -1.194  0.00  0.00    +0.075 A 
ATOM     20  O   UNL     1       3.341   3.595  -2.263  0.00  0.00    -0.485 OA
ATOM     21  C   UNL     1       3.443   4.290  -3.510  0.00  0.00    +0.270 C 
ATOM     22  C   UNL     1       2.361   3.748  -4.454  0.00  0.00    +0.270 C 
ATOM     23  O   UNL     1       2.586   2.345  -4.632  0.00  0.00    -0.485 OA
ENDBRANCH  11  14
BRANCH   6  24
ATOM     24  C   UNL     1       8.348  -2.223  -1.328  0.00  0.00    +0.387 C 
ATOM     25  O   UNL     1       8.450  -1.021  -1.183  0.00  0.00    -0.241 OA
ATOM     26  O   UNL     1       9.411  -2.945  -1.736  0.00  0.00    -0.241 OA
ENDBRANCH   6  24
BRANCH   8  27
ATOM     27  C   UNL     1       1.137  -2.048   0.424  0.00  0.00    +0.390 C 
ATOM     28  O   UNL     1       1.152  -0.846   0.601  0.00  0.00    -0.240 OA
ATOM     29  O   UNL     1      -0.018  -2.733   0.545  0.00  0.00    -0.240 OA
ENDBRANCH   8  27
TORSDOF 3
