REMARK  Name = ZINC04450967
REMARK  9 active torsions:
REMARK  status: ('A' for Active; 'I' for Inactive)
REMARK    1  A    between atoms: C_1  and  C_2
REMARK    2  A    between atoms: C_2  and  N_3
REMARK    3  A    between atoms: C_5  and  C_12
REMARK    4  A    between atoms: C_12  and  C_13
REMARK    5  A    between atoms: C_12  and  C_21
REMARK    6  A    between atoms: C_14  and  C_20
REMARK    7  A    between atoms: C_18  and  O_19
REMARK    8  A    between atoms: C_22  and  C_28
REMARK    9  A    between atoms: C_26  and  O_27
REMARK                            x       y       z     vdW  Elec       q    Type
REMARK                         _______ _______ _______ _____ _____    ______ ____
ROOT
ATOM      1  C   UNL     1       0.731  -1.674  -4.678  0.00  0.00    +0.095 C 
ENDROOT
BRANCH   1   4
ATOM      2  N   UNL     1       1.332   0.031  -1.470  0.00  0.00    -0.347 N 
ATOM      3  C   UNL     1       0.514  -0.457  -2.453  0.00  0.00    +0.091 A 
ATOM      4  C   UNL     1       1.251  -1.022  -3.422  0.00  0.00    -0.010 A 
ATOM      5  C   UNL     1       2.655  -0.884  -3.029  0.00  0.00    +0.004 A 
ATOM      6  C   UNL     1       2.648  -0.209  -1.794  0.00  0.00    +0.049 A 
ATOM      7  C   UNL     1       3.856   0.073  -1.165  0.00  0.00    +0.026 A 
ATOM      8  C   UNL     1       5.041  -0.306  -1.758  0.00  0.00    +0.002 A 
ATOM      9  C   UNL     1       5.042  -0.969  -2.977  0.00  0.00    +0.001 A 
ATOM     10  C   UNL     1       3.867  -1.264  -3.608  0.00  0.00    +0.010 A 
BRANCH   2  12
ATOM     11  C   UNL     1       0.896   2.226  -0.483  0.00  0.00    +0.027 C 
ATOM     12  C   UNL     1       0.875   0.713  -0.256  0.00  0.00    +0.118 C 
ENDBRANCH   2  12
ENDBRANCH   1   4
BRANCH   1  13
ATOM     13  C   UNL     1      -0.045  -2.913  -4.316  0.00  0.00    +0.048 A 
ATOM     14  C   UNL     1       0.310  -4.229  -4.632  0.00  0.00    +0.068 A 
ATOM     15  N   UNL     1      -0.607  -5.028  -4.150  0.00  0.00    -0.176 NA
ATOM     16  N   UNL     1      -1.579  -4.249  -3.510  0.00  0.00    -0.247 N 
ATOM     17  H   UNL     1      -2.373  -4.581  -3.063  0.00  0.00    +0.192 HD
ATOM     18  C   UNL     1      -1.212  -2.953  -3.619  0.00  0.00    +0.213 A 
ATOM     19  C   UNL     1       1.537  -4.652  -5.397  0.00  0.00    +0.068 C 
BRANCH  18  20
ATOM     20  O   UNL     1      -1.886  -1.884  -3.124  0.00  0.00    -0.492 OA
ATOM     21  H   UNL     1      -2.483  -1.466  -3.761  0.00  0.00    +0.294 HD
ENDBRANCH  18  20
ENDBRANCH   1  13
BRANCH   1  22
ATOM     22  C   UNL     1      -0.171  -0.712  -5.407  0.00  0.00    +0.048 A 
ATOM     23  C   UNL     1      -1.140  -1.043  -6.291  0.00  0.00    +0.041 A 
ATOM     24  N   UNL     1      -1.717   0.100  -6.719  0.00  0.00    -0.278 N 
ATOM     25  N   UNL     1      -1.083   1.172  -6.078  0.00  0.00    -0.136 NA
ATOM     26  H   UNL     1      -2.443   0.167  -7.358  0.00  0.00    +0.189 HD
ATOM     27  C   UNL     1      -0.158   0.686  -5.286  0.00  0.00    +0.236 A 
ATOM     28  C   UNL     1      -1.509  -2.439  -6.721  0.00  0.00    +0.065 C 
BRANCH  27  29
ATOM     29  O   UNL     1       0.672   1.411  -4.489  0.00  0.00    -0.491 OA
ATOM     30  H   UNL     1       1.464   1.737  -4.938  0.00  0.00    +0.294 HD
ENDBRANCH  27  29
ENDBRANCH   1  22
TORSDOF 6
