REMARK  Name = ZINC14884285
REMARK  9 active torsions:
REMARK  status: ('A' for Active; 'I' for Inactive)
REMARK    1  A    between atoms: C_1  and  C_2
REMARK    2  A    between atoms: C_2  and  C_3
REMARK    3  A    between atoms: C_3  and  C_18
REMARK    4  A    between atoms: N_6  and  C_10
REMARK    5  A    between atoms: C_10  and  C_11
REMARK    6  A    between atoms: C_11  and  C_12
REMARK    7  A    between atoms: C_13  and  C_17
REMARK    8  A    between atoms: C_23  and  C_24
REMARK    9  A    between atoms: C_23  and  N_66
REMARK                            x       y       z     vdW  Elec       q    Type
REMARK                         _______ _______ _______ _____ _____    ______ ____
ROOT
ATOM      1  C   UNL     1       1.501   2.327  -0.042  0.00  0.00    +0.115 C 
ATOM      2  C   UNL     1       0.322   1.382  -0.161  0.00  0.00    +0.247 C 
ATOM      3  O   UNL     1       0.357   0.171  -0.218  0.00  0.00    -0.273 OA
ATOM      4  N   UNL     1      -0.772   2.167  -0.195  0.00  0.00    -0.224 N 
ATOM      5  C   UNL     1      -0.453   3.463  -0.106  0.00  0.00    +0.309 C 
ATOM      6  O   UNL     1      -1.270   4.363  -0.113  0.00  0.00    -0.252 OA
ATOM      7  N   UNL     1       0.875   3.660  -0.015  0.00  0.00    -0.285 N 
ATOM      8  H   UNL     1       1.331   4.514   0.054  0.00  0.00    +0.151 HD
ENDROOT
BRANCH   1   9
ATOM      9  C   UNL     1       2.271   2.068   1.255  0.00  0.00    +0.018 C 
ATOM     10  C   UNL     1       2.906   0.676   1.203  0.00  0.00    -0.013 C 
ATOM     11  C   UNL     1       3.622   0.398   2.527  0.00  0.00    -0.078 C 
ATOM     12  C   UNL     1       2.072   1.820   3.731  0.00  0.00    -0.078 C 
ATOM     13  C   UNL     1       1.309   2.140   2.444  0.00  0.00    -0.013 C 
ATOM     14  N   UNL     1       2.636   0.457   3.628  0.00  0.00    +0.382 N 
ATOM     15  H   UNL     1       1.876  -0.204   3.431  0.00  0.00    -0.081 HD
BRANCH  14  16
ATOM     16  C   UNL     1       3.282   0.081   4.903  0.00  0.00    -0.042 C 
BRANCH  16  17
ATOM     17  C   UNL     1       3.947  -1.261   4.739  0.00  0.00    -0.056 A 
ATOM     18  C   UNL     1       5.303  -1.347   4.661  0.00  0.00    +0.002 A 
ATOM     19  C   UNL     1       5.937  -2.580   4.516  0.00  0.00    +0.001 A 
ATOM     20  C   UNL     1       5.217  -3.732   4.435  0.00  0.00    +0.008 A 
ATOM     21  C   UNL     1       3.815  -3.683   4.505  0.00  0.00    -0.018 A 
ATOM     22  C   UNL     1       3.171  -2.429   4.660  0.00  0.00    -0.017 A 
ATOM     23  C   UNL     1       1.768  -2.380   4.729  0.00  0.00    +0.009 A 
ATOM     24  C   UNL     1       1.048  -3.532   4.648  0.00  0.00    +0.001 A 
ATOM     25  C   UNL     1       1.682  -4.764   4.496  0.00  0.00    +0.001 A 
ATOM     26  C   UNL     1       3.038  -4.851   4.425  0.00  0.00    +0.008 A 
ENDBRANCH  16  17
ENDBRANCH  14  16
ENDBRANCH   1   9
BRANCH   1  28
ATOM     27  C   UNL     1       1.683   2.623  -2.516  0.00  0.00    +0.006 C 
ATOM     28  C   UNL     1       2.427   2.188  -1.252  0.00  0.00    +0.032 C 
ENDBRANCH   1  28
BRANCH   4  29
ATOM     29  C   UNL     1      -2.143   1.664  -0.311  0.00  0.00    +0.123 C 
BRANCH  29  30
ATOM     30  C   UNL     1      -2.716   1.417   1.086  0.00  0.00    +0.064 C 
BRANCH  30  31
ATOM     31  C   UNL     1      -4.126   0.899   0.966  0.00  0.00    +0.014 A 
ATOM     32  C   UNL     1      -4.576  -0.378   0.873  0.00  0.00    +0.049 A 
ATOM     33  N   UNL     1      -5.873  -0.580   0.776  0.00  0.00    -0.252 NA
ATOM     34  C   UNL     1      -6.723   0.421   0.769  0.00  0.00    +0.156 A 
ATOM     35  S   UNL     1      -5.671   1.796   0.915  0.00  0.00    -0.080 S 
ATOM     36  C   UNL     1      -3.614  -1.538   0.880  0.00  0.00    +0.066 C 
ENDBRANCH  30  31
ENDBRANCH  29  30
ENDBRANCH   4  29
TORSDOF 7
