REMARK  Name = ZINC22449725
REMARK  4 active torsions:
REMARK  status: ('A' for Active; 'I' for Inactive)
REMARK    1  A    between atoms: C_1  and  C_2
REMARK    2  A    between atoms: C_15  and  C_17
REMARK    3  A    between atoms: C_17  and  S_18
REMARK    4  A    between atoms: S_18  and  C_19
REMARK                            x       y       z     vdW  Elec       q    Type
REMARK                         _______ _______ _______ _____ _____    ______ ____
ROOT
ATOM      1  C   UNL     1       5.542  -2.405   2.614  0.00  0.00    +0.009 C 
ATOM      2  C   UNL     1       5.251  -1.754   1.261  0.00  0.00    +0.003 C 
ATOM      3  C   UNL     1       5.352  -2.808   0.154  0.00  0.00    +0.006 C 
ATOM      4  C   UNL     1       5.000  -2.162  -1.188  0.00  0.00    +0.019 C 
ATOM      5  C   UNL     1       3.595  -1.561  -1.108  0.00  0.00    +0.108 C 
ATOM      6  N   UNL     1       3.550  -0.559  -0.035  0.00  0.00    -0.301 N 
ATOM      7  C   UNL     1       3.838  -1.165   1.271  0.00  0.00    +0.111 C 
ATOM      8  C   UNL     1       2.345   0.090  -0.020  0.00  0.00    +0.198 A 
ATOM      9  N   UNL     1       1.195  -0.637  -0.013  0.00  0.00    -0.295 N 
ATOM     10  H   UNL     1       1.238  -1.736  -0.019  0.00  0.00    +0.172 HD
ATOM     11  C   UNL     1       0.002  -0.004   0.002  0.00  0.00    +0.253 A 
ATOM     12  O   UNL     1      -1.039  -0.640   0.008  0.00  0.00    -0.268 OA
ATOM     13  C   UNL     1      -0.017   1.402   0.010  0.00  0.00    +0.094 A 
ATOM     14  C   UNL     1       1.169   2.078   0.002  0.00  0.00    +0.060 A 
ATOM     15  N   UNL     1       2.319   1.408  -0.013  0.00  0.00    -0.220 NA
ENDROOT
BRANCH  14  16
ATOM     16  C   UNL     1       1.176   3.584   0.010  0.00  0.00    +0.130 C 
BRANCH  16  17
ATOM     17  S   UNL     1       1.637   4.178   1.661  0.00  0.00    -0.119 S 
BRANCH  17  18
ATOM     18  C   UNL     1       1.600   5.933   1.508  0.00  0.00    +0.008 A 
ATOM     19  C   UNL     1       1.270   6.520   0.293  0.00  0.00    +0.016 A 
ATOM     20  C   UNL     1       1.238   7.895   0.177  0.00  0.00    +0.021 A 
ATOM     21  C   UNL     1       1.544   8.690   1.268  0.00  0.00    +0.041 A 
ATOM     22  C   UNL     1       1.878   8.109   2.479  0.00  0.00    +0.021 A 
ATOM     23  C   UNL     1       1.907   6.734   2.602  0.00  0.00    +0.016 A 
ATOM     24 CL   UNL     1       1.509  10.419   1.118  0.00  0.00    -0.084 Cl
ENDBRANCH  17  18
ENDBRANCH  16  17
ENDBRANCH  14  16
TORSDOF 3
