REMARK  Name = ZINC06950901
REMARK  12 active torsions:
REMARK  status: ('A' for Active; 'I' for Inactive)
REMARK    1  A    between atoms: C_1  and  C_2
REMARK    2  A    between atoms: C_2  and  C_3
REMARK    3  A    between atoms: C_2  and  C_4
REMARK    4  A    between atoms: C_2  and  C_5
REMARK    5  A    between atoms: C_8  and  O_11
REMARK    6  A    between atoms: O_11  and  C_12
REMARK    7  A    between atoms: C_12  and  C_13
REMARK    8  A    between atoms: N_15  and  N_16
REMARK    9  A    between atoms: C_17  and  C_18
REMARK   10  A    between atoms: C_19  and  O_26
REMARK   11  A    between atoms: C_21  and  O_25
REMARK   12  A    between atoms: C_23  and  O_24
REMARK                            x       y       z     vdW  Elec       q    Type
REMARK                         _______ _______ _______ _____ _____    ______ ____
ROOT
ATOM      1  C   UNL     1       4.536  -2.000  -6.087  0.00  0.00    +0.270 C 
ATOM      2  O   UNL     1       3.822  -2.685  -6.788  0.00  0.00    -0.270 OA
ATOM      3  N   UNL     1       5.809  -1.755  -6.457  0.00  0.00    -0.204 N 
ATOM      4  H   UNL     1       6.380  -1.207  -5.896  0.00  0.00    +0.177 HD
ENDROOT
BRANCH   3   5
ATOM      5  N   UNL     1       6.306  -2.291  -7.651  0.00  0.00    -0.187 NA
ATOM      6  C   UNL     1       7.533  -2.055  -8.008  0.00  0.00    +0.145 C 
BRANCH   6   7
ATOM      7  C   UNL     1       8.056  -2.618  -9.263  0.00  0.00    +0.078 A 
ATOM      8  C   UNL     1       7.231  -3.406 -10.079  0.00  0.00    +0.132 A 
ATOM      9  C   UNL     1       7.730  -3.932 -11.258  0.00  0.00    +0.091 A 
ATOM     10  C   UNL     1       9.043  -3.682 -11.633  0.00  0.00    +0.124 A 
ATOM     11  C   UNL     1       9.865  -2.903 -10.830  0.00  0.00    +0.091 A 
ATOM     12  C   UNL     1       9.379  -2.365  -9.651  0.00  0.00    +0.132 A 
BRANCH  12  13
ATOM     13  O   UNL     1      10.183  -1.599  -8.870  0.00  0.00    -0.506 OA
ATOM     14  H   UNL     1      10.682  -2.100  -8.209  0.00  0.00    +0.292 HD
ENDBRANCH  12  13
BRANCH  10  15
ATOM     15  O   UNL     1       9.526  -4.202 -12.791  0.00  0.00    -0.507 OA
ATOM     16  H   UNL     1       9.404  -3.629 -13.560  0.00  0.00    +0.292 HD
ENDBRANCH  10  15
BRANCH   8  17
ATOM     17  O   UNL     1       5.947  -3.652  -9.713  0.00  0.00    -0.506 OA
ATOM     18  H   UNL     1       5.313  -3.000 -10.041  0.00  0.00    +0.292 HD
ENDBRANCH   8  17
ENDBRANCH   6   7
ENDBRANCH   3   5
BRANCH   1  19
ATOM     19  C   UNL     1       4.000  -1.423  -4.801  0.00  0.00    +0.326 C 
BRANCH  19  20
ATOM     20  O   UNL     1       2.639  -1.822  -4.631  0.00  0.00    -0.483 OA
BRANCH  20  24
ATOM     21  C   UNL     1       0.707  -0.490  -1.238  0.00  0.00    -0.042 A 
ATOM     22  C   UNL     1       0.035  -1.284  -2.148  0.00  0.00    +0.008 A 
ATOM     23  C   UNL     1       0.679  -1.732  -3.285  0.00  0.00    +0.046 A 
ATOM     24  C   UNL     1       2.002  -1.383  -3.514  0.00  0.00    +0.121 A 
ATOM     25  C   UNL     1       2.675  -0.585  -2.599  0.00  0.00    +0.046 A 
ATOM     26  C   UNL     1       2.024  -0.136  -1.466  0.00  0.00    +0.008 A 
BRANCH  21  28
ATOM     27  C   UNL     1      -0.019   1.526   0.010  0.00  0.00    +0.015 C 
ATOM     28  C   UNL     1       0.002  -0.004   0.002  0.00  0.00    -0.013 C 
ATOM     29  C   UNL     1       0.742  -0.511   1.242  0.00  0.00    +0.015 C 
ATOM     30  C   UNL     1      -1.433  -0.534   0.013  0.00  0.00    +0.015 C 
ENDBRANCH  21  28
ENDBRANCH  20  24
ENDBRANCH  19  20
ENDBRANCH   1  19
TORSDOF 9
