REMARK  Name = ZINC01107809
REMARK  7 active torsions:
REMARK  status: ('A' for Active; 'I' for Inactive)
REMARK    1  A    between atoms: C_1  and  C_2
REMARK    2  A    between atoms: C_3  and  C_20
REMARK    3  A    between atoms: C_4  and  C_10
REMARK    4  A    between atoms: C_20  and  O_22
REMARK    5  A    between atoms: O_22  and  C_23
REMARK    6  A    between atoms: C_23  and  C_24
REMARK    7  A    between atoms: C_23  and  C_25
REMARK                            x       y       z     vdW  Elec       q    Type
REMARK                         _______ _______ _______ _____ _____    ______ ____
ROOT
ATOM      1  C   UNL     1      -3.717   5.214  -3.352  0.00  0.00    +0.061 C 
ATOM      2  C   UNL     1      -3.263   5.116  -1.918  0.00  0.00    +0.021 C 
ATOM      3  C   UNL     1      -3.083   3.900  -1.360  0.00  0.00    +0.078 C 
ATOM      4  C   UNL     1      -2.627   3.846   0.084  0.00  0.00    +0.145 C 
ATOM      5  N   UNL     1      -2.414   5.135   0.764  0.00  0.00    -0.288 N 
ATOM      6  C   UNL     1      -2.635   6.270   0.071  0.00  0.00    +0.304 C 
ATOM      7  O   UNL     1      -2.462   7.339   0.624  0.00  0.00    -0.252 OA
ATOM      8  N   UNL     1      -3.039   6.259  -1.205  0.00  0.00    -0.273 N 
ATOM      9  H   UNL     1      -2.122   5.166   1.688  0.00  0.00    +0.151 HD
ATOM     10  H   UNL     1      -3.180   7.110  -1.648  0.00  0.00    +0.156 HD
ENDROOT
BRANCH   4  11
ATOM     11  C   UNL     1      -1.333   3.075   0.134  0.00  0.00    -0.005 A 
ATOM     12  C   UNL     1      -0.127   3.745   0.049  0.00  0.00    +0.056 A 
ATOM     13  C   UNL     1       1.063   3.039   0.095  0.00  0.00    +0.167 A 
ATOM     14  C   UNL     1       1.042   1.652   0.226  0.00  0.00    +0.167 A 
ATOM     15  C   UNL     1      -0.170   0.987   0.310  0.00  0.00    +0.065 A 
ATOM     16  C   UNL     1      -1.355   1.698   0.258  0.00  0.00    +0.027 A 
ATOM     17 BR   UNL     1      -3.009   0.786   0.366  0.00  0.00    -0.050 Br
ATOM     18  O   UNL     1       2.328   1.196   0.246  0.00  0.00    -0.453 OA
ATOM     19  C   UNL     1       3.126   2.271  -0.284  0.00  0.00    +0.466 C 
ATOM     20  O   UNL     1       2.364   3.451   0.033  0.00  0.00    -0.453 OA
ENDBRANCH   4  11
BRANCH   3  21
ATOM     21  C   UNL     1      -3.314   2.716  -2.099  0.00  0.00    +0.339 C 
ATOM     22  O   UNL     1      -4.367   2.119  -1.978  0.00  0.00    -0.245 OA
BRANCH  21  23
ATOM     23  O   UNL     1      -2.365   2.248  -2.937  0.00  0.00    -0.459 OA
BRANCH  23  24
ATOM     24  C   UNL     1      -2.705   1.109  -3.729  0.00  0.00    +0.171 C 
ATOM     25  C   UNL     1      -3.422   1.566  -5.001  0.00  0.00    +0.052 C 
ATOM     26  C   UNL     1      -1.430   0.352  -4.107  0.00  0.00    +0.052 C 
ENDBRANCH  23  24
ENDBRANCH  21  23
ENDBRANCH   3  21
TORSDOF 4
