REMARK  Name = ZINC27603717
REMARK  10 active torsions:
REMARK  status: ('A' for Active; 'I' for Inactive)
REMARK    1  A    between atoms: C_1  and  C_2
REMARK    2  A    between atoms: C_2  and  C_26
REMARK    3  A    between atoms: N_5  and  C_9
REMARK    4  A    between atoms: C_9  and  C_10
REMARK    5  A    between atoms: N_12  and  C_13
REMARK    6  A    between atoms: C_13  and  C_14
REMARK    7  A    between atoms: C_14  and  C_16
REMARK    8  A    between atoms: C_14  and  N_21
REMARK    9  A    between atoms: C_29  and  O_32
REMARK   10  A    between atoms: O_32  and  C_33
REMARK                            x       y       z     vdW  Elec       q    Type
REMARK                         _______ _______ _______ _____ _____    ______ ____
ROOT
ATOM      1  C   UNL     1      -1.508   3.634  -3.236  0.00  0.00    +0.213 C 
ENDROOT
BRANCH   1   6
ATOM      2  C   UNL     1       0.458   2.350  -7.305  0.00  0.00    +0.047 C 
ATOM      3  C   UNL     1      -0.489   3.442  -6.802  0.00  0.00    +0.135 C 
ATOM      4  C   UNL     1      -1.291   2.947  -5.615  0.00  0.00    +0.251 C 
ATOM      5  O   UNL     1      -2.069   2.018  -5.594  0.00  0.00    -0.272 OA
ATOM      6  N   UNL     1      -0.960   3.755  -4.589  0.00  0.00    -0.215 N 
ATOM      7  C   UNL     1      -0.072   4.685  -4.960  0.00  0.00    +0.310 C 
ATOM      8  O   UNL     1       0.375   5.530  -4.209  0.00  0.00    -0.252 OA
ATOM      9  N   UNL     1       0.274   4.578  -6.255  0.00  0.00    -0.281 N 
ATOM     10  H   UNL     1       0.961   5.142  -6.903  0.00  0.00    +0.152 HD
BRANCH   3  11
ATOM     11  C   UNL     1      -1.405   3.901  -7.907  0.00  0.00    -0.015 A 
ATOM     12  C   UNL     1      -2.646   3.312  -8.065  0.00  0.00    +0.010 A 
ATOM     13  C   UNL     1      -3.489   3.735  -9.074  0.00  0.00    +0.046 A 
ATOM     14  C   UNL     1      -3.086   4.744  -9.936  0.00  0.00    +0.120 A 
ATOM     15  C   UNL     1      -1.839   5.330  -9.779  0.00  0.00    +0.046 A 
ATOM     16  C   UNL     1      -1.001   4.908  -8.765  0.00  0.00    +0.010 A 
BRANCH  14  17
ATOM     17  O   UNL     1      -3.912   5.158 -10.933  0.00  0.00    -0.495 OA
ATOM     18  C   UNL     1      -5.181   4.510 -11.035  0.00  0.00    +0.277 C 
ENDBRANCH  14  17
ENDBRANCH   3  11
ENDBRANCH   1   6
BRANCH   1  19
ATOM     19  C   UNL     1      -0.637   2.712  -2.421  0.00  0.00    +0.231 C 
ATOM     20  O   UNL     1       0.345   2.207  -2.922  0.00  0.00    -0.274 OA
ATOM     21  N   UNL     1      -0.949   2.450  -1.137  0.00  0.00    -0.315 N 
ATOM     22  H   UNL     1      -1.840   2.909  -0.683  0.00  0.00    +0.149 HD
BRANCH  21  23
ATOM     23  C   UNL     1      -0.102   1.554  -0.345  0.00  0.00    +0.094 C 
BRANCH  23  24
ATOM     24  C   UNL     1      -0.764   1.291   1.009  0.00  0.00    -0.013 C 
BRANCH  24  25
ATOM     25  N   UNL     1      -2.055   0.622   0.801  0.00  0.00    +0.386 N 
ATOM     26  C   UNL     1      -2.626   0.154   2.090  0.00  0.00    -0.078 C 
ATOM     27  C   UNL     1      -4.132  -0.019   1.769  0.00  0.00    -0.020 C 
ATOM     28  C   UNL     1      -4.422   1.167   0.820  0.00  0.00    -0.020 C 
ATOM     29  C   UNL     1      -3.052   1.557   0.235  0.00  0.00    -0.078 C 
ATOM     30  H   UNL     1      -1.853  -0.214   0.116  0.00  0.00    -0.081 HD
ENDBRANCH  24  25
BRANCH  24  31
ATOM     31  C   UNL     1       0.130   0.409   1.842  0.00  0.00    -0.022 A 
ATOM     32  C   UNL     1       0.895   0.737   2.912  0.00  0.00    +0.009 A 
ATOM     33  C   UNL     1       1.640  -0.249   3.530  0.00  0.00    +0.008 A 
ATOM     34  C   UNL     1       1.593  -1.512   3.042  0.00  0.00    +0.045 A 
ATOM     35  S   UNL     1       0.463  -1.336   1.671  0.00  0.00    -0.103 S 
ENDBRANCH  24  31
ENDBRANCH  23  24
ENDBRANCH  21  23
ENDBRANCH   1  19
TORSDOF 8
