REMARK  Name = ZINC09836740
REMARK  9 active torsions:
REMARK  status: ('A' for Active; 'I' for Inactive)
REMARK    1  A    between atoms: C_1  and  C_2
REMARK    2  A    between atoms: C_2  and  O_3
REMARK    3  A    between atoms: O_3  and  C_4
REMARK    4  A    between atoms: C_6  and  C_12
REMARK    5  A    between atoms: C_9  and  O_10
REMARK    6  A    between atoms: C_17  and  C_27
REMARK    7  A    between atoms: C_19  and  C_23
REMARK    8  A    between atoms: C_23  and  O_25
REMARK    9  A    between atoms: O_25  and  C_26
REMARK                            x       y       z     vdW  Elec       q    Type
REMARK                         _______ _______ _______ _____ _____    ______ ____
ROOT
ATOM      1  C   UNL     1      -0.228  -4.963  -0.530  0.00  0.00    +0.136 C 
ATOM      2  C   UNL     1      -1.520  -5.524   0.013  0.00  0.00    +0.037 C 
ATOM      3  C   UNL     1      -1.729  -6.795   0.395  0.00  0.00    +0.017 C 
ATOM      4  C   UNL     1      -3.078  -7.220   0.952  0.00  0.00    +0.055 C 
ATOM      5  C   UNL     1      -4.192  -6.411   0.291  0.00  0.00    +0.013 C 
ATOM      6  C   UNL     1      -3.935  -4.929   0.592  0.00  0.00    +0.171 C 
ATOM      7  C   UNL     1      -2.565  -4.573   0.099  0.00  0.00    +0.177 C 
ATOM      8  O   UNL     1      -2.343  -3.427  -0.238  0.00  0.00    -0.291 OA
ATOM      9  C   UNL     1      -4.177  -6.643  -1.221  0.00  0.00    +0.009 C 
ATOM     10  N   UNL     1      -0.804  -7.787   0.332  0.00  0.00    -0.316 N 
ATOM     11  C   UNL     1       0.510  -7.673   0.770  0.00  0.00    +0.052 A 
ATOM     12  C   UNL     1       1.005  -8.418   1.826  0.00  0.00    +0.025 A 
ATOM     13  C   UNL     1       2.337  -8.290   2.182  0.00  0.00    +0.002 A 
ATOM     14  C   UNL     1       3.165  -7.428   1.486  0.00  0.00    +0.002 A 
ATOM     15  C   UNL     1       2.667  -6.670   0.440  0.00  0.00    +0.025 A 
ATOM     16  C   UNL     1       1.330  -6.781   0.095  0.00  0.00    +0.049 A 
ATOM     17  N   UNL     1       0.759  -5.964  -0.875  0.00  0.00    -0.331 N 
ATOM     18  H   UNL     1      -1.081  -8.636  -0.045  0.00  0.00    +0.152 HD
ATOM     19  H   UNL     1       1.029  -6.068  -1.801  0.00  0.00    +0.147 HD
ENDROOT
BRANCH   1  22
ATOM     20  C   UNL     1       1.064  -1.849   1.177  0.00  0.00    +0.163 A 
ATOM     21  C   UNL     1       0.517  -2.697   0.226  0.00  0.00    +0.055 A 
ATOM     22  C   UNL     1       0.367  -4.043   0.504  0.00  0.00    -0.018 A 
ATOM     23  C   UNL     1       0.762  -4.547   1.730  0.00  0.00    +0.029 A 
ATOM     24  C   UNL     1       1.309  -3.706   2.683  0.00  0.00    +0.086 A 
ATOM     25  C   UNL     1       1.466  -2.357   2.408  0.00  0.00    +0.177 A 
ATOM     26 CL   UNL     1       1.804  -4.343   4.220  0.00  0.00    -0.080 Cl
BRANCH  25  27
ATOM     27  O   UNL     1       2.009  -1.529   3.341  0.00  0.00    -0.502 OA
ATOM     28  H   UNL     1       1.361  -1.133   3.939  0.00  0.00    +0.292 HD
ENDBRANCH  25  27
BRANCH  20  29
ATOM     29  O   UNL     1       1.212  -0.525   0.904  0.00  0.00    -0.489 OA
BRANCH  29  31
ATOM     30  C   UNL     1       1.027   1.430  -0.505  0.00  0.00    +0.048 C 
ATOM     31  C   UNL     1       0.783  -0.076  -0.383  0.00  0.00    +0.226 C 
ENDBRANCH  29  31
ENDBRANCH  20  29
ENDBRANCH   1  22
BRANCH   6  32
ATOM     32  C   UNL     1      -4.962  -4.081  -0.112  0.00  0.00    +0.318 C 
ATOM     33  O   UNL     1      -5.826  -4.604  -0.775  0.00  0.00    -0.250 OA
BRANCH  32  34
ATOM     34  O   UNL     1      -4.918  -2.744  -0.001  0.00  0.00    -0.467 OA
ATOM     35  C   UNL     1      -5.939  -1.990  -0.706  0.00  0.00    +0.280 C 
ENDBRANCH  32  34
ENDBRANCH   6  32
TORSDOF 6
