REMARK  Name = ZINC62100346
REMARK  8 active torsions:
REMARK  status: ('A' for Active; 'I' for Inactive)
REMARK    1  A    between atoms: C_1  and  C_2
REMARK    2  A    between atoms: C_2  and  C_3
REMARK    3  A    between atoms: C_2  and  C_4
REMARK    4  A    between atoms: C_4  and  C_5
REMARK    5  A    between atoms: C_5  and  C_6
REMARK    6  A    between atoms: C_6  and  N_7
REMARK    7  A    between atoms: N_7  and  C_8
REMARK    8  A    between atoms: C_13  and  N_14
REMARK                            x       y       z     vdW  Elec       q    Type
REMARK                         _______ _______ _______ _____ _____    ______ ____
ROOT
ATOM      1  C   UNL     1      -4.040  -4.763  -0.253  0.00  0.00    +0.048 A 
ATOM      2  C   UNL     1      -5.248  -4.091  -0.152  0.00  0.00    +0.030 A 
ATOM      3  C   UNL     1      -6.436  -4.796  -0.166  0.00  0.00    -0.024 A 
ATOM      4  C   UNL     1      -6.424  -6.180  -0.281  0.00  0.00    +0.038 A 
ATOM      5  C   UNL     1      -5.217  -6.858  -0.384  0.00  0.00    +0.048 A 
ATOM      6  C   UNL     1      -4.024  -6.152  -0.376  0.00  0.00    +0.047 A 
ATOM      7  N   UNL     1      -7.631  -6.890  -0.295  0.00  0.00    -0.285 N 
ATOM      8  C   UNL     1      -8.789  -6.261  -0.569  0.00  0.00    +0.218 C 
ATOM      9  O   UNL     1      -9.828  -6.888  -0.562  0.00  0.00    -0.275 OA
ATOM     10  C   UNL     1      -8.809  -4.790  -0.884  0.00  0.00    +0.101 C 
ATOM     11  C   UNL     1      -7.749  -4.065  -0.055  0.00  0.00    +0.046 C 
ATOM     12  H   UNL     1      -7.633  -7.841  -0.104  0.00  0.00    +0.155 HD
ENDROOT
BRANCH   6  13
ATOM     13  N   UNL     1      -2.806  -6.833  -0.484  0.00  0.00    -0.356 N 
ATOM     14  H   UNL     1      -1.971  -6.339  -0.474  0.00  0.00    +0.142 HD
ATOM     15  H   UNL     1      -2.796  -7.799  -0.569  0.00  0.00    +0.142 HD
ENDBRANCH   6  13
BRANCH   1  16
ATOM     16  N   UNL     1      -2.834  -4.046  -0.239  0.00  0.00    -0.342 N 
ATOM     17  H   UNL     1      -1.989  -4.517  -0.314  0.00  0.00    +0.146 HD
BRANCH  16  18
ATOM     18  C   UNL     1      -2.851  -2.587  -0.110  0.00  0.00    +0.101 C 
BRANCH  18  19
ATOM     19  C   UNL     1      -1.416  -2.058  -0.121  0.00  0.00    +0.019 C 
BRANCH  19  20
ATOM     20  C   UNL     1      -1.433  -0.534   0.013  0.00  0.00    +0.004 C 
BRANCH  20  22
ATOM     21  C   UNL     1      -0.019   1.526   0.010  0.00  0.00    +0.007 C 
ATOM     22  C   UNL     1       0.002  -0.004   0.002  0.00  0.00    -0.017 C 
ATOM     23  C   UNL     1       0.742  -0.511   1.242  0.00  0.00    +0.007 C 
ENDBRANCH  20  22
ENDBRANCH  19  20
ENDBRANCH  18  19
ENDBRANCH  16  18
ENDBRANCH   1  16
TORSDOF 6
