REMARK  Name = ZINC20855452
REMARK  9 active torsions:
REMARK  status: ('A' for Active; 'I' for Inactive)
REMARK    1  A    between atoms: C_1  and  C_2
REMARK    2  A    between atoms: C_3  and  C_9
REMARK    3  A    between atoms: C_4  and  C_8
REMARK    4  A    between atoms: C_9  and  N_10
REMARK    5  A    between atoms: N_10  and  C_11
REMARK    6  A    between atoms: N_10  and  C_12
REMARK    7  A    between atoms: C_12  and  C_13
REMARK    8  A    between atoms: C_18  and  C_19
REMARK    9  A    between atoms: C_22  and  C_25
REMARK                            x       y       z     vdW  Elec       q    Type
REMARK                         _______ _______ _______ _____ _____    ______ ____
ROOT
ATOM      1  C   UNL     1       0.889   1.958  -0.139  0.00  0.00    -0.019 A 
ATOM      2  C   UNL     1      -0.429   1.685  -0.252  0.00  0.00    +0.107 A 
ATOM      3  N   UNL     1      -0.575   0.342  -0.280  0.00  0.00    -0.284 N 
ATOM      4  H   UNL     1      -1.578  -0.100  -0.368  0.00  0.00    +0.188 HD
ATOM      5  N   UNL     1       0.697  -0.237  -0.181  0.00  0.00    -0.174 NA
ATOM      6  C   UNL     1       1.583   0.733  -0.096  0.00  0.00    +0.094 A 
ENDROOT
BRANCH   6   7
ATOM      7  C   UNL     1       3.052   0.565   0.024  0.00  0.00    +0.002 A 
ATOM      8  C   UNL     1       3.909   1.374  -0.722  0.00  0.00    +0.010 A 
ATOM      9  C   UNL     1       5.273   1.221  -0.607  0.00  0.00    +0.009 A 
ATOM     10  C   UNL     1       5.797   0.251   0.247  0.00  0.00    -0.018 A 
ATOM     11  C   UNL     1       4.939  -0.560   0.989  0.00  0.00    +0.009 A 
ATOM     12  C   UNL     1       3.575  -0.404   0.878  0.00  0.00    +0.010 A 
BRANCH  10  13
ATOM     13  C   UNL     1       7.266   0.084   0.367  0.00  0.00    -0.018 A 
ATOM     14  C   UNL     1       7.792  -0.881   1.225  0.00  0.00    +0.008 A 
ATOM     15  C   UNL     1       9.159  -1.035   1.329  0.00  0.00    +0.001 A 
ATOM     16  C   UNL     1      10.007  -0.229   0.592  0.00  0.00    +0.000 A 
ATOM     17  C   UNL     1       9.491   0.733  -0.257  0.00  0.00    +0.001 A 
ATOM     18  C   UNL     1       8.125   0.894  -0.373  0.00  0.00    +0.008 A 
ENDBRANCH  10  13
ENDBRANCH   6   7
BRANCH   1  19
ATOM     19  C   UNL     1       1.508   3.331  -0.072  0.00  0.00    -0.039 C 
BRANCH  19  20
ATOM     20  N   UNL     1       1.988   3.717  -1.406  0.00  0.00    +0.383 N 
ATOM     21  C   UNL     1       0.870   3.856  -2.348  0.00  0.00    -0.095 C 
ATOM     22  H   UNL     1       2.643   2.915  -1.775  0.00  0.00    -0.081 HD
BRANCH  20  23
ATOM     23  C   UNL     1       2.780   4.953  -1.343  0.00  0.00    -0.039 C 
BRANCH  23  26
ATOM     24  C   UNL     1       1.562   6.879  -3.486  0.00  0.00    +0.065 C 
ATOM     25  C   UNL     1       2.833   6.081  -3.629  0.00  0.00    +0.035 A 
ATOM     26  C   UNL     1       3.360   5.248  -2.702  0.00  0.00    -0.021 A 
ATOM     27  C   UNL     1       4.541   4.713  -3.226  0.00  0.00    +0.061 A 
ATOM     28  N   UNL     1       4.712   5.201  -4.428  0.00  0.00    -0.179 NA
ATOM     29  N   UNL     1       3.649   6.070  -4.704  0.00  0.00    -0.281 N 
ATOM     30  H   UNL     1       3.408   6.683  -5.584  0.00  0.00    +0.189 HD
ATOM     31  C   UNL     1       5.457   3.741  -2.528  0.00  0.00    +0.068 C 
ENDBRANCH  23  26
ENDBRANCH  20  23
ENDBRANCH  19  20
ENDBRANCH   1  19
TORSDOF 6
