REMARK  Name = ZINC15673526
REMARK  8 active torsions:
REMARK  status: ('A' for Active; 'I' for Inactive)
REMARK    1  A    between atoms: C_4  and  S_7
REMARK    2  A    between atoms: S_7  and  C_8
REMARK    3  A    between atoms: C_8  and  C_9
REMARK    4  A    between atoms: C_11  and  C_14
REMARK    5  A    between atoms: C_14  and  C_15
REMARK    6  A    between atoms: C_20  and  C_22
REMARK    7  A    between atoms: C_22  and  C_23
REMARK    8  A    between atoms: N_28  and  C_31
REMARK                            x       y       z     vdW  Elec       q    Type
REMARK                         _______ _______ _______ _____ _____    ______ ____
ROOT
ATOM      1  C   UNL     1      -2.393   1.703   5.436  0.00  0.00    -0.019 C 
ATOM      2  C   UNL     1      -1.876   3.127   5.651  0.00  0.00    -0.079 C 
ATOM      3  C   UNL     1      -3.977   3.800   6.654  0.00  0.00    -0.082 C 
ATOM      4  C   UNL     1      -4.556   2.396   6.469  0.00  0.00    -0.015 C 
ATOM      5  C   UNL     1      -3.421   1.369   6.521  0.00  0.00    -0.002 C 
ATOM      6  N   UNL     1      -3.000   4.080   5.583  0.00  0.00    +0.379 N 
ATOM      7  H   UNL     1      -3.463   3.993   4.671  0.00  0.00    -0.086 HD
ATOM      8  H   UNL     1      -2.641   5.036   5.695  0.00  0.00    -0.086 HD
ENDROOT
BRANCH   1   9
ATOM      9  C   UNL     1      -3.051   1.601   4.059  0.00  0.00    +0.061 C 
BRANCH   9  12
ATOM     10  C   UNL     1      -0.718   1.572   1.248  0.00  0.00    +0.148 A 
ATOM     11  C   UNL     1      -1.712   0.939   1.916  0.00  0.00    +0.071 A 
ATOM     12  C   UNL     1      -2.012   1.811   2.988  0.00  0.00    +0.084 A 
ATOM     13  N   UNL     1      -1.211   2.830   2.868  0.00  0.00    -0.083 NA
ATOM     14  O   UNL     1      -0.482   2.713   1.910  0.00  0.00    -0.359 OA
BRANCH  10  15
ATOM     15  C   UNL     1      -0.013   1.086   0.008  0.00  0.00    +0.151 C 
BRANCH  15  16
ATOM     16  S   UNL     1      -0.890   1.687  -1.462  0.00  0.00    -0.117 S 
BRANCH  16  20
ATOM     17  C   UNL     1       1.513   0.032  -4.926  0.00  0.00    +0.000 A 
ATOM     18  C   UNL     1       0.391   0.802  -5.170  0.00  0.00    +0.001 A 
ATOM     19  C   UNL     1      -0.344   1.308  -4.117  0.00  0.00    +0.015 A 
ATOM     20  C   UNL     1       0.045   1.043  -2.809  0.00  0.00    +0.008 A 
ATOM     21  C   UNL     1       1.176   0.273  -2.567  0.00  0.00    +0.015 A 
ATOM     22  C   UNL     1       1.903  -0.235  -3.626  0.00  0.00    +0.001 A 
ENDBRANCH  16  20
ENDBRANCH  15  16
ENDBRANCH  10  15
ENDBRANCH   9  12
ENDBRANCH   1   9
BRANCH   5  23
ATOM     23  C   UNL     1      -3.986  -0.032   6.276  0.00  0.00    +0.099 C 
BRANCH  23  24
ATOM     24  C   UNL     1      -4.904  -0.408   7.409  0.00  0.00    +0.216 C 
ATOM     25  O   UNL     1      -5.090   0.367   8.323  0.00  0.00    -0.276 OA
ATOM     26  N   UNL     1      -5.521  -1.607   7.407  0.00  0.00    -0.298 N 
ATOM     27  C   UNL     1      -5.315  -2.560   6.306  0.00  0.00    +0.126 C 
ATOM     28  C   UNL     1      -4.929  -3.919   6.910  0.00  0.00    +0.125 C 
ATOM     29  N   UNL     1      -5.944  -4.318   7.895  0.00  0.00    -0.314 N 
ATOM     30  C   UNL     1      -5.996  -3.374   9.019  0.00  0.00    +0.125 C 
ATOM     31  C   UNL     1      -6.421  -1.994   8.504  0.00  0.00    +0.126 C 
BRANCH  29  32
ATOM     32  C   UNL     1      -5.721  -5.614   8.343  0.00  0.00    +0.099 A 
ATOM     33  C   UNL     1      -5.638  -6.657   7.425  0.00  0.00    +0.042 A 
ATOM     34  C   UNL     1      -5.416  -7.942   7.886  0.00  0.00    +0.005 A 
ATOM     35  C   UNL     1      -5.283  -8.143   9.253  0.00  0.00    +0.018 A 
ATOM     36  C   UNL     1      -5.375  -7.062  10.107  0.00  0.00    +0.084 A 
ATOM     37  N   UNL     1      -5.587  -5.785   9.690  0.00  0.00    -0.350 N 
ATOM     38  H   UNL     1      -5.643  -4.999  10.348  0.00  0.00    +0.166 HD
ENDBRANCH  29  32
ENDBRANCH  23  24
ENDBRANCH   5  23
TORSDOF 8
