REMARK  Name = ZINC20412842
REMARK  7 active torsions:
REMARK  status: ('A' for Active; 'I' for Inactive)
REMARK    1  A    between atoms: C_1  and  C_2
REMARK    2  A    between atoms: C_7  and  C_42
REMARK    3  A    between atoms: C_18  and  C_20
REMARK    4  A    between atoms: C_20  and  N_21
REMARK    5  A    between atoms: N_24  and  C_27
REMARK    6  A    between atoms: C_27  and  C_29
REMARK    7  A    between atoms: C_27  and  C_35
REMARK                            x       y       z     vdW  Elec       q    Type
REMARK                         _______ _______ _______ _____ _____    ______ ____
ROOT
ATOM      1  N   UNL     1       1.080   5.019   4.412  0.00  0.00    +0.382 N 
ATOM      2  C   UNL     1       0.917   4.261   5.661  0.00  0.00    -0.063 C 
ATOM      3  C   UNL     1       2.038   4.636   6.632  0.00  0.00    +0.067 C 
ATOM      4  N   UNL     1       1.997   6.082   6.888  0.00  0.00    -0.295 NA
ATOM      5  C   UNL     1       2.160   6.840   5.640  0.00  0.00    +0.067 C 
ATOM      6  C   UNL     1       1.039   6.465   4.669  0.00  0.00    -0.063 C 
ATOM      7  H   UNL     1       2.068   4.776   3.994  0.00  0.00    -0.082 HD
ENDROOT
BRANCH   1   8
ATOM      8  C   UNL     1       0.065   4.630   3.424  0.00  0.00    -0.063 C 
BRANCH   8  23
ATOM      9  C   UNL     1      -0.669   6.360  -0.995  0.00  0.00    +0.012 C 
ATOM     10  C   UNL     1      -1.834   5.516  -0.473  0.00  0.00    +0.012 C 
ATOM     11  C   UNL     1      -2.834   5.268  -1.604  0.00  0.00    +0.007 C 
ATOM     12  C   UNL     1      -2.163   4.425  -2.691  0.00  0.00    +0.001 C 
ATOM     13  C   UNL     1      -1.824   3.046  -2.123  0.00  0.00    +0.011 C 
ATOM     14  C   UNL     1      -0.808   3.189  -0.986  0.00  0.00    -0.007 C 
ATOM     15  C   UNL     1      -1.311   4.180   0.024  0.00  0.00    -0.064 C 
ATOM     16  C   UNL     1      -1.301   3.965   1.302  0.00  0.00    -0.019 C 
ATOM     17  C   UNL     1      -0.787   2.729   1.976  0.00  0.00    +0.064 C 
ATOM     18  C   UNL     1       0.088   1.915   0.997  0.00  0.00    +0.185 C 
ATOM     19  C   UNL     1      -0.552   1.821  -0.368  0.00  0.00    +0.056 C 
ATOM     20  O   UNL     1       1.345   2.655   0.974  0.00  0.00    -0.461 OA
ATOM     21  C   UNL     1       1.603   3.052   2.238  0.00  0.00    +0.309 C 
ATOM     22  O   UNL     1       2.701   3.271   2.692  0.00  0.00    -0.251 OA
ATOM     23  C   UNL     1       0.297   3.179   2.998  0.00  0.00    +0.092 C 
ATOM     24  C   UNL     1       0.512   3.703  -1.566  0.00  0.00    +0.016 C 
ENDBRANCH   8  23
ENDBRANCH   1   8
BRANCH   4  25
ATOM     25  C   UNL     1       3.012   6.471   7.877  0.00  0.00    +0.117 C 
BRANCH  25  26
ATOM     26  C   UNL     1       2.729   7.868   8.366  0.00  0.00    -0.026 A 
ATOM     27  C   UNL     1       1.426   8.267   8.599  0.00  0.00    +0.007 A 
ATOM     28  C   UNL     1       1.165   9.546   9.053  0.00  0.00    +0.020 A 
ATOM     29  C   UNL     1       2.208  10.431   9.263  0.00  0.00    +0.041 A 
ATOM     30  C   UNL     1       3.511  10.033   9.024  0.00  0.00    +0.020 A 
ATOM     31  C   UNL     1       3.771   8.751   8.575  0.00  0.00    +0.007 A 
ATOM     32 CL   UNL     1       1.881  12.040   9.827  0.00  0.00    -0.084 Cl
ENDBRANCH  25  26
BRANCH  25  33
ATOM     33  C   UNL     1       2.973   5.514   9.040  0.00  0.00    -0.026 A 
ATOM     34  C   UNL     1       1.759   5.066   9.526  0.00  0.00    +0.005 A 
ATOM     35  C   UNL     1       1.724   4.183  10.590  0.00  0.00    +0.000 A 
ATOM     36  C   UNL     1       2.902   3.758  11.175  0.00  0.00    +0.000 A 
ATOM     37  C   UNL     1       4.115   4.211  10.692  0.00  0.00    +0.000 A 
ATOM     38  C   UNL     1       4.151   5.088   9.625  0.00  0.00    +0.005 A 
ENDBRANCH  25  33
ENDBRANCH   4  25
TORSDOF 5
