REMARK  Name = ZINC45560150
REMARK  9 active torsions:
REMARK  status: ('A' for Active; 'I' for Inactive)
REMARK    1  A    between atoms: C_1  and  C_2
REMARK    2  A    between atoms: C_2  and  C_4
REMARK    3  A    between atoms: C_2  and  N_15
REMARK    4  A    between atoms: C_7  and  N_10
REMARK    5  A    between atoms: N_15  and  C_16
REMARK    6  A    between atoms: N_15  and  C_17
REMARK    7  A    between atoms: C_17  and  C_18
REMARK    8  A    between atoms: C_21  and  C_35
REMARK    9  A    between atoms: C_24  and  C_26
REMARK                            x       y       z     vdW  Elec       q    Type
REMARK                         _______ _______ _______ _____ _____    ______ ____
ROOT
ATOM      1  C   UNL     1      -3.532  -0.445  -1.106  0.00  0.00    +0.219 C 
ATOM      2  O   UNL     1      -3.932  -1.085  -0.156  0.00  0.00    -0.276 OA
ATOM      3  N   UNL     1      -4.382  -0.107  -2.096  0.00  0.00    -0.184 N 
ATOM      4  C   UNL     1      -5.813  -0.445  -2.148  0.00  0.00    +0.173 C 
ATOM      5  C   UNL     1      -6.285   0.179  -3.477  0.00  0.00    +0.093 C 
ATOM      6  C   UNL     1      -5.037   0.817  -4.044  0.00  0.00    +0.104 C 
ATOM      7  N   UNL     1      -4.049   0.624  -3.235  0.00  0.00    -0.178 NA
ENDROOT
BRANCH   6   8
ATOM      8  C   UNL     1      -4.962   1.547  -5.313  0.00  0.00    +0.152 A 
ATOM      9  C   UNL     1      -3.837   2.116  -5.823  0.00  0.00    +0.059 A 
ATOM     10  C   UNL     1      -4.232   2.728  -7.092  0.00  0.00    +0.021 A 
ATOM     11  C   UNL     1      -3.555   3.450  -8.077  0.00  0.00    +0.011 A 
ATOM     12  C   UNL     1      -4.233   3.897  -9.176  0.00  0.00    +0.001 A 
ATOM     13  C   UNL     1      -5.589   3.637  -9.319  0.00  0.00    +0.004 A 
ATOM     14  C   UNL     1      -6.275   2.926  -8.357  0.00  0.00    +0.047 A 
ATOM     15  C   UNL     1      -5.606   2.462  -7.232  0.00  0.00    +0.136 A 
ATOM     16  O   UNL     1      -5.996   1.752  -6.154  0.00  0.00    -0.454 OA
ENDBRANCH   6   8
BRANCH   4  17
ATOM     17  C   UNL     1      -6.005  -1.940  -2.163  0.00  0.00    +0.128 A 
ATOM     18  C   UNL     1      -6.978  -2.615  -1.525  0.00  0.00    +0.046 A 
ATOM     19  C   UNL     1      -6.780  -3.985  -1.810  0.00  0.00    +0.041 A 
ATOM     20  C   UNL     1      -5.699  -4.066  -2.605  0.00  0.00    +0.195 A 
ATOM     21  O   UNL     1      -5.236  -2.824  -2.821  0.00  0.00    -0.466 OA
ENDBRANCH   4  17
BRANCH   1  22
ATOM     22  C   UNL     1      -2.087  -0.026  -1.178  0.00  0.00    +0.021 C 
BRANCH  22  23
ATOM     23  N   UNL     1      -1.376  -0.512   0.012  0.00  0.00    +0.388 N 
ATOM     24  C   UNL     1      -1.356  -1.981   0.004  0.00  0.00    -0.095 C 
ATOM     25  H   UNL     1      -1.848  -0.187   0.843  0.00  0.00    -0.081 HD
BRANCH  23  27
ATOM     26  C   UNL     1      -0.019   1.526   0.010  0.00  0.00    -0.008 C 
ATOM     27  C   UNL     1       0.002  -0.004   0.002  0.00  0.00    -0.041 C 
BRANCH  27  28
ATOM     28  C   UNL     1       0.731  -0.503   1.223  0.00  0.00    -0.061 A 
ATOM     29  C   UNL     1       0.079  -0.558   2.441  0.00  0.00    +0.004 A 
ATOM     30  C   UNL     1       0.745  -1.016   3.562  0.00  0.00    +0.028 A 
ATOM     31  C   UNL     1       2.069  -1.421   3.464  0.00  0.00    +0.067 A 
ATOM     32  C   UNL     1       2.720  -1.365   2.240  0.00  0.00    +0.028 A 
ATOM     33  C   UNL     1       2.048  -0.911   1.121  0.00  0.00    +0.004 A 
BRANCH  31  34
ATOM     34  N   UNL     1       2.747  -1.885   4.600  0.00  0.00    -0.220 N 
ATOM     35  C   UNL     1       4.026  -2.304   4.662  0.00  0.00    +0.225 A 
ATOM     36  N   UNL     1       4.277  -2.655   5.897  0.00  0.00    -0.222 NA
ATOM     37  C   UNL     1       3.191  -2.476   6.649  0.00  0.00    +0.245 A 
ATOM     38  N   UNL     1       2.230  -2.000   5.901  0.00  0.00    -0.154 NA
ENDBRANCH  31  34
ENDBRANCH  27  28
ENDBRANCH  23  27
ENDBRANCH  22  23
ENDBRANCH   1  22
TORSDOF 7
