REMARK  Name = ZINC38776174
REMARK  10 active torsions:
REMARK  status: ('A' for Active; 'I' for Inactive)
REMARK    1  A    between atoms: C_1  and  C_2
REMARK    2  A    between atoms: C_3  and  C_25
REMARK    3  A    between atoms: C_4  and  C_8
REMARK    4  A    between atoms: C_11  and  O_15
REMARK    5  A    between atoms: C_13  and  O_14
REMARK    6  A    between atoms: O_15  and  C_16
REMARK    7  A    between atoms: C_16  and  C_17
REMARK    8  A    between atoms: C_18  and  C_19
REMARK    9  A    between atoms: C_28  and  O_31
REMARK   10  A    between atoms: O_31  and  C_32
REMARK                            x       y       z     vdW  Elec       q    Type
REMARK                         _______ _______ _______ _____ _____    ______ ____
ROOT
ATOM      1  C   UNL     1      -0.954  -2.953   1.228  0.00  0.00    +0.022 A 
ATOM      2  C   UNL     1      -0.121  -2.990   2.330  0.00  0.00    +0.013 A 
ATOM      3  C   UNL     1      -0.502  -3.679   3.465  0.00  0.00    +0.046 A 
ATOM      4  C   UNL     1      -1.724  -4.337   3.501  0.00  0.00    +0.124 A 
ATOM      5  C   UNL     1      -2.562  -4.302   2.397  0.00  0.00    +0.091 A 
ATOM      6  C   UNL     1      -2.179  -3.605   1.261  0.00  0.00    +0.126 A 
ENDROOT
BRANCH   1  10
ATOM      7  C   UNL     1      -0.018   1.503   0.010  0.00  0.00    +0.068 C 
ATOM      8  C   UNL     1       0.002  -0.004   0.002  0.00  0.00    +0.064 C 
ATOM      9  C   UNL     1      -1.101  -0.790   0.003  0.00  0.00    +0.011 C 
ATOM     10  C   UNL     1      -0.535  -2.200  -0.008  0.00  0.00    +0.164 C 
ATOM     11  N   UNL     1       0.920  -1.969  -0.014  0.00  0.00    -0.297 N 
ATOM     12  N   UNL     1       1.112  -0.751  -0.013  0.00  0.00    -0.182 NA
ATOM     13  H   UNL     1       1.606  -2.654  -0.021  0.00  0.00    +0.183 HD
BRANCH   9  14
ATOM     14  C   UNL     1      -2.512  -0.378   0.013  0.00  0.00    -0.018 A 
ATOM     15  C   UNL     1      -3.322  -0.673   1.115  0.00  0.00    +0.012 A 
ATOM     16  C   UNL     1      -4.643  -0.284   1.119  0.00  0.00    +0.046 A 
ATOM     17  C   UNL     1      -5.172   0.401   0.031  0.00  0.00    +0.120 A 
ATOM     18  C   UNL     1      -4.372   0.696  -1.066  0.00  0.00    +0.046 A 
ATOM     19  C   UNL     1      -3.048   0.317  -1.078  0.00  0.00    +0.012 A 
BRANCH  17  20
ATOM     20  O   UNL     1      -6.475   0.782   0.040  0.00  0.00    -0.495 OA
ATOM     21  C   UNL     1      -6.955   1.482  -1.110  0.00  0.00    +0.277 C 
ENDBRANCH  17  20
ENDBRANCH   9  14
ENDBRANCH   1  10
BRANCH   6  22
ATOM     22  O   UNL     1      -3.000  -3.563   0.179  0.00  0.00    -0.506 OA
ATOM     23  H   UNL     1      -2.857  -4.283  -0.451  0.00  0.00    +0.292 HD
ENDBRANCH   6  22
BRANCH   4  24
ATOM     24  O   UNL     1      -2.099  -5.016   4.617  0.00  0.00    -0.488 OA
BRANCH  24  25
ATOM     25  C   UNL     1      -1.186  -5.010   5.716  0.00  0.00    +0.256 C 
BRANCH  25  26
ATOM     26  C   UNL     1      -1.767  -5.807   6.856  0.00  0.00    +0.014 C 
ATOM     27  C   UNL     1      -1.009  -6.674   7.513  0.00  0.00    +0.007 C 
BRANCH  27  28
ATOM     28  C   UNL     1      -1.579  -7.456   8.630  0.00  0.00    -0.025 A 
ATOM     29  C   UNL     1      -2.916  -7.288   8.992  0.00  0.00    +0.008 A 
ATOM     30  C   UNL     1      -3.442  -8.021  10.036  0.00  0.00    +0.001 A 
ATOM     31  C   UNL     1      -2.647  -8.920  10.724  0.00  0.00    +0.000 A 
ATOM     32  C   UNL     1      -1.320  -9.091  10.370  0.00  0.00    +0.001 A 
ATOM     33  C   UNL     1      -0.784  -8.369   9.324  0.00  0.00    +0.008 A 
ENDBRANCH  27  28
ENDBRANCH  25  26
ENDBRANCH  24  25
ENDBRANCH   4  24
TORSDOF 8
