REMARK  Name = ZINC39660144
REMARK  11 active torsions:
REMARK  status: ('A' for Active; 'I' for Inactive)
REMARK    1  A    between atoms: C_1  and  C_2
REMARK    2  A    between atoms: C_2  and  N_3
REMARK    3  A    between atoms: C_4  and  C_10
REMARK    4  A    between atoms: C_6  and  C_8
REMARK    5  A    between atoms: C_14  and  C_23
REMARK    6  A    between atoms: N_25  and  C_26
REMARK    7  A    between atoms: C_26  and  C_27
REMARK    8  A    between atoms: C_27  and  C_28
REMARK    9  A    between atoms: C_28  and  C_29
REMARK   10  A    between atoms: C_29  and  C_30
REMARK   11  A    between atoms: C_30  and  C_31
REMARK                            x       y       z     vdW  Elec       q    Type
REMARK                         _______ _______ _______ _____ _____    ______ ____
ROOT
ATOM      1  C   UNL     1      -1.427  -0.678   2.719  0.00  0.00    +0.266 C 
ATOM      2  O   UNL     1      -2.083  -1.034   3.680  0.00  0.00    -0.268 OA
ATOM      3  N   UNL     1      -0.183  -0.190   2.895  0.00  0.00    -0.295 N 
ATOM      4  C   UNL     1       0.789   0.217   1.853  0.00  0.00    +0.121 C 
ATOM      5  C   UNL     1       1.459   1.488   2.419  0.00  0.00    +0.100 C 
ATOM      6  C   UNL     1       1.282   1.380   3.943  0.00  0.00    -0.004 C 
ATOM      7  C   UNL     1       0.519   0.067   4.175  0.00  0.00    +0.115 C 
ATOM      8  C   UNL     1       2.643   1.330   4.631  0.00  0.00    -0.010 C 
ATOM      9  C   UNL     1       2.441   1.280   6.148  0.00  0.00    -0.082 C 
ATOM     10  N   UNL     1       1.694   2.466   6.583  0.00  0.00    +0.379 N 
ATOM     11  C   UNL     1       0.351   2.458   5.989  0.00  0.00    -0.082 C 
ATOM     12  C   UNL     1       0.465   2.558   4.466  0.00  0.00    -0.010 C 
ATOM     13  H   UNL     1       1.615   2.462   7.589  0.00  0.00    -0.086 HD
ATOM     14  H   UNL     1       2.185   3.298   6.290  0.00  0.00    -0.086 HD
ENDROOT
BRANCH   1  16
ATOM     15  N   UNL     1      -1.876  -1.839   0.505  0.00  0.00    -0.258 N 
ATOM     16  C   UNL     1      -1.992  -0.782   1.365  0.00  0.00    +0.138 A 
ATOM     17  C   UNL     1      -2.748   0.172   0.704  0.00  0.00    +0.071 A 
ATOM     18  C   UNL     1      -3.045  -0.389  -0.541  0.00  0.00    +0.075 A 
ATOM     19  N   UNL     1      -2.493  -1.574  -0.589  0.00  0.00    -0.175 NA
ATOM     20  C   UNL     1      -3.852   0.259  -1.637  0.00  0.00    +0.069 C 
ATOM     21 BR   UNL     1      -3.269   1.872   1.350  0.00  0.00    -0.046 Br
BRANCH  15  23
ATOM     22  C   UNL     1       0.324  -2.905   0.425  0.00  0.00    +0.029 C 
ATOM     23  C   UNL     1      -1.152  -3.081   0.788  0.00  0.00    +0.141 C 
ENDBRANCH  15  23
ENDBRANCH   1  16
BRANCH   5  24
ATOM     24  C   UNL     1       0.770   2.722   1.896  0.00  0.00    +0.218 C 
ATOM     25  O   UNL     1      -0.426   2.709   1.692  0.00  0.00    -0.275 OA
ATOM     26  N   UNL     1       1.482   3.841   1.654  0.00  0.00    -0.315 N 
ATOM     27  H   UNL     1       2.448   3.830   1.746  0.00  0.00    +0.149 HD
BRANCH  26  28
ATOM     28  C   UNL     1       0.798   5.072   1.251  0.00  0.00    +0.104 C 
BRANCH  28  29
ATOM     29  C   UNL     1       1.829   6.183   1.041  0.00  0.00    +0.019 C 
BRANCH  29  30
ATOM     30  C   UNL     1       1.115   7.469   0.621  0.00  0.00    +0.002 C 
BRANCH  30  31
ATOM     31  C   UNL     1       2.146   8.579   0.411  0.00  0.00    +0.011 C 
BRANCH  31  32
ATOM     32  C   UNL     1       1.432   9.866  -0.009  0.00  0.00    +0.125 C 
BRANCH  32  33
ATOM     33  C   UNL     1       2.447  10.960  -0.216  0.00  0.00    +0.356 C 
ATOM     34  O   UNL     1       3.633  10.732  -0.043  0.00  0.00    -0.246 OA
ATOM     35  O   UNL     1       2.084  12.072  -0.556  0.00  0.00    -0.246 OA
ENDBRANCH  32  33
ENDBRANCH  31  32
ENDBRANCH  30  31
ENDBRANCH  29  30
ENDBRANCH  28  29
ENDBRANCH  26  28
ENDBRANCH   5  24
TORSDOF 9
