REMARK  Name = ZINC04311423
REMARK  19 active torsions:
REMARK  status: ('A' for Active; 'I' for Inactive)
REMARK    1  A    between atoms: C_1  and  C_2
REMARK    2  A    between atoms: C_2  and  N_62
REMARK    3  A    between atoms: C_3  and  C_4
REMARK    4  A    between atoms: C_3  and  N_62
REMARK    5  A    between atoms: C_5  and  C_6
REMARK    6  A    between atoms: C_5  and  N_62
REMARK    7  A    between atoms: C_7  and  O_27
REMARK    8  A    between atoms: C_12  and  C_22
REMARK    9  A    between atoms: C_13  and  C_15
REMARK   10  A    between atoms: C_15  and  S_16
REMARK   11  A    between atoms: S_16  and  C_17
REMARK   12  A    between atoms: C_17  and  N_64
REMARK   13  A    between atoms: C_18  and  C_19
REMARK   14  A    between atoms: C_18  and  N_64
REMARK   15  A    between atoms: C_20  and  C_21
REMARK   16  A    between atoms: C_20  and  N_64
REMARK   17  A    between atoms: C_22  and  O_24
REMARK   18  A    between atoms: O_24  and  C_25
REMARK   19  A    between atoms: C_25  and  C_26
REMARK                            x       y       z     vdW  Elec       q    Type
REMARK                         _______ _______ _______ _____ _____    ______ ____
ROOT
ATOM      1  C   UNL     1      -2.496  -2.902  -2.608  0.00  0.00    -0.011 A 
ATOM      2  C   UNL     1      -2.896  -3.779  -3.600  0.00  0.00    +0.119 A 
ATOM      3  C   UNL     1      -2.934  -5.146  -3.348  0.00  0.00    +0.049 A 
ATOM      4  C   UNL     1      -2.577  -5.642  -2.112  0.00  0.00    +0.050 A 
ATOM      5  C   UNL     1      -2.173  -4.774  -1.105  0.00  0.00    +0.136 A 
ATOM      6  C   UNL     1      -2.135  -3.395  -1.360  0.00  0.00    +0.039 A 
ATOM      7  C   UNL     1      -1.672  -2.775  -0.102  0.00  0.00    +0.109 A 
ATOM      8  C   UNL     1      -1.475  -3.806   0.766  0.00  0.00    +0.130 A 
ATOM      9  O   UNL     1      -1.776  -4.965   0.171  0.00  0.00    -0.458 OA
ENDROOT
BRANCH   7  10
ATOM     10  C   UNL     1      -1.461  -1.345   0.157  0.00  0.00    +0.343 C 
ATOM     11  O   UNL     1      -2.404  -0.634   0.445  0.00  0.00    -0.245 OA
BRANCH  10  12
ATOM     12  O   UNL     1      -0.222  -0.820   0.074  0.00  0.00    -0.461 OA
BRANCH  12  13
ATOM     13  C   UNL     1      -0.067   0.570   0.466  0.00  0.00    +0.229 C 
ATOM     14  C   UNL     1       1.401   0.978   0.327  0.00  0.00    +0.048 C 
ENDBRANCH  12  13
ENDBRANCH  10  12
ENDBRANCH   7  10
BRANCH   2  15
ATOM     15  O   UNL     1      -3.252  -3.304  -4.824  0.00  0.00    -0.507 OA
ATOM     16  H   UNL     1      -4.192  -3.093  -4.905  0.00  0.00    +0.292 HD
ENDBRANCH   2  15
BRANCH   1  17
ATOM     17  C   UNL     1      -2.454  -1.420  -2.879  0.00  0.00    -0.039 C 
BRANCH  17  18
ATOM     18  N   UNL     1      -1.151  -1.081  -3.489  0.00  0.00    +0.382 N 
ATOM     19  H   UNL     1      -0.399  -1.390  -2.862  0.00  0.00    -0.081 HD
BRANCH  18  21
ATOM     20  C   UNL     1       0.427  -1.587  -5.288  0.00  0.00    -0.017 C 
ATOM     21  C   UNL     1      -1.007  -1.772  -4.788  0.00  0.00    -0.082 C 
ENDBRANCH  18  21
BRANCH  18  22
ATOM     22  C   UNL     1      -1.047   0.381  -3.680  0.00  0.00    -0.082 C 
ATOM     23  C   UNL     1      -0.789   1.036  -2.321  0.00  0.00    -0.017 C 
ENDBRANCH  18  22
ENDBRANCH  17  18
ENDBRANCH   1  17
BRANCH   8  24
ATOM     24  C   UNL     1      -0.993  -3.661   2.187  0.00  0.00    +0.142 C 
BRANCH  24  25
ATOM     25  S   UNL     1      -2.418  -3.462   3.291  0.00  0.00    -0.172 S 
BRANCH  25  26
ATOM     26  C   UNL     1      -1.673  -3.153   4.917  0.00  0.00    -0.007 C 
BRANCH  26  27
ATOM     27  N   UNL     1      -1.110  -1.786   4.925  0.00  0.00    +0.385 N 
ATOM     28  H   UNL     1      -0.729  -1.577   3.995  0.00  0.00    -0.081 HD
BRANCH  27  29
ATOM     29  C   UNL     1      -2.169  -0.805   5.242  0.00  0.00    -0.081 C 
ATOM     30  C   UNL     1      -1.616   0.605   5.026  0.00  0.00    -0.017 C 
ENDBRANCH  27  29
BRANCH  27  31
ATOM     31  C   UNL     1      -0.022  -1.695   5.921  0.00  0.00    -0.081 C 
ATOM     32  C   UNL     1       1.201  -2.442   5.384  0.00  0.00    -0.017 C 
ENDBRANCH  27  31
ENDBRANCH  26  27
ENDBRANCH  25  26
ENDBRANCH  24  25
ENDBRANCH   8  24
TORSDOF 14
