REMARK  Name = ZINC25170552
REMARK  6 active torsions:
REMARK  status: ('A' for Active; 'I' for Inactive)
REMARK    1  A    between atoms: C_5  and  S_6
REMARK    2  A    between atoms: S_6  and  N_9
REMARK    3  A    between atoms: C_13  and  C_15
REMARK    4  A    between atoms: N_17  and  C_18
REMARK    5  A    between atoms: C_18  and  C_19
REMARK    6  A    between atoms: C_19  and  C_20
REMARK                            x       y       z     vdW  Elec       q    Type
REMARK                         _______ _______ _______ _____ _____    ______ ____
ROOT
ATOM      1  C   UNL     1       1.009  -1.254  -1.832  0.00  0.00    +0.232 C 
ATOM      2  O   UNL     1      -0.130  -1.434  -2.207  0.00  0.00    -0.274 OA
ATOM      3  N   UNL     1       2.038  -1.768  -2.534  0.00  0.00    -0.314 N 
ATOM      4  H   UNL     1       3.072  -1.605  -2.194  0.00  0.00    +0.149 HD
ENDROOT
BRANCH   1   9
ATOM      5  N   UNL     1       0.002  -0.004   0.002  0.00  0.00    -0.164 NA
ATOM      6  C   UNL     1      -0.018   1.470   0.010  0.00  0.00    +0.110 C 
ATOM      7  C   UNL     1       1.474   1.887  -0.002  0.00  0.00    +0.019 C 
ATOM      8  C   UNL     1       2.092   0.807  -0.929  0.00  0.00    +0.031 C 
ATOM      9  C   UNL     1       1.274  -0.455  -0.582  0.00  0.00    +0.165 C 
BRANCH   5  10
ATOM     10  S   UNL     1      -1.208  -0.989   0.558  0.00  0.00    +0.068 S 
ATOM     11  O   UNL     1      -0.602  -2.231   0.886  0.00  0.00    -0.152 OA
ATOM     12  O   UNL     1      -1.948  -0.229   1.504  0.00  0.00    -0.152 OA
BRANCH  10  17
ATOM     13  C   UNL     1      -2.243  -2.293  -1.717  0.00  0.00    +0.038 A 
ATOM     14  C   UNL     1      -3.213  -2.343  -2.701  0.00  0.00    +0.030 A 
ATOM     15  C   UNL     1      -4.177  -1.389  -2.722  0.00  0.00    +0.080 A 
ATOM     16  S   UNL     1      -3.731  -0.382  -1.317  0.00  0.00    -0.057 S 
ATOM     17  C   UNL     1      -2.291  -1.299  -0.797  0.00  0.00    +0.144 A 
ATOM     18 CL   UNL     1      -5.502  -1.197  -3.828  0.00  0.00    -0.076 Cl
ENDBRANCH  10  17
ENDBRANCH   5  10
ENDBRANCH   1   9
BRANCH   3  19
ATOM     19  C   UNL     1       1.781  -2.545  -3.749  0.00  0.00    +0.109 C 
BRANCH  19  20
ATOM     20  C   UNL     1       3.110  -3.009  -4.349  0.00  0.00    +0.054 C 
BRANCH  20  21
ATOM     21  C   UNL     1       2.845  -3.808  -5.599  0.00  0.00    -0.041 A 
ATOM     22  C   UNL     1       2.780  -3.170  -6.824  0.00  0.00    +0.053 A 
ATOM     23  C   UNL     1       2.537  -3.902  -7.976  0.00  0.00    +0.164 A 
ATOM     24  C   UNL     1       2.361  -5.279  -7.897  0.00  0.00    +0.180 A 
ATOM     25  C   UNL     1       2.426  -5.912  -6.664  0.00  0.00    +0.086 A 
ATOM     26  C   UNL     1       2.674  -5.177  -5.519  0.00  0.00    +0.027 A 
ATOM     27 CL   UNL     1       2.204  -7.631  -6.560  0.00  0.00    -0.080 Cl
ATOM     28  O   UNL     1       2.125  -6.017  -9.016  0.00  0.00    -0.483 OA
ATOM     29  C   UNL     1       1.693  -5.302 -10.179  0.00  0.00    +0.270 C 
ATOM     30  C   UNL     1       2.593  -4.070 -10.348  0.00  0.00    +0.270 C 
ATOM     31  O   UNL     1       2.468  -3.260  -9.174  0.00  0.00    -0.485 OA
ENDBRANCH  20  21
ENDBRANCH  19  20
ENDBRANCH   3  19
TORSDOF 6
