REMARK  Name = ZINC37805433
REMARK  5 active torsions:
REMARK  status: ('A' for Active; 'I' for Inactive)
REMARK    1  A    between atoms: C_1  and  C_2
REMARK    2  A    between atoms: C_6  and  C_7
REMARK    3  A    between atoms: C_7  and  N_8
REMARK    4  A    between atoms: N_8  and  C_9
REMARK    5  A    between atoms: C_10  and  C_12
REMARK                            x       y       z     vdW  Elec       q    Type
REMARK                         _______ _______ _______ _____ _____    ______ ____
ROOT
ATOM      1  N   UNL     1      -1.598  -0.230   2.997  0.00  0.00    -0.297 N 
ATOM      2  C   UNL     1      -2.106  -1.388   3.737  0.00  0.00    +0.132 C 
ATOM      3  C   UNL     1      -2.423   0.791   2.695  0.00  0.00    +0.258 C 
ATOM      4  O   UNL     1      -1.986   1.785   2.154  0.00  0.00    -0.271 OA
ENDROOT
BRANCH   3   5
ATOM      5  C   UNL     1      -3.890   0.699   3.028  0.00  0.00    +0.276 C 
ATOM      6  C   UNL     1      -4.069   0.653   4.552  0.00  0.00    +0.155 C 
ATOM      7  N   UNL     1      -5.515   0.614   4.830  0.00  0.00    -0.337 N 
ATOM      8  C   UNL     1      -6.349   1.448   4.068  0.00  0.00    +0.070 A 
ATOM      9  C   UNL     1      -7.658   1.670   4.464  0.00  0.00    +0.026 A 
ATOM     10  C   UNL     1      -8.476   2.490   3.709  0.00  0.00    +0.002 A 
ATOM     11  C   UNL     1      -7.990   3.086   2.561  0.00  0.00    +0.004 A 
ATOM     12  C   UNL     1      -6.684   2.868   2.162  0.00  0.00    +0.047 A 
ATOM     13  C   UNL     1      -5.855   2.050   2.914  0.00  0.00    +0.142 A 
ATOM     14  O   UNL     1      -4.571   1.846   2.515  0.00  0.00    -0.476 OA
ATOM     15  H   UNL     1      -5.879   0.031   5.515  0.00  0.00    +0.146 HD
ENDBRANCH   3   5
BRANCH   1  16
ATOM     16  C   UNL     1      -0.192  -0.183   2.586  0.00  0.00    +0.150 C 
BRANCH  16  22
ATOM     17  C   UNL     1       0.084  -3.109   1.694  0.00  0.00    +0.044 C 
ATOM     18  C   UNL     1       0.058  -1.957   0.723  0.00  0.00    -0.039 A 
ATOM     19  C   UNL     1       0.154  -2.183  -0.637  0.00  0.00    +0.011 A 
ATOM     20  C   UNL     1       0.127  -1.125  -1.483  0.00  0.00    +0.046 A 
ATOM     21  S   UNL     1      -0.037   0.247  -0.353  0.00  0.00    -0.100 S 
ATOM     22  C   UNL     1      -0.066  -0.683   1.170  0.00  0.00    +0.010 A 
ENDBRANCH  16  22
ENDBRANCH   1  16
TORSDOF 3
