REMARK  Name = ZINC12637695
REMARK  7 active torsions:
REMARK  status: ('A' for Active; 'I' for Inactive)
REMARK    1  A    between atoms: C_3  and  O_38
REMARK    2  A    between atoms: C_6  and  C_7
REMARK    3  A    between atoms: C_7  and  C_9
REMARK    4  A    between atoms: C_7  and  N_17
REMARK    5  A    between atoms: N_11  and  C_12
REMARK    6  A    between atoms: N_17  and  C_18
REMARK    7  A    between atoms: C_26  and  C_28
REMARK                            x       y       z     vdW  Elec       q    Type
REMARK                         _______ _______ _______ _____ _____    ______ ____
ROOT
ATOM      1  N   UNL     1       4.700  -1.643  -0.607  0.00  0.00    -0.251 N 
ATOM      2  C   UNL     1       5.103  -0.357  -0.593  0.00  0.00    +0.252 C 
ATOM      3  O   UNL     1       4.379   0.512  -1.039  0.00  0.00    -0.270 OA
ENDROOT
BRANCH   2   4
ATOM      4  C   UNL     1       6.423  -0.004  -0.035  0.00  0.00    +0.041 A 
ATOM      5  C   UNL     1       6.792  -0.456   1.234  0.00  0.00    +0.017 A 
ATOM      6  C   UNL     1       8.024  -0.124   1.752  0.00  0.00    +0.050 A 
ATOM      7  C   UNL     1       8.905   0.660   1.016  0.00  0.00    +0.162 A 
ATOM      8  C   UNL     1       8.545   1.111  -0.252  0.00  0.00    +0.163 A 
ATOM      9  C   UNL     1       7.309   0.782  -0.776  0.00  0.00    +0.062 A 
ATOM     10  O   UNL     1       9.400   1.872  -0.989  0.00  0.00    -0.485 OA
ATOM     11  C   UNL     1      10.480   2.493  -0.283  0.00  0.00    +0.270 C 
ATOM     12  C   UNL     1      11.117   1.445   0.639  0.00  0.00    +0.270 C 
ATOM     13  O   UNL     1      10.113   0.982   1.550  0.00  0.00    -0.485 OA
ENDBRANCH   2   4
BRANCH   1  14
ATOM     14  C   UNL     1       3.504  -1.994  -1.243  0.00  0.00    +0.039 A 
ATOM     15  C   UNL     1       2.290  -1.811  -0.593  0.00  0.00    +0.026 A 
ATOM     16  C   UNL     1       1.111  -2.158  -1.221  0.00  0.00    +0.041 A 
ATOM     17  C   UNL     1       1.137  -2.689  -2.500  0.00  0.00    +0.142 A 
ATOM     18  C   UNL     1       2.346  -2.873  -3.151  0.00  0.00    +0.078 A 
ATOM     19  C   UNL     1       3.528  -2.522  -2.527  0.00  0.00    +0.046 A 
ATOM     20 CL   UNL     1       2.375  -3.538  -4.754  0.00  0.00    -0.081 Cl
ATOM     21  F   UNL     1      -0.018  -3.028  -3.113  0.00  0.00    -0.204 F 
ENDBRANCH   1  14
BRANCH   1  22
ATOM     22  C   UNL     1       5.514  -2.673   0.043  0.00  0.00    +0.197 C 
BRANCH  22  28
ATOM     23  C   UNL     1       5.253  -4.679  -1.430  0.00  0.00    +0.009 A 
ATOM     24  C   UNL     1       5.732  -5.553  -2.388  0.00  0.00    +0.046 A 
ATOM     25  C   UNL     1       7.007  -5.381  -2.906  0.00  0.00    +0.117 A 
ATOM     26  C   UNL     1       7.797  -4.329  -2.465  0.00  0.00    +0.046 A 
ATOM     27  C   UNL     1       7.312  -3.455  -1.512  0.00  0.00    +0.009 A 
ATOM     28  C   UNL     1       6.040  -3.628  -0.997  0.00  0.00    -0.018 A 
BRANCH  25  29
ATOM     29  O   UNL     1       7.483  -6.243  -3.843  0.00  0.00    -0.507 OA
ATOM     30  H   UNL     1       7.949  -7.006  -3.475  0.00  0.00    +0.292 HD
ENDBRANCH  25  29
ENDBRANCH  22  28
BRANCH  22  31
ATOM     31  C   UNL     1       4.668  -3.429   1.036  0.00  0.00    +0.239 C 
ATOM     32  O   UNL     1       3.501  -3.135   1.186  0.00  0.00    -0.273 OA
ATOM     33  N   UNL     1       5.210  -4.430   1.758  0.00  0.00    -0.311 N 
ATOM     34  H   UNL     1       6.143  -4.665   1.638  0.00  0.00    +0.149 HD
BRANCH  33  35
ATOM     35  C   UNL     1       4.388  -5.164   2.724  0.00  0.00    +0.073 C 
ATOM     36  C   UNL     1       4.418  -4.453   4.092  0.00  0.00    +0.022 C 
ATOM     37  C   UNL     1       4.424  -5.611   5.122  0.00  0.00    +0.002 C 
ATOM     38  C   UNL     1       5.330  -6.667   4.443  0.00  0.00    +0.002 C 
ATOM     39  C   UNL     1       4.968  -6.572   2.946  0.00  0.00    +0.022 C 
ENDBRANCH  33  35
ENDBRANCH  22  31
ENDBRANCH   1  22
TORSDOF 7
