REMARK  Name = ZINC49194374
REMARK  8 active torsions:
REMARK  status: ('A' for Active; 'I' for Inactive)
REMARK    1  A    between atoms: C_1  and  C_2
REMARK    2  A    between atoms: C_2  and  C_3
REMARK    3  A    between atoms: C_3  and  N_4
REMARK    4  A    between atoms: C_5  and  C_7
REMARK    5  A    between atoms: C_7  and  C_9
REMARK    6  A    between atoms: C_7  and  N_10
REMARK    7  A    between atoms: N_10  and  C_11
REMARK    8  A    between atoms: C_14  and  N_21
REMARK                            x       y       z     vdW  Elec       q    Type
REMARK                         _______ _______ _______ _____ _____    ______ ____
ROOT
ATOM      1  C   UNL     1      -4.206  -5.971  -0.502  0.00  0.00    +0.036 A 
ATOM      2  C   UNL     1      -3.192  -6.751  -1.016  0.00  0.00    +0.025 A 
ATOM      3  C   UNL     1      -3.457  -8.016  -1.533  0.00  0.00    +0.025 A 
ATOM      4  C   UNL     1      -4.739  -8.523  -1.545  0.00  0.00    +0.034 A 
ATOM      5  C   UNL     1      -5.797  -7.750  -1.026  0.00  0.00    +0.020 A 
ATOM      6  C   UNL     1      -5.524  -6.463  -0.494  0.00  0.00    +0.007 A 
ATOM      7  C   UNL     1      -6.598  -5.715   0.022  0.00  0.00    +0.028 A 
ATOM      8  C   UNL     1      -7.846  -6.260  -0.006  0.00  0.00    +0.083 A 
ATOM      9  N   UNL     1      -8.072  -7.468  -0.505  0.00  0.00    -0.366 N 
ATOM     10  C   UNL     1      -7.119  -8.215  -1.014  0.00  0.00    +0.093 A 
ATOM     11  H   UNL     1      -8.979  -7.810  -0.501  0.00  0.00    +0.165 HD
ENDROOT
BRANCH   4  12
ATOM     12  N   UNL     1      -4.987  -9.793  -2.068  0.00  0.00    -0.357 N 
ATOM     13  H   UNL     1      -4.257 -10.322  -2.425  0.00  0.00    +0.142 HD
ATOM     14  H   UNL     1      -5.891 -10.146  -2.075  0.00  0.00    +0.142 HD
ENDBRANCH   4  12
BRANCH   1  15
ATOM     15  N   UNL     1      -3.925  -4.702   0.014  0.00  0.00    -0.333 N 
ATOM     16  H   UNL     1      -4.640  -4.158   0.379  0.00  0.00    +0.147 HD
BRANCH  15  17
ATOM     17  C   UNL     1      -2.551  -4.195   0.004  0.00  0.00    +0.154 C 
ATOM     18  C   UNL     1      -1.811  -4.702   1.243  0.00  0.00    +0.038 C 
BRANCH  17  20
ATOM     19  N   UNL     1      -1.413  -1.998   0.005  0.00  0.00    -0.314 N 
ATOM     20  C   UNL     1      -2.571  -2.688   0.012  0.00  0.00    +0.233 C 
ATOM     21  O   UNL     1      -3.630  -2.096   0.025  0.00  0.00    -0.274 OA
ATOM     22  H   UNL     1      -0.567  -2.472  -0.006  0.00  0.00    +0.149 HD
BRANCH  19  23
ATOM     23  C   UNL     1      -1.433  -0.534   0.013  0.00  0.00    +0.104 C 
BRANCH  23  25
ATOM     24  C   UNL     1      -0.019   1.526   0.010  0.00  0.00    +0.005 C 
ATOM     25  C   UNL     1       0.002  -0.004   0.002  0.00  0.00    +0.015 C 
ENDBRANCH  23  25
ENDBRANCH  19  23
ENDBRANCH  17  20
ENDBRANCH  15  17
ENDBRANCH   1  15
TORSDOF 6
