REMARK  Name = ZINC42078651
REMARK  9 active torsions:
REMARK  status: ('A' for Active; 'I' for Inactive)
REMARK    1  A    between atoms: C_1  and  C_2
REMARK    2  A    between atoms: C_2  and  C_3
REMARK    3  A    between atoms: C_2  and  C_4
REMARK    4  A    between atoms: C_2  and  C_5
REMARK    5  A    between atoms: C_5  and  C_6
REMARK    6  A    between atoms: C_6  and  C_7
REMARK    7  A    between atoms: C_6  and  C_8
REMARK    8  A    between atoms: C_6  and  N_9
REMARK    9  A    between atoms: N_9  and  C_10
REMARK                            x       y       z     vdW  Elec       q    Type
REMARK                         _______ _______ _______ _____ _____    ______ ____
ROOT
ATOM      1  C   UNL     1       3.189  -0.519  -2.320  0.00  0.00    +0.050 C 
ATOM      2  C   UNL     1       3.377   0.957  -2.586  0.00  0.00    -0.028 A 
ATOM      3  C   UNL     1       2.704   1.858  -3.380  0.00  0.00    +0.042 A 
ATOM      4  C   UNL     1       3.114   3.181  -3.425  0.00  0.00    +0.125 A 
ATOM      5  C   UNL     1       4.200   3.591  -2.669  0.00  0.00    +0.055 A 
ATOM      6  C   UNL     1       4.875   2.688  -1.873  0.00  0.00    +0.042 A 
ATOM      7  C   UNL     1       4.467   1.356  -1.823  0.00  0.00    +0.050 A 
ATOM      8  N   UNL     1       4.978   0.271  -1.107  0.00  0.00    -0.285 N 
ATOM      9  C   UNL     1       4.290  -0.864  -1.341  0.00  0.00    +0.208 C 
ATOM     10  O   UNL     1       4.510  -1.955  -0.858  0.00  0.00    -0.277 OA
ATOM     11 BR   UNL     1       6.356   3.260  -0.846  0.00  0.00    -0.048 Br
ATOM     12  F   UNL     1       2.457   4.068  -4.204  0.00  0.00    -0.205 F 
ATOM     13  H   UNL     1       5.741   0.327  -0.511  0.00  0.00    +0.155 HD
ENDROOT
BRANCH   1  14
ATOM     14  N   UNL     1       1.871  -0.770  -1.721  0.00  0.00    +0.393 N 
ATOM     15  H   UNL     1       1.829  -1.721  -1.387  0.00  0.00    -0.084 HD
ATOM     16  H   UNL     1       1.153  -0.627  -2.416  0.00  0.00    -0.084 HD
BRANCH  14  17
ATOM     17  C   UNL     1       1.659   0.153  -0.599  0.00  0.00    -0.072 C 
ATOM     18  C   UNL     1       1.524   1.581  -1.133  0.00  0.00    -0.010 C 
ATOM     19  C   UNL     1       2.850   0.077   0.357  0.00  0.00    -0.010 C 
BRANCH  17  20
ATOM     20  C   UNL     1       0.380  -0.235   0.146  0.00  0.00    -0.007 C 
BRANCH  20  22
ATOM     21  C   UNL     1      -0.392  -1.943  -1.506  0.00  0.00    +0.010 C 
ATOM     22  C   UNL     1      -0.712  -0.591  -0.864  0.00  0.00    -0.039 C 
ATOM     23  C   UNL     1      -0.773   0.486  -1.949  0.00  0.00    +0.010 C 
ATOM     24  C   UNL     1      -2.062  -0.672  -0.149  0.00  0.00    +0.010 C 
ENDBRANCH  20  22
ENDBRANCH  17  20
ENDBRANCH  14  17
ENDBRANCH   1  14
TORSDOF 4
