REMARK  Name = ZINC15358498
REMARK  10 active torsions:
REMARK  status: ('A' for Active; 'I' for Inactive)
REMARK    1  A    between atoms: C_1  and  C_2
REMARK    2  A    between atoms: C_2  and  C_3
REMARK    3  A    between atoms: C_2  and  C_4
REMARK    4  A    between atoms: C_7  and  C_10
REMARK    5  A    between atoms: C_10  and  C_12
REMARK    6  A    between atoms: C_10  and  N_17
REMARK    7  A    between atoms: N_17  and  S_18
REMARK    8  A    between atoms: S_18  and  C_21
REMARK    9  A    between atoms: C_24  and  S_27
REMARK   10  A    between atoms: S_27  and  N_30
REMARK                            x       y       z     vdW  Elec       q    Type
REMARK                         _______ _______ _______ _____ _____    ______ ____
ROOT
ATOM      1  N   UNL     1      -5.431  -3.391  -0.431  0.00  0.00    -0.178 NA
ATOM      2  H   UNL     1      -4.814  -3.671  -1.124  0.00  0.00    +0.149 HD
ENDROOT
BRANCH   1   3
ATOM      3  S   UNL     1      -6.499  -4.478   0.216  0.00  0.00    +0.059 S 
ATOM      4  O   UNL     1      -6.285  -5.709  -0.460  0.00  0.00    -0.153 OA
ATOM      5  O   UNL     1      -6.396  -4.357   1.628  0.00  0.00    -0.153 OA
BRANCH   3   6
ATOM      6  C   UNL     1      -8.119  -3.939  -0.219  0.00  0.00    +0.105 A 
ATOM      7  C   UNL     1      -8.806  -3.073   0.612  0.00  0.00    +0.030 A 
ATOM      8  C   UNL     1     -10.077  -2.651   0.270  0.00  0.00    +0.030 A 
ATOM      9  C   UNL     1     -10.661  -3.093  -0.902  0.00  0.00    +0.105 A 
ATOM     10  C   UNL     1      -9.974  -3.958  -1.733  0.00  0.00    +0.030 A 
ATOM     11  C   UNL     1      -8.702  -4.378  -1.393  0.00  0.00    +0.030 A 
BRANCH   9  12
ATOM     12  S   UNL     1     -12.282  -2.555  -1.336  0.00  0.00    +0.056 S 
ATOM     13  O   UNL     1     -12.817  -3.541  -2.209  0.00  0.00    -0.153 OA
ATOM     14  O   UNL     1     -12.924  -2.181  -0.125  0.00  0.00    -0.153 OA
BRANCH  12  15
ATOM     15  N   UNL     1     -12.115  -1.172  -2.231  0.00  0.00    -0.204 NA
ATOM     16  H   UNL     1     -11.231  -0.818  -2.416  0.00  0.00    +0.144 HD
ATOM     17  H   UNL     1     -12.901  -0.715  -2.569  0.00  0.00    +0.144 HD
ENDBRANCH  12  15
ENDBRANCH   9  12
ENDBRANCH   3   6
ENDBRANCH   1   3
BRANCH   1  18
ATOM     18  C   UNL     1      -5.419  -2.005   0.043  0.00  0.00    +0.143 C 
BRANCH  18  22
ATOM     19  C   UNL     1      -1.412  -0.526   0.013  0.00  0.00    -0.045 A 
ATOM     20  C   UNL     1      -2.259  -0.204   1.056  0.00  0.00    +0.004 A 
ATOM     21  C   UNL     1      -3.556  -0.683   1.066  0.00  0.00    +0.006 A 
ATOM     22  C   UNL     1      -4.006  -1.482   0.032  0.00  0.00    -0.024 A 
ATOM     23  C   UNL     1      -3.159  -1.803  -1.012  0.00  0.00    +0.006 A 
ATOM     24  C   UNL     1      -1.863  -1.321  -1.024  0.00  0.00    +0.004 A 
BRANCH  19  26
ATOM     25  C   UNL     1      -0.019   1.526   0.010  0.00  0.00    +0.012 C 
ATOM     26  C   UNL     1       0.002  -0.004   0.002  0.00  0.00    +0.013 C 
ATOM     27  C   UNL     1       0.742  -0.511   1.242  0.00  0.00    +0.012 C 
ENDBRANCH  19  26
ENDBRANCH  18  22
BRANCH  18  28
ATOM     28  C   UNL     1      -6.275  -1.157  -0.862  0.00  0.00    +0.013 A 
ATOM     29  C   UNL     1      -7.126  -0.152  -0.537  0.00  0.00    +0.013 A 
ATOM     30  C   UNL     1      -7.815   0.495  -1.546  0.00  0.00    +0.008 A 
ATOM     31  C   UNL     1      -7.620   0.105  -2.829  0.00  0.00    +0.045 A 
ATOM     32  S   UNL     1      -6.427  -1.209  -2.639  0.00  0.00    -0.100 S 
ENDBRANCH  18  28
ENDBRANCH   1  18
TORSDOF 8
