REMARK  Name = ZINC08920781
REMARK  6 active torsions:
REMARK  status: ('A' for Active; 'I' for Inactive)
REMARK    1  A    between atoms: C_1  and  C_2
REMARK    2  A    between atoms: C_2  and  O_3
REMARK    3  A    between atoms: O_3  and  C_4
REMARK    4  A    between atoms: C_14  and  O_27
REMARK    5  A    between atoms: C_16  and  C_19
REMARK    6  A    between atoms: C_21  and  O_26
REMARK                            x       y       z     vdW  Elec       q    Type
REMARK                         _______ _______ _______ _____ _____    ______ ____
ROOT
ATOM      1  C   UNL     1      -4.702   1.641  -7.869  0.00  0.00    +0.403 C 
ATOM      2  O   UNL     1      -5.520   2.438  -8.282  0.00  0.00    -0.226 OA
ATOM      3  N   UNL     1      -3.887   1.978  -6.849  0.00  0.00    -0.262 N 
ATOM      4  C   UNL     1      -3.965   3.304  -6.216  0.00  0.00    +0.116 C 
ATOM      5  C   UNL     1      -4.404   3.151  -4.759  0.00  0.00    +0.056 C 
ATOM      6  C   UNL     1      -3.571   2.062  -4.094  0.00  0.00    -0.020 A 
ATOM      7  C   UNL     1      -2.914   1.136  -4.830  0.00  0.00    +0.013 A 
ATOM      8  S   UNL     1      -2.107   0.093  -3.645  0.00  0.00    -0.076 S 
ATOM      9  C   UNL     1      -2.626   0.870  -2.212  0.00  0.00    +0.080 A 
ATOM     10  C   UNL     1      -3.426   1.931  -2.654  0.00  0.00    +0.068 A 
ATOM     11  C   UNL     1      -4.038   2.799  -1.615  0.00  0.00    +0.220 C 
ATOM     12  N   UNL     1      -3.608   2.672  -0.389  0.00  0.00    -0.223 NA
ATOM     13  C   UNL     1      -2.525   1.788   0.024  0.00  0.00    +0.225 C 
ATOM     14  N   UNL     1      -2.395   0.629  -0.879  0.00  0.00    -0.313 N 
ATOM     15  C   UNL     1      -2.883   1.032  -6.325  0.00  0.00    +0.153 C 
ATOM     16  H   UNL     1      -2.160  -0.252  -0.551  0.00  0.00    +0.149 HD
ENDROOT
BRANCH  13  17
ATOM     17  C   UNL     1      -1.231   2.561   0.022  0.00  0.00    +0.012 A 
ATOM     18  C   UNL     1      -1.076   3.646  -0.820  0.00  0.00    +0.053 A 
ATOM     19  C   UNL     1       0.117   4.353  -0.825  0.00  0.00    +0.117 A 
ATOM     20  C   UNL     1       1.150   3.973   0.019  0.00  0.00    +0.046 A 
ATOM     21  C   UNL     1       0.989   2.892   0.863  0.00  0.00    +0.019 A 
ATOM     22  C   UNL     1      -0.202   2.187   0.867  0.00  0.00    +0.025 A 
ATOM     23 BR   UNL     1      -0.419   0.707   2.023  0.00  0.00    -0.050 Br
BRANCH  19  24
ATOM     24  O   UNL     1       0.273   5.418  -1.656  0.00  0.00    -0.507 OA
ATOM     25  H   UNL     1       0.634   5.190  -2.524  0.00  0.00    +0.292 HD
ENDBRANCH  19  24
ENDBRANCH  13  17
BRANCH  11  26
ATOM     26  O   UNL     1      -5.008   3.689  -1.928  0.00  0.00    -0.492 OA
ATOM     27  H   UNL     1      -5.333   4.199  -1.173  0.00  0.00    +0.294 HD
ENDBRANCH  11  26
BRANCH   1  28
ATOM     28  O   UNL     1      -4.609   0.420  -8.429  0.00  0.00    -0.451 OA
BRANCH  28  30
ATOM     29  C   UNL     1      -5.264  -1.296 -10.027  0.00  0.00    +0.048 C 
ATOM     30  C   UNL     1      -5.518   0.126  -9.522  0.00  0.00    +0.230 C 
ENDBRANCH  28  30
ENDBRANCH   1  28
TORSDOF 5
