REMARK  Name = ZINC17206155
REMARK  4 active torsions:
REMARK  status: ('A' for Active; 'I' for Inactive)
REMARK    1  A    between atoms: C_4  and  C_7
REMARK    2  A    between atoms: C_7  and  C_8
REMARK    3  A    between atoms: C_8  and  N_9
REMARK    4  A    between atoms: C_12  and  C_18
REMARK                            x       y       z     vdW  Elec       q    Type
REMARK                         _______ _______ _______ _____ _____    ______ ____
ROOT
ATOM      1  N   UNL     1       1.144   3.579   0.010  0.00  0.00    -0.288 N 
ATOM      2  C   UNL     1       1.184   2.232   0.003  0.00  0.00    +0.260 A 
ATOM      3  O   UNL     1       2.255   1.650  -0.010  0.00  0.00    -0.267 OA
ATOM      4  C   UNL     1      -0.018   1.503   0.010  0.00  0.00    +0.073 A 
ATOM      5  C   UNL     1      -1.203   2.178   0.019  0.00  0.00    +0.258 A 
ATOM      6  N   UNL     1      -1.198   3.550   0.033  0.00  0.00    -0.302 N 
ATOM      7  C   UNL     1      -0.035   4.227   0.026  0.00  0.00    +0.163 A 
ATOM      8  S   UNL     1      -0.057   5.939   0.036  0.00  0.00    -0.013 S 
ATOM      9  O   UNL     1      -2.371   1.502   0.021  0.00  0.00    -0.267 OA
ATOM     10  H   UNL     1      -2.148   4.103   0.049  0.00  0.00    +0.171 HD
ENDROOT
BRANCH   4  11
ATOM     11  C   UNL     1       0.002  -0.004   0.002  0.00  0.00    +0.018 C 
ATOM     12  C   UNL     1       0.607  -0.496  -1.292  0.00  0.00    +0.011 A 
ATOM     13  C   UNL     1       1.510  -1.506  -1.343  0.00  0.00    -0.022 A 
ATOM     14  C   UNL     1       1.865  -1.690  -2.732  0.00  0.00    +0.003 A 
ATOM     15  C   UNL     1       2.735  -2.570  -3.384  0.00  0.00    +0.010 A 
ATOM     16  C   UNL     1       2.825  -2.457  -4.749  0.00  0.00    +0.001 A 
ATOM     17  C   UNL     1       2.094  -1.520  -5.460  0.00  0.00    +0.002 A 
ATOM     18  C   UNL     1       1.225  -0.637  -4.842  0.00  0.00    +0.026 A 
ATOM     19  C   UNL     1       1.113  -0.727  -3.456  0.00  0.00    +0.047 A 
ATOM     20  N   UNL     1       0.368  -0.027  -2.551  0.00  0.00    -0.359 N 
ATOM     21  H   UNL     1      -0.341   0.800  -2.705  0.00  0.00    +0.166 HD
ATOM     22  C   UNL     1       1.997  -2.250  -0.125  0.00  0.00    +0.018 C 
ATOM     23  C   UNL     1       1.038  -1.945   1.034  0.00  0.00    -0.076 C 
ATOM     24  N   UNL     1       0.823  -0.494   1.121  0.00  0.00    +0.388 N 
ATOM     25  H   UNL     1       1.802   0.006   1.104  0.00  0.00    -0.084 HD
ATOM     26  H   UNL     1       0.315  -0.273   2.072  0.00  0.00    -0.084 HD
ENDBRANCH   4  11
BRANCH   1  27
ATOM     27  C   UNL     1       2.393   4.344   0.003  0.00  0.00    +0.132 C 
BRANCH  27  28
ATOM     28  C   UNL     1       2.815   4.618  -1.443  0.00  0.00    +0.057 C 
BRANCH  28  32
ATOM     29  C   UNL     1       6.458   6.848  -1.466  0.00  0.00    +0.000 A 
ATOM     30  C   UNL     1       6.493   5.466  -1.473  0.00  0.00    +0.000 A 
ATOM     31  C   UNL     1       5.314   4.745  -1.466  0.00  0.00    +0.004 A 
ATOM     32  C   UNL     1       4.100   5.405  -1.451  0.00  0.00    -0.046 A 
ATOM     33  C   UNL     1       4.065   6.787  -1.448  0.00  0.00    +0.004 A 
ATOM     34  C   UNL     1       5.244   7.508  -1.452  0.00  0.00    +0.000 A 
ENDBRANCH  28  32
ENDBRANCH  27  28
ENDBRANCH   1  27
TORSDOF 4
