REMARK  Name = ZINC12559937
REMARK  5 active torsions:
REMARK  status: ('A' for Active; 'I' for Inactive)
REMARK    1  A    between atoms: C_1  and  N_2
REMARK    2  A    between atoms: C_10  and  N_11
REMARK    3  A    between atoms: N_11  and  N_12
REMARK    4  A    between atoms: N_12  and  C_13
REMARK    5  A    between atoms: N_12  and  C_19
REMARK                            x       y       z     vdW  Elec       q    Type
REMARK                         _______ _______ _______ _____ _____    ______ ____
ROOT
ATOM      1  N   UNL     1       3.566  -2.825  -0.238  0.00  0.00    -0.266 N 
ATOM      2  H   UNL     1       4.335  -2.237  -0.288  0.00  0.00    +0.170 HD
ENDROOT
BRANCH   1  12
ATOM      3  C   UNL     1       3.269   2.514  -0.993  0.00  0.00    +0.138 C 
ATOM      4  N   UNL     1       2.563   1.239  -0.845  0.00  0.00    -0.270 N 
ATOM      5  C   UNL     1       1.182   1.100  -0.882  0.00  0.00    +0.044 A 
ATOM      6  C   UNL     1       0.161   2.030  -1.053  0.00  0.00    +0.024 A 
ATOM      7  C   UNL     1      -1.156   1.620  -1.050  0.00  0.00    +0.002 A 
ATOM      8  C   UNL     1      -1.479   0.284  -0.877  0.00  0.00    +0.001 A 
ATOM      9  C   UNL     1      -0.480  -0.653  -0.705  0.00  0.00    +0.010 A 
ATOM     10  C   UNL     1       0.851  -0.250  -0.707  0.00  0.00    +0.010 A 
ATOM     11  C   UNL     1       2.133  -0.977  -0.554  0.00  0.00    +0.061 C 
ATOM     12  C   UNL     1       2.310  -2.316  -0.360  0.00  0.00    +0.102 C 
ATOM     13  C   UNL     1       3.171   0.055  -0.661  0.00  0.00    +0.252 C 
ATOM     14  O   UNL     1       4.373  -0.130  -0.592  0.00  0.00    -0.270 OA
ENDBRANCH   1  12
BRANCH   1  15
ATOM     15  N   UNL     1       3.748  -4.200  -0.039  0.00  0.00    -0.222 N 
BRANCH  15  16
ATOM     16  C   UNL     1       3.575  -5.088  -1.104  0.00  0.00    +0.053 A 
ATOM     17  C   UNL     1       3.411  -4.604  -2.395  0.00  0.00    +0.025 A 
ATOM     18  C   UNL     1       3.241  -5.485  -3.445  0.00  0.00    +0.002 A 
ATOM     19  C   UNL     1       3.235  -6.848  -3.212  0.00  0.00    +0.000 A 
ATOM     20  C   UNL     1       3.398  -7.334  -1.928  0.00  0.00    +0.002 A 
ATOM     21  C   UNL     1       3.574  -6.459  -0.874  0.00  0.00    +0.025 A 
ENDBRANCH  15  16
BRANCH  15  22
ATOM     22  C   UNL     1       4.101  -4.683   1.223  0.00  0.00    +0.053 A 
ATOM     23  C   UNL     1       5.229  -5.479   1.373  0.00  0.00    +0.025 A 
ATOM     24  C   UNL     1       5.576  -5.955   2.623  0.00  0.00    +0.002 A 
ATOM     25  C   UNL     1       4.801  -5.639   3.724  0.00  0.00    +0.000 A 
ATOM     26  C   UNL     1       3.676  -4.847   3.578  0.00  0.00    +0.002 A 
ATOM     27  C   UNL     1       3.328  -4.363   2.332  0.00  0.00    +0.025 A 
ENDBRANCH  15  22
ENDBRANCH   1  15
TORSDOF 4
