REMARK  Name = ZINC15314298
REMARK  7 active torsions:
REMARK  status: ('A' for Active; 'I' for Inactive)
REMARK    1  A    between atoms: C_1  and  C_2
REMARK    2  A    between atoms: C_2  and  C_4
REMARK    3  A    between atoms: C_2  and  N_14
REMARK    4  A    between atoms: C_15  and  C_17
REMARK    5  A    between atoms: C_17  and  N_18
REMARK    6  A    between atoms: C_21  and  C_25
REMARK    7  A    between atoms: C_21  and  C_26
REMARK                            x       y       z     vdW  Elec       q    Type
REMARK                         _______ _______ _______ _____ _____    ______ ____
ROOT
ATOM      1  N   UNL     1       3.873   0.958   1.781  0.00  0.00    -0.215 N 
ATOM      2  C   UNL     1       3.515   1.784   0.779  0.00  0.00    +0.251 C 
ATOM      3  O   UNL     1       3.943   2.897   0.558  0.00  0.00    -0.272 OA
ATOM      4  C   UNL     1       2.466   1.033  -0.017  0.00  0.00    +0.135 C 
ATOM      5  N   UNL     1       2.343  -0.250   0.697  0.00  0.00    -0.281 N 
ATOM      6  C   UNL     1       3.204  -0.200   1.730  0.00  0.00    +0.310 C 
ATOM      7  O   UNL     1       3.355  -1.104   2.528  0.00  0.00    -0.252 OA
ATOM      8  C   UNL     1       2.935   0.806  -1.455  0.00  0.00    +0.047 C 
ATOM      9  H   UNL     1       1.757  -0.988   0.467  0.00  0.00    +0.152 HD
ENDROOT
BRANCH   4  10
ATOM     10  C   UNL     1       1.155   1.776   0.001  0.00  0.00    -0.015 A 
ATOM     11  C   UNL     1       1.155   3.170   0.008  0.00  0.00    +0.007 A 
ATOM     12  C   UNL     1      -0.011   3.871   0.023  0.00  0.00    +0.009 A 
ATOM     13  C   UNL     1      -1.236   3.183   0.031  0.00  0.00    -0.018 A 
ATOM     14  C   UNL     1      -2.460   3.873   0.047  0.00  0.00    +0.008 A 
ATOM     15  C   UNL     1      -3.627   3.172   0.055  0.00  0.00    +0.001 A 
ATOM     16  C   UNL     1      -3.628   1.779   0.048  0.00  0.00    +0.001 A 
ATOM     17  C   UNL     1      -2.462   1.077   0.032  0.00  0.00    +0.008 A 
ATOM     18  C   UNL     1      -1.237   1.766   0.018  0.00  0.00    -0.018 A 
ATOM     19  C   UNL     1      -0.013   1.076   0.008  0.00  0.00    +0.014 A 
ENDBRANCH   4  10
BRANCH   1  20
ATOM     20  C   UNL     1       4.874   1.285   2.800  0.00  0.00    +0.213 C 
BRANCH  20  22
ATOM     21  N   UNL     1       7.316   1.044   3.107  0.00  0.00    -0.311 N 
ATOM     22  C   UNL     1       6.235   0.844   2.328  0.00  0.00    +0.231 C 
ATOM     23  O   UNL     1       6.358   0.308   1.246  0.00  0.00    -0.274 OA
ATOM     24  H   UNL     1       7.218   1.472   3.971  0.00  0.00    +0.149 HD
BRANCH  21  26
ATOM     25  C   UNL     1       9.253   1.706   1.768  0.00  0.00    +0.028 C 
ATOM     26  C   UNL     1       8.640   0.615   2.647  0.00  0.00    +0.076 C 
BRANCH  26  27
ATOM     27  C   UNL     1       9.543   0.366   3.857  0.00  0.00    -0.010 C 
ATOM     28  C   UNL     1       8.930  -0.725   4.736  0.00  0.00    +0.012 C 
ATOM     29  C   UNL     1       9.834  -0.973   5.946  0.00  0.00    -0.010 C 
ATOM     30  C   UNL     1      11.216  -1.422   5.466  0.00  0.00    +0.007 C 
ATOM     31  C   UNL     1      11.829  -0.330   4.587  0.00  0.00    -0.010 C 
ATOM     32  C   UNL     1      10.925  -0.082   3.377  0.00  0.00    +0.012 C 
ATOM     33  C   UNL     1      11.964   0.961   5.396  0.00  0.00    +0.007 C 
ATOM     34  C   UNL     1      10.582   1.409   5.876  0.00  0.00    -0.010 C 
ATOM     35  C   UNL     1       9.969   0.318   6.755  0.00  0.00    +0.007 C 
ATOM     36  C   UNL     1       9.678   1.658   4.667  0.00  0.00    +0.012 C 
ENDBRANCH  26  27
ENDBRANCH  21  26
ENDBRANCH  20  22
ENDBRANCH   1  20
TORSDOF 5
