REMARK  Name = ZINC52569923
REMARK  10 active torsions:
REMARK  status: ('A' for Active; 'I' for Inactive)
REMARK    1  A    between atoms: C_1  and  C_2
REMARK    2  A    between atoms: C_7  and  C_9
REMARK    3  A    between atoms: C_11  and  O_21
REMARK    4  A    between atoms: C_14  and  C_15
REMARK    5  A    between atoms: C_19  and  C_20
REMARK    6  A    between atoms: O_21  and  C_22
REMARK    7  A    between atoms: C_22  and  C_23
REMARK    8  A    between atoms: C_23  and  C_25
REMARK    9  A    between atoms: C_23  and  N_35
REMARK   10  A    between atoms: C_25  and  C_26
REMARK                            x       y       z     vdW  Elec       q    Type
REMARK                         _______ _______ _______ _____ _____    ______ ____
ROOT
ATOM      1  C   UNL     1       2.959   1.119  -5.338  0.00  0.00    +0.031 A 
ATOM      2  C   UNL     1       4.016   0.804  -4.483  0.00  0.00    +0.059 A 
ATOM      3  C   UNL     1       5.072   1.702  -4.380  0.00  0.00    +0.139 A 
ATOM      4  C   UNL     1       5.044   2.875  -5.122  0.00  0.00    +0.157 A 
ATOM      5  N   UNL     1       4.034   3.150  -5.922  0.00  0.00    -0.251 NA
ATOM      6  C   UNL     1       3.006   2.323  -6.059  0.00  0.00    +0.084 A 
ENDROOT
BRANCH   1  13
ATOM      7  C   UNL     1       0.255  -1.566  -9.364  0.00  0.00    +0.070 C 
ATOM      8  C   UNL     1      -0.178  -1.704  -7.928  0.00  0.00    +0.087 A 
ATOM      9  C   UNL     1       0.430  -1.071  -6.816  0.00  0.00    +0.131 A 
ATOM     10  C   UNL     1      -0.291  -1.474  -5.672  0.00  0.00    +0.175 A 
ATOM     11  N   UNL     1       0.065  -1.026  -4.473  0.00  0.00    -0.233 NA
ATOM     12  C   UNL     1       1.089  -0.208  -4.354  0.00  0.00    +0.141 A 
ATOM     13  C   UNL     1       1.809   0.197  -5.486  0.00  0.00    +0.092 A 
ATOM     14  N   UNL     1       1.465  -0.242  -6.688  0.00  0.00    -0.240 NA
ATOM     15  N   UNL     1      -1.282  -2.312  -6.111  0.00  0.00    -0.259 N 
ATOM     16  N   UNL     1      -1.178  -2.420  -7.502  0.00  0.00    -0.175 NA
ATOM     17  H   UNL     1      -1.943  -2.751  -5.553  0.00  0.00    +0.191 HD
ENDBRANCH   1  13
BRANCH   6  18
ATOM     18  C   UNL     1       1.898   2.675  -6.977  0.00  0.00    +0.042 A 
ATOM     19  C   UNL     1       0.492   2.902  -6.621  0.00  0.00    +0.051 A 
ATOM     20  C   UNL     1      -0.139   3.192  -7.771  0.00  0.00    +0.196 A 
ATOM     21  O   UNL     1       0.748   3.161  -8.777  0.00  0.00    -0.467 OA
ATOM     22  C   UNL     1       1.972   2.860  -8.322  0.00  0.00    +0.111 A 
ATOM     23  C   UNL     1       3.220   2.742  -9.159  0.00  0.00    +0.087 C 
ENDBRANCH   6  18
BRANCH   3  24
ATOM     24  O   UNL     1       6.122   1.434  -3.559  0.00  0.00    -0.492 OA
BRANCH  24  25
ATOM     25  C   UNL     1       7.168   2.406  -3.506  0.00  0.00    +0.213 C 
BRANCH  25  26
ATOM     26  C   UNL     1       8.254   1.934  -2.537  0.00  0.00    -0.033 C 
BRANCH  26  27
ATOM     27  N   UNL     1       8.882   0.714  -3.061  0.00  0.00    +0.382 N 
ATOM     28  H   UNL     1       9.598   0.403  -2.422  0.00  0.00    -0.089 HD
ATOM     29  H   UNL     1       8.184  -0.008  -3.161  0.00  0.00    -0.089 HD
ATOM     30  H   UNL     1       9.296   0.908  -3.961  0.00  0.00    -0.089 HD
ENDBRANCH  26  27
BRANCH  26  31
ATOM     31  C   UNL     1       9.313   3.028  -2.385  0.00  0.00    +0.020 C 
BRANCH  31  32
ATOM     32  C   UNL     1      10.316   2.615  -1.339  0.00  0.00    -0.043 C 
ATOM     33  C   UNL     1      11.504   2.004  -1.549  0.00  0.00    -0.001 A 
ATOM     34  C   UNL     1      12.192   1.558  -2.766  0.00  0.00    +0.010 A 
ATOM     35  C   UNL     1      13.402   0.963  -2.655  0.00  0.00    +0.001 A 
ATOM     36  C   UNL     1      14.013   0.762  -1.410  0.00  0.00    +0.002 A 
ATOM     37  C   UNL     1      13.444   1.145  -0.248  0.00  0.00    +0.026 A 
ATOM     38  C   UNL     1      12.172   1.781  -0.246  0.00  0.00    +0.043 A 
ATOM     39  N   UNL     1      11.425   2.236   0.730  0.00  0.00    -0.380 N 
ATOM     40  C   UNL     1      10.200   2.806   0.157  0.00  0.00    +0.144 C 
ATOM     41  H   UNL     1      11.646   2.205   1.674  0.00  0.00    +0.160 HD
ENDBRANCH  31  32
ENDBRANCH  26  31
ENDBRANCH  25  26
ENDBRANCH  24  25
ENDBRANCH   3  24
TORSDOF 8
