REMARK  Name = ZINC12887616
REMARK  11 active torsions:
REMARK  status: ('A' for Active; 'I' for Inactive)
REMARK    1  A    between atoms: C_1  and  C_2
REMARK    2  A    between atoms: C_2  and  C_3
REMARK    3  A    between atoms: C_3  and  C_5
REMARK    4  A    between atoms: C_3  and  C_6
REMARK    5  A    between atoms: C_6  and  C_8
REMARK    6  A    between atoms: C_6  and  N_16
REMARK    7  A    between atoms: N_10  and  C_11
REMARK    8  A    between atoms: C_11  and  C_13
REMARK    9  A    between atoms: C_11  and  C_14
REMARK   10  A    between atoms: C_14  and  C_15
REMARK   11  A    between atoms: C_17  and  C_19
REMARK                            x       y       z     vdW  Elec       q    Type
REMARK                         _______ _______ _______ _____ _____    ______ ____
ROOT
ATOM      1  C   UNL     1       3.484   1.701   0.032  0.00  0.00    +0.167 C 
ATOM      2  C   UNL     1       2.679   1.469   1.318  0.00  0.00    +0.069 C 
ATOM      3  C   UNL     1       1.913   0.174   1.229  0.00  0.00    -0.015 A 
ATOM      4  C   UNL     1       0.822  -0.262   2.082  0.00  0.00    +0.003 A 
ATOM      5  C   UNL     1       0.169   0.342   3.161  0.00  0.00    +0.010 A 
ATOM      6  C   UNL     1      -0.844  -0.373   3.751  0.00  0.00    +0.001 A 
ATOM      7  C   UNL     1      -1.210  -1.634   3.308  0.00  0.00    +0.002 A 
ATOM      8  C   UNL     1      -0.580  -2.255   2.243  0.00  0.00    +0.026 A 
ATOM      9  C   UNL     1       0.452  -1.552   1.624  0.00  0.00    +0.047 A 
ATOM     10  N   UNL     1       1.264  -1.857   0.572  0.00  0.00    -0.356 N 
ATOM     11  H   UNL     1       1.236  -2.685   0.066  0.00  0.00    +0.166 HD
ATOM     12  C   UNL     1       2.127  -0.821   0.338  0.00  0.00    +0.046 A 
ATOM     13  C   UNL     1       3.179  -0.744  -0.742  0.00  0.00    +0.155 C 
ATOM     14  N   UNL     1       4.038   0.409  -0.389  0.00  0.00    -0.273 N 
ATOM     15  C   UNL     1       5.320   0.024  -0.453  0.00  0.00    +0.248 C 
ATOM     16  O   UNL     1       6.279   0.770  -0.408  0.00  0.00    -0.270 OA
ATOM     17  C   UNL     1       5.390  -1.435  -0.584  0.00  0.00    +0.042 A 
ATOM     18  C   UNL     1       4.081  -1.931  -0.749  0.00  0.00    -0.009 A 
ATOM     19  C   UNL     1       3.832  -3.279  -0.881  0.00  0.00    +0.006 A 
ATOM     20  C   UNL     1       4.932  -4.131  -0.860  0.00  0.00    +0.000 A 
ATOM     21  C   UNL     1       6.219  -3.653  -0.715  0.00  0.00    +0.001 A 
ATOM     22  C   UNL     1       6.487  -2.300  -0.576  0.00  0.00    +0.013 A 
ENDROOT
BRANCH   1  24
ATOM     23  N   UNL     1       5.605   2.338   1.135  0.00  0.00    -0.302 N 
ATOM     24  C   UNL     1       4.603   2.675   0.299  0.00  0.00    +0.235 C 
ATOM     25  O   UNL     1       4.602   3.762  -0.239  0.00  0.00    -0.274 OA
ATOM     26  H   UNL     1       5.634   1.450   1.524  0.00  0.00    +0.150 HD
BRANCH  23  27
ATOM     27  C   UNL     1       6.650   3.312   1.456  0.00  0.00    +0.162 C 
BRANCH  27  28
ATOM     28  C   UNL     1       7.960   2.596   1.658  0.00  0.00    +0.234 C 
ATOM     29  O   UNL     1       7.991   1.384   1.686  0.00  0.00    -0.274 OA
ATOM     30  N   UNL     1       9.098   3.302   1.808  0.00  0.00    -0.311 N 
ATOM     31  H   UNL     1       9.066   4.271   1.857  0.00  0.00    +0.149 HD
BRANCH  30  32
ATOM     32  C   UNL     1      10.385   2.608   1.897  0.00  0.00    +0.070 C 
ATOM     33  C   UNL     1      10.634   2.179   3.344  0.00  0.00    +0.028 C 
BRANCH  32  34
ATOM     34  C   UNL     1      11.505   3.547   1.444  0.00  0.00    +0.018 C 
ATOM     35  C   UNL     1      11.324   3.877  -0.039  0.00  0.00    +0.005 C 
ENDBRANCH  32  34
ENDBRANCH  30  32
ENDBRANCH  27  28
BRANCH  27  36
ATOM     36  C   UNL     1       6.274   4.059   2.738  0.00  0.00    +0.015 C 
ATOM     37  C   UNL     1       5.051   4.940   2.475  0.00  0.00    +0.010 C 
BRANCH  36  39
ATOM     38  C   UNL     1       7.235   2.359   4.295  0.00  0.00    +0.004 C 
ATOM     39  C   UNL     1       5.948   3.049   3.840  0.00  0.00    +0.002 C 
ENDBRANCH  36  39
ENDBRANCH  27  36
ENDBRANCH  23  27
ENDBRANCH   1  24
TORSDOF 7
