REMARK  Name = ZINC36378980
REMARK  9 active torsions:
REMARK  status: ('A' for Active; 'I' for Inactive)
REMARK    1  A    between atoms: C_1  and  C_2
REMARK    2  A    between atoms: C_2  and  C_4
REMARK    3  A    between atoms: C_2  and  C_10
REMARK    4  A    between atoms: C_4  and  C_5
REMARK    5  A    between atoms: C_5  and  C_6
REMARK    6  A    between atoms: C_6  and  C_7
REMARK    7  A    between atoms: C_16  and  C_35
REMARK    8  A    between atoms: C_27  and  C_34
REMARK    9  A    between atoms: C_30  and  O_33
REMARK                            x       y       z     vdW  Elec       q    Type
REMARK                         _______ _______ _______ _____ _____    ______ ____
ROOT
ATOM      1  C   UNL     1       0.871  -0.567   1.176  0.00  0.00    -0.002 C 
ATOM      2  C   UNL     1       1.172  -2.084   1.069  0.00  0.00    +0.004 C 
ATOM      3  C   UNL     1       2.710  -2.239   1.258  0.00  0.00    +0.004 C 
ATOM      4  C   UNL     1       3.080  -0.909   1.936  0.00  0.00    -0.001 C 
ATOM      5  C   UNL     1       2.265   0.093   1.090  0.00  0.00    -0.026 C 
ATOM      6  C   UNL     1       2.354   1.475   1.677  0.00  0.00    +0.007 C 
ATOM      7  C   UNL     1       3.794   1.849   2.054  0.00  0.00    +0.005 C 
ATOM      8  C   UNL     1       4.819   0.859   1.537  0.00  0.00    -0.001 C 
ATOM      9  C   UNL     1       4.529  -0.559   2.028  0.00  0.00    -0.004 C 
ATOM     10  C   UNL     1       5.446  -1.528   1.279  0.00  0.00    +0.004 C 
ATOM     11  C   UNL     1       6.889  -1.196   1.680  0.00  0.00    +0.004 C 
ATOM     12  C   UNL     1       7.224   0.246   1.303  0.00  0.00    -0.002 C 
ATOM     13  C   UNL     1       6.251   1.238   1.944  0.00  0.00    -0.026 C 
ATOM     14  C   UNL     1       6.394   1.224   3.461  0.00  0.00    +0.010 C 
ATOM     15  C   UNL     1       7.833   1.536   3.872  0.00  0.00    +0.032 C 
ATOM     16  C   UNL     1       8.787   0.520   3.244  0.00  0.00    +0.115 C 
ATOM     17  C   UNL     1       8.661   0.556   1.722  0.00  0.00    +0.035 C 
ATOM     18  C   UNL     1       6.550   2.644   1.406  0.00  0.00    +0.012 C 
ATOM     19  C   UNL     1       2.659   0.086  -0.386  0.00  0.00    +0.012 C 
ENDROOT
BRANCH   1  21
ATOM     20  C   UNL     1      -0.263   1.393   0.128  0.00  0.00    +0.008 C 
ATOM     21  C   UNL     1       0.008  -0.107   0.004  0.00  0.00    -0.010 C 
BRANCH  21  22
ATOM     22  C   UNL     1      -1.319  -0.868   0.019  0.00  0.00    +0.004 C 
BRANCH  22  23
ATOM     23  C   UNL     1      -2.132  -0.500  -1.224  0.00  0.00    +0.009 C 
BRANCH  23  24
ATOM     24  C   UNL     1      -3.459  -1.261  -1.210  0.00  0.00    +0.095 C 
BRANCH  24  25
ATOM     25  C   UNL     1      -4.260  -0.898  -2.434  0.00  0.00    +0.210 C 
ATOM     26  O   UNL     1      -3.813  -0.109  -3.239  0.00  0.00    -0.276 OA
ATOM     27  N   UNL     1      -5.473  -1.451  -2.634  0.00  0.00    -0.329 N 
ATOM     28  H   UNL     1      -5.830  -2.083  -1.990  0.00  0.00    +0.145 HD
ATOM     29  H   UNL     1      -5.988  -1.218  -3.422  0.00  0.00    +0.145 HD
ENDBRANCH  24  25
ENDBRANCH  23  24
ENDBRANCH  22  23
ENDBRANCH  21  22
ENDBRANCH   1  21
BRANCH  16  30
ATOM     30  O   UNL     1      10.132   0.843   3.615  0.00  0.00    -0.392 OA
ATOM     31  H   UNL     1      10.290   0.833   4.569  0.00  0.00    +0.210 HD
ENDBRANCH  16  30
TORSDOF 6
