REMARK  Name = ZINC63537904
REMARK  5 active torsions:
REMARK  status: ('A' for Active; 'I' for Inactive)
REMARK    1  A    between atoms: C_3  and  C_6
REMARK    2  A    between atoms: C_9  and  C_34
REMARK    3  A    between atoms: C_15  and  C_19
REMARK    4  A    between atoms: N_21  and  C_22
REMARK    5  A    between atoms: C_22  and  C_23
REMARK                            x       y       z     vdW  Elec       q    Type
REMARK                         _______ _______ _______ _____ _____    ______ ____
ROOT
ATOM      1  C   UNL     1       3.599   0.625  -0.029  0.00  0.00    +0.123 C 
ATOM      2  C   UNL     1       4.113   0.497   1.404  0.00  0.00    +0.056 C 
ATOM      3  C   UNL     1       3.756  -0.881   1.985  0.00  0.00    +0.180 C 
ATOM      4  N   UNL     1       4.279  -1.887   1.071  0.00  0.00    -0.213 NA
ATOM      5  C   UNL     1       3.588  -1.755  -0.241  0.00  0.00    +0.153 C 
ATOM      6  N   UNL     1       4.050  -0.514  -0.853  0.00  0.00    -0.290 NA
ATOM      7  C   UNL     1       4.026  -3.027  -0.977  0.00  0.00    +0.123 C 
ATOM      8  C   UNL     1       4.314  -4.032   0.168  0.00  0.00    +0.114 C 
ATOM      9  N   UNL     1       4.072  -3.280   1.431  0.00  0.00    -0.251 NA
ATOM     10  H   UNL     1       3.712  -0.431  -1.800  0.00  0.00    +0.124 HD
ATOM     11  H   UNL     1       3.132  -3.430   1.767  0.00  0.00    +0.141 HD
ENDROOT
BRANCH   1  14
ATOM     12  C   UNL     1      -0.018   1.325  -0.136  0.00  0.00    +0.041 A 
ATOM     13  C   UNL     1       1.328   1.741  -0.252  0.00  0.00    +0.046 A 
ATOM     14  C   UNL     1       2.092   0.660  -0.014  0.00  0.00    +0.122 A 
ATOM     15  O   UNL     1       1.285  -0.383   0.238  0.00  0.00    -0.466 OA
ATOM     16  C   UNL     1       0.004   0.014   0.166  0.00  0.00    +0.195 A 
ENDBRANCH   1  14
BRANCH   7  17
ATOM     17  C   UNL     1       2.918  -3.534  -1.865  0.00  0.00    +0.220 C 
ATOM     18  O   UNL     1       1.862  -2.940  -1.916  0.00  0.00    -0.275 OA
ATOM     19  N   UNL     1       3.101  -4.647  -2.602  0.00  0.00    -0.313 N 
ATOM     20  H   UNL     1       3.946  -5.122  -2.561  0.00  0.00    +0.149 HD
BRANCH  19  21
ATOM     21  C   UNL     1       2.025  -5.140  -3.465  0.00  0.00    +0.133 C 
BRANCH  21  22
ATOM     22  C   UNL     1       2.488  -6.407  -4.186  0.00  0.00    +0.120 C 
ATOM     23  C   UNL     1       1.334  -7.030  -4.938  0.00  0.00    +0.009 C 
ATOM     24  C   UNL     1       1.165  -8.264  -4.411  0.00  0.00    -0.003 A 
ATOM     25  C   UNL     1       0.223  -9.351  -4.704  0.00  0.00    +0.029 A 
ATOM     26  C   UNL     1       0.301 -10.498  -3.990  0.00  0.00    +0.042 A 
ATOM     27  C   UNL     1       1.258 -10.674  -2.980  0.00  0.00    +0.022 A 
ATOM     28  C   UNL     1       2.157  -9.721  -2.654  0.00  0.00    +0.027 A 
ATOM     29  C   UNL     1       2.166  -8.476  -3.340  0.00  0.00    +0.043 A 
ATOM     30  N   UNL     1       2.925  -7.413  -3.211  0.00  0.00    -0.376 N 
ATOM     31 CL   UNL     1      -0.813 -11.784  -4.333  0.00  0.00    -0.084 Cl
ATOM     32  H   UNL     1       3.652  -7.308  -2.577  0.00  0.00    +0.160 HD
ENDBRANCH  21  22
ENDBRANCH  19  21
ENDBRANCH   7  17
BRANCH   3  33
ATOM     33  C   UNL     1       4.396  -1.046   3.365  0.00  0.00    +0.406 C 
ATOM     34  F   UNL     1       3.922  -0.046   4.222  0.00  0.00    -0.169 F 
ATOM     35  F   UNL     1       4.066  -2.301   3.886  0.00  0.00    -0.169 F 
ATOM     36  F   UNL     1       5.786  -0.940   3.249  0.00  0.00    -0.169 F 
ENDBRANCH   3  33
TORSDOF 5
