REMARK  Name = ZINC15290829
REMARK  6 active torsions:
REMARK  status: ('A' for Active; 'I' for Inactive)
REMARK    1  A    between atoms: C_6  and  N_7
REMARK    2  A    between atoms: C_8  and  C_10
REMARK    3  A    between atoms: C_10  and  N_11
REMARK    4  A    between atoms: C_12  and  C_14
REMARK    5  A    between atoms: C_14  and  N_15
REMARK    6  A    between atoms: N_15  and  C_16
REMARK                            x       y       z     vdW  Elec       q    Type
REMARK                         _______ _______ _______ _____ _____    ______ ____
ROOT
ATOM      1  N   UNL     1      -2.130   8.302   0.090  0.00  0.00    -0.305 N 
ATOM      2  C   UNL     1      -1.094   7.440   0.087  0.00  0.00    +0.231 C 
ATOM      3  O   UNL     1       0.044   7.859   0.083  0.00  0.00    -0.274 OA
ATOM      4  H   UNL     1      -3.040   7.967   0.093  0.00  0.00    +0.149 HD
ENDROOT
BRANCH   1   5
ATOM      5  C   UNL     1      -1.881   9.746   0.088  0.00  0.00    +0.200 C 
BRANCH   5   7
ATOM      6  N   UNL     1      -3.214  11.830   0.092  0.00  0.00    -0.282 N 
ATOM      7  C   UNL     1      -3.196  10.482   0.092  0.00  0.00    +0.234 C 
ATOM      8  O   UNL     1      -4.238   9.862   0.096  0.00  0.00    -0.274 OA
ATOM      9  H   UNL     1      -2.382  12.326   0.154  0.00  0.00    +0.155 HD
BRANCH   6  15
ATOM     10  C   UNL     1      -5.570  11.992   0.601  0.00  0.00    +0.029 A 
ATOM     11  C   UNL     1      -6.771  12.670   0.516  0.00  0.00    +0.043 A 
ATOM     12  C   UNL     1      -6.845  13.866  -0.176  0.00  0.00    +0.161 A 
ATOM     13  C   UNL     1      -5.713  14.390  -0.782  0.00  0.00    +0.195 A 
ATOM     14  C   UNL     1      -4.507  13.716  -0.695  0.00  0.00    +0.182 A 
ATOM     15  C   UNL     1      -4.433  12.515   0.001  0.00  0.00    +0.072 A 
ATOM     16  F   UNL     1      -3.403  14.225  -1.284  0.00  0.00    -0.200 F 
ATOM     17  F   UNL     1      -5.787  15.557  -1.458  0.00  0.00    -0.199 F 
ATOM     18  F   UNL     1      -8.022  14.524  -0.262  0.00  0.00    -0.202 F 
ENDBRANCH   6  15
ENDBRANCH   5   7
ENDBRANCH   1   5
BRANCH   2  19
ATOM     19  C   UNL     1      -1.350   5.955   0.088  0.00  0.00    +0.197 C 
BRANCH  19  20
ATOM     20  N   UNL     1      -0.072   5.239   0.084  0.00  0.00    -0.335 N 
ATOM     21  H   UNL     1       0.762   5.735   0.081  0.00  0.00    +0.147 HD
BRANCH  20  22
ATOM     22  C   UNL     1      -0.053   3.843   0.085  0.00  0.00    +0.030 A 
ATOM     23  C   UNL     1       1.158   3.163   0.081  0.00  0.00    +0.043 A 
ATOM     24  C   UNL     1       1.173   1.781   0.082  0.00  0.00    +0.044 A 
ATOM     25  C   UNL     1      -0.017   1.074   0.085  0.00  0.00    +0.040 A 
ATOM     26  C   UNL     1      -1.225   1.749   0.083  0.00  0.00    +0.044 A 
ATOM     27  C   UNL     1      -1.246   3.131   0.089  0.00  0.00    +0.043 A 
ATOM     28 CL   UNL     1      -2.715   0.859   0.081  0.00  0.00    -0.083 Cl
ATOM     29 CL   UNL     1       2.687   0.930   0.077  0.00  0.00    -0.083 Cl
ENDBRANCH  20  22
ENDBRANCH  19  20
ENDBRANCH   2  19
TORSDOF 6
