REMARK  Name = ZINC36142862
REMARK  1 active torsions:
REMARK  status: ('A' for Active; 'I' for Inactive)
REMARK    1  A    between atoms: C_4  and  N_16
REMARK                            x       y       z     vdW  Elec       q    Type
REMARK                         _______ _______ _______ _____ _____    ______ ____
ROOT
ATOM      1  C   UNL     1      -0.017   1.393   0.010  0.00  0.00    +0.030 A 
ATOM      2  C   UNL     1       1.171   2.094   0.002  0.00  0.00    +0.021 A 
ATOM      3  C   UNL     1       2.381   1.417  -0.014  0.00  0.00    +0.041 A 
ATOM      4  C   UNL     1       2.414   0.031  -0.025  0.00  0.00    +0.069 A 
ATOM      5  C   UNL     1       1.223  -0.694  -0.018  0.00  0.00    +0.152 A 
ATOM      6  C   UNL     1       0.002  -0.004   0.002  0.00  0.00    +0.062 A 
ATOM      7  C   UNL     1      -1.256  -0.771   0.021  0.00  0.00    +0.171 C 
ATOM      8  O   UNL     1      -2.322  -0.243   0.258  0.00  0.00    -0.292 OA
ATOM      9  C   UNL     1      -1.150  -2.258  -0.271  0.00  0.00    +0.127 C 
ATOM     10  C   UNL     1       0.117  -2.768   0.425  0.00  0.00    +0.118 C 
ATOM     11  O   UNL     1       1.256  -2.048  -0.035  0.00  0.00    -0.483 OA
ATOM     12  C   UNL     1       0.293  -4.270   0.140  0.00  0.00    +0.048 C 
ATOM     13  C   UNL     1       0.840  -4.846   1.471  0.00  0.00    +0.004 C 
ATOM     14  C   UNL     1       0.062  -4.037   2.539  0.00  0.00    +0.004 C 
ATOM     15  C   UNL     1      -0.030  -2.615   1.946  0.00  0.00    +0.048 C 
ATOM     16 BR   UNL     1       1.150   3.985   0.013  0.00  0.00    -0.050 Br
ENDROOT
BRANCH   4  17
ATOM     17  N   UNL     1       3.642  -0.640  -0.044  0.00  0.00    -0.355 N 
ATOM     18  H   UNL     1       4.470  -0.135  -0.049  0.00  0.00    +0.142 HD
ATOM     19  H   UNL     1       3.665  -1.610  -0.052  0.00  0.00    +0.142 HD
ENDBRANCH   4  17
TORSDOF 1
