REMARK  Name = ZINC38677973
REMARK  9 active torsions:
REMARK  status: ('A' for Active; 'I' for Inactive)
REMARK    1  A    between atoms: C_1  and  C_2
REMARK    2  A    between atoms: C_2  and  O_3
REMARK    3  A    between atoms: O_3  and  C_4
REMARK    4  A    between atoms: C_7  and  C_10
REMARK    5  A    between atoms: C_10  and  O_12
REMARK    6  A    between atoms: O_12  and  C_13
REMARK    7  A    between atoms: C_20  and  N_33
REMARK    8  A    between atoms: C_21  and  C_31
REMARK    9  A    between atoms: C_22  and  C_24
REMARK                            x       y       z     vdW  Elec       q    Type
REMARK                         _______ _______ _______ _____ _____    ______ ____
ROOT
ATOM      1  C   UNL     1       1.840  -7.899   2.837  0.00  0.00    +0.135 A 
ATOM      2  C   UNL     1       1.321  -8.622   1.772  0.00  0.00    +0.047 A 
ATOM      3  C   UNL     1       1.387 -10.001   1.776  0.00  0.00    +0.012 A 
ATOM      4  C   UNL     1       1.970 -10.668   2.839  0.00  0.00    +0.008 A 
ATOM      5  C   UNL     1       2.491  -9.951   3.905  0.00  0.00    +0.138 A 
ATOM      6  C   UNL     1       2.429  -8.564   3.900  0.00  0.00    +0.093 A 
ATOM      7  O   UNL     1       3.066 -10.587   4.956  0.00  0.00    -0.441 OA
ATOM      8  C   UNL     1       3.487 -11.856   4.823  0.00  0.00    +0.199 C 
ATOM      9  C   UNL     1       3.035 -12.661   3.832  0.00  0.00    +0.098 C 
ATOM     10  C   UNL     1       2.033 -12.172   2.825  0.00  0.00    +0.098 C 
ENDROOT
BRANCH  10  11
ATOM     11  C   UNL     1       0.674 -12.732   3.162  0.00  0.00    -0.032 A 
ATOM     12  C   UNL     1       0.083 -12.427   4.374  0.00  0.00    +0.005 A 
ATOM     13  C   UNL     1      -1.163 -12.939   4.684  0.00  0.00    +0.003 A 
ATOM     14  C   UNL     1      -1.819 -13.757   3.783  0.00  0.00    +0.038 A 
ATOM     15  C   UNL     1      -1.227 -14.063   2.570  0.00  0.00    +0.124 A 
ATOM     16  C   UNL     1       0.018 -13.544   2.257  0.00  0.00    +0.043 A 
ATOM     17  F   UNL     1      -1.867 -14.863   1.689  0.00  0.00    -0.205 F 
ENDBRANCH  10  11
BRANCH   8  18
ATOM     18  N   UNL     1       4.403 -12.351   5.718  0.00  0.00    -0.328 N 
ATOM     19  H   UNL     1       4.736 -11.787   6.433  0.00  0.00    +0.145 HD
ATOM     20  H   UNL     1       4.716 -13.265   5.635  0.00  0.00    +0.145 HD
ENDBRANCH   8  18
BRANCH   9  21
ATOM     21  C   UNL     1       3.522 -14.004   3.743  0.00  0.00    +0.101 C 
ATOM     22  N   UNL     1       3.909 -15.070   3.672  0.00  0.00    -0.191 NA
ENDBRANCH   9  21
BRANCH   1  23
ATOM     23  O   UNL     1       1.776  -6.542   2.834  0.00  0.00    -0.422 OA
BRANCH  23  24
ATOM     24  C   UNL     1       2.897  -5.856   2.532  0.00  0.00    +0.344 C 
ATOM     25  O   UNL     1       3.944  -6.449   2.361  0.00  0.00    -0.245 OA
BRANCH  24  29
ATOM     26  C   UNL     1       2.767  -1.628   2.178  0.00  0.00    +0.121 A 
ATOM     27  C   UNL     1       3.966  -2.303   1.982  0.00  0.00    +0.046 A 
ATOM     28  C   UNL     1       4.013  -3.674   2.096  0.00  0.00    +0.018 A 
ATOM     29  C   UNL     1       2.852  -4.388   2.409  0.00  0.00    +0.060 A 
ATOM     30  C   UNL     1       1.648  -3.704   2.606  0.00  0.00    +0.018 A 
ATOM     31  C   UNL     1       1.611  -2.332   2.495  0.00  0.00    +0.046 A 
BRANCH  26  32
ATOM     32  O   UNL     1       2.725  -0.276   2.065  0.00  0.00    -0.492 OA
BRANCH  32  34
ATOM     33  C   UNL     1       3.707   1.894   1.653  0.00  0.00    +0.048 C 
ATOM     34  C   UNL     1       3.949   0.385   1.737  0.00  0.00    +0.225 C 
ENDBRANCH  32  34
ENDBRANCH  26  32
ENDBRANCH  24  29
ENDBRANCH  23  24
ENDBRANCH   1  23
TORSDOF 8
