REMARK  Name = ZINC20168491
REMARK  10 active torsions:
REMARK  status: ('A' for Active; 'I' for Inactive)
REMARK    1  A    between atoms: C_1  and  C_2
REMARK    2  A    between atoms: C_2  and  O_3
REMARK    3  A    between atoms: O_3  and  C_4
REMARK    4  A    between atoms: C_4  and  C_6
REMARK    5  A    between atoms: C_10  and  N_11
REMARK    6  A    between atoms: N_11  and  C_12
REMARK    7  A    between atoms: C_12  and  N_14
REMARK    8  A    between atoms: N_14  and  N_15
REMARK    9  A    between atoms: C_16  and  C_18
REMARK   10  A    between atoms: C_21  and  C_23
REMARK                            x       y       z     vdW  Elec       q    Type
REMARK                         _______ _______ _______ _____ _____    ______ ____
ROOT
ATOM      1  C   UNL     1       7.908  -2.931  -0.095  0.00  0.00    +0.091 A 
ATOM      2  C   UNL     1       9.210  -3.609  -0.086  0.00  0.00    -0.021 A 
ATOM      3  C   UNL     1       9.127  -4.949  -0.115  0.00  0.00    -0.004 A 
ATOM      4  S   UNL     1       7.392  -5.321  -0.098  0.00  0.00    -0.077 S 
ATOM      5  C   UNL     1       6.764  -3.709  -0.083  0.00  0.00    +0.086 A 
ATOM      6  C   UNL     1      10.239  -5.957  -0.211  0.00  0.00    +0.043 C 
ATOM      7  C   UNL     1      10.644  -6.032  -1.694  0.00  0.00    +0.005 C 
ATOM      8  C   UNL     1      10.960  -4.610  -2.177  0.00  0.00    +0.000 C 
ATOM      9  C   UNL     1      12.133  -4.152  -1.337  0.00  0.00    +0.000 C 
ATOM     10  C   UNL     1      11.743  -3.603   0.024  0.00  0.00    +0.005 C 
ATOM     11  C   UNL     1      10.478  -2.756  -0.026  0.00  0.00    +0.037 C 
ENDROOT
BRANCH   1  12
ATOM     12  C   UNL     1       7.822  -1.470  -0.110  0.00  0.00    +0.342 C 
ATOM     13  O   UNL     1       7.790  -0.851   0.937  0.00  0.00    -0.245 OA
BRANCH  12  14
ATOM     14  O   UNL     1       7.778  -0.809  -1.285  0.00  0.00    -0.461 OA
BRANCH  14  16
ATOM     15  C   UNL     1       7.654   1.208  -2.645  0.00  0.00    +0.048 C 
ATOM     16  C   UNL     1       7.693   0.639  -1.225  0.00  0.00    +0.229 C 
ENDBRANCH  14  16
ENDBRANCH  12  14
ENDBRANCH   1  12
BRANCH   5  17
ATOM     17  N   UNL     1       5.441  -3.298  -0.068  0.00  0.00    -0.290 N 
ATOM     18  H   UNL     1       5.198  -2.225  -0.059  0.00  0.00    +0.154 HD
BRANCH  17  19
ATOM     19  C   UNL     1       4.452  -4.213  -0.064  0.00  0.00    +0.151 C 
ATOM     20  S   UNL     1       4.830  -5.883  -0.077  0.00  0.00    -0.017 S 
BRANCH  19  21
ATOM     21  N   UNL     1       3.165  -3.814  -0.049  0.00  0.00    -0.245 N 
ATOM     22  H   UNL     1       2.357  -4.561  -0.046  0.00  0.00    +0.172 HD
BRANCH  21  23
ATOM     23  N   UNL     1       2.855  -2.447  -0.039  0.00  0.00    -0.231 N 
ATOM     24  C   UNL     1       1.568  -2.048  -0.024  0.00  0.00    +0.267 C 
ATOM     25  O   UNL     1       0.675  -2.874  -0.021  0.00  0.00    -0.268 OA
ATOM     26  H   UNL     1       3.663  -1.701  -0.042  0.00  0.00    +0.173 HD
BRANCH  24  27
ATOM     27  C   UNL     1       1.244  -0.619  -0.013  0.00  0.00    +0.076 A 
ATOM     28  C   UNL     1       0.002  -0.004   0.002  0.00  0.00    +0.021 A 
ATOM     29  C   UNL     1      -0.017   1.368   0.010  0.00  0.00    +0.011 A 
ATOM     30  C   UNL     1       1.160   2.048   0.002  0.00  0.00    -0.013 A 
ATOM     31  S   UNL     1       2.347   0.784  -0.016  0.00  0.00    -0.089 S 
ATOM     32  C   UNL     1       1.380   3.539   0.007  0.00  0.00    +0.051 C 
ENDBRANCH  24  27
ENDBRANCH  21  23
ENDBRANCH  19  21
ENDBRANCH  17  19
ENDBRANCH   5  17
TORSDOF 8
