REMARK  Name = ZINC39325374
REMARK  10 active torsions:
REMARK  status: ('A' for Active; 'I' for Inactive)
REMARK    1  A    between atoms: C_1  and  C_2
REMARK    2  A    between atoms: C_2  and  O_3
REMARK    3  A    between atoms: O_3  and  C_4
REMARK    4  A    between atoms: C_11  and  C_16
REMARK    5  A    between atoms: C_16  and  N_17
REMARK    6  A    between atoms: N_17  and  C_18
REMARK    7  A    between atoms: N_17  and  S_24
REMARK    8  A    between atoms: C_18  and  C_19
REMARK    9  A    between atoms: S_24  and  C_27
REMARK   10  A    between atoms: C_31  and  C_33
REMARK                            x       y       z     vdW  Elec       q    Type
REMARK                         _______ _______ _______ _____ _____    ______ ____
ROOT
ATOM      1  N   UNL     1      -5.286  -7.822  -1.120  0.00  0.00    -0.168 NA
ENDROOT
BRANCH   1   2
ATOM      2  S   UNL     1      -4.164  -8.842  -1.785  0.00  0.00    +0.061 S 
ATOM      3  O   UNL     1      -4.863 -10.014  -2.178  0.00  0.00    -0.153 OA
ATOM      4  O   UNL     1      -3.402  -8.066  -2.699  0.00  0.00    -0.153 OA
BRANCH   2   5
ATOM      5  C   UNL     1      -3.065  -9.320  -0.493  0.00  0.00    +0.106 A 
ATOM      6  C   UNL     1      -1.864  -8.656  -0.326  0.00  0.00    +0.028 A 
ATOM      7  C   UNL     1      -1.002  -9.032   0.688  0.00  0.00    +0.002 A 
ATOM      8  C   UNL     1      -1.341 -10.070   1.535  0.00  0.00    +0.012 A 
ATOM      9  C   UNL     1      -2.543 -10.733   1.368  0.00  0.00    +0.057 A 
ATOM     10  C   UNL     1      -3.407 -10.355   0.357  0.00  0.00    +0.041 A 
BRANCH   9  11
ATOM     11  C   UNL     1      -2.913 -11.866   2.291  0.00  0.00    +0.417 C 
ATOM     12  F   UNL     1      -1.890 -12.058   3.227  0.00  0.00    -0.166 F 
ATOM     13  F   UNL     1      -4.102 -11.554   2.958  0.00  0.00    -0.166 F 
ATOM     14  F   UNL     1      -3.089 -13.036   1.546  0.00  0.00    -0.166 F 
ENDBRANCH   9  11
ENDBRANCH   2   5
ENDBRANCH   1   2
BRANCH   1  15
ATOM     15  C   UNL     1      -5.107  -6.371  -1.218  0.00  0.00    +0.126 C 
BRANCH  15  23
ATOM     16  C   UNL     1      -2.750  -1.518   1.013  0.00  0.00    +0.121 A 
ATOM     17  C   UNL     1      -1.732  -2.246   1.641  0.00  0.00    +0.047 A 
ATOM     18  C   UNL     1      -1.764  -3.599   1.756  0.00  0.00    +0.027 A 
ATOM     19  C   UNL     1      -2.845  -4.336   1.236  0.00  0.00    +0.041 A 
ATOM     20  N   UNL     1      -2.863  -5.664   1.356  0.00  0.00    -0.284 N 
ATOM     21  C   UNL     1      -3.845  -6.418   0.892  0.00  0.00    +0.225 C 
ATOM     22  O   UNL     1      -3.806  -7.625   1.031  0.00  0.00    -0.275 OA
ATOM     23  C   UNL     1      -5.017  -5.772   0.187  0.00  0.00    +0.114 C 
ATOM     24  C   UNL     1      -5.001  -4.263   0.048  0.00  0.00    -0.003 C 
ATOM     25  C   UNL     1      -3.932  -3.598   0.569  0.00  0.00    -0.004 A 
ATOM     26  C   UNL     1      -3.841  -2.140   0.484  0.00  0.00    +0.055 A 
ATOM     27  H   UNL     1      -2.120  -6.097   1.804  0.00  0.00    +0.155 HD
BRANCH  16  28
ATOM     28  O   UNL     1      -2.651  -0.165   0.935  0.00  0.00    -0.492 OA
BRANCH  28  30
ATOM     29  C   UNL     1      -1.552   1.952   1.324  0.00  0.00    +0.048 C 
ATOM     30  C   UNL     1      -1.487   0.434   1.507  0.00  0.00    +0.225 C 
ENDBRANCH  28  30
ENDBRANCH  16  28
ENDBRANCH  15  23
ENDBRANCH   1  15
BRANCH   1  31
ATOM     31  C   UNL     1      -6.459  -8.371  -0.434  0.00  0.00    +0.183 C 
BRANCH  31  32
ATOM     32  C   UNL     1      -7.617  -8.438  -1.395  0.00  0.00    +0.120 A 
ATOM     33  C   UNL     1      -7.925  -9.483  -2.184  0.00  0.00    +0.046 A 
ATOM     34  C   UNL     1      -9.078  -9.118  -2.916  0.00  0.00    +0.041 A 
ATOM     35  C   UNL     1      -9.407  -7.872  -2.530  0.00  0.00    +0.195 A 
ATOM     36  O   UNL     1      -8.522  -7.467  -1.604  0.00  0.00    -0.466 OA
ENDBRANCH  31  32
ENDBRANCH   1  31
TORSDOF 9
