REMARK  Name = ZINC14159304
REMARK  8 active torsions:
REMARK  status: ('A' for Active; 'I' for Inactive)
REMARK    1  A    between atoms: C_1  and  C_2
REMARK    2  A    between atoms: C_5  and  N_9
REMARK    3  A    between atoms: C_6  and  C_8
REMARK    4  A    between atoms: N_9  and  C_10
REMARK    5  A    between atoms: C_10  and  N_12
REMARK    6  A    between atoms: N_14  and  C_15
REMARK    7  A    between atoms: C_28  and  C_33
REMARK    8  A    between atoms: C_30  and  C_32
REMARK                            x       y       z     vdW  Elec       q    Type
REMARK                         _______ _______ _______ _____ _____    ______ ____
ROOT
ATOM      1  N   UNL     1      -2.425   0.930  -0.689  0.00  0.00    -0.159 NA
ATOM      2  C   UNL     1      -1.526   1.601   0.011  0.00  0.00    +0.200 C 
ATOM      3  N   UNL     1      -1.718   2.928   0.274  0.00  0.00    -0.326 N 
ATOM      4  N   UNL     1      -0.404   0.966   0.472  0.00  0.00    -0.297 N 
ATOM      5  C   UNL     1       0.497   1.648   1.279  0.00  0.00    +0.231 A 
ATOM      6  N   UNL     1       0.295   2.933   1.530  0.00  0.00    -0.217 NA
ATOM      7  C   UNL     1       1.132   3.611   2.299  0.00  0.00    +0.044 A 
ATOM      8  C   UNL     1       2.234   2.963   2.834  0.00  0.00    +0.046 A 
ATOM      9  C   UNL     1       2.417   1.619   2.546  0.00  0.00    +0.044 A 
ATOM     10  N   UNL     1       1.540   1.000   1.774  0.00  0.00    -0.217 NA
ATOM     11  C   UNL     1       3.602   0.874   3.105  0.00  0.00    +0.066 C 
ATOM     12  C   UNL     1       0.892   5.071   2.584  0.00  0.00    +0.066 C 
ATOM     13  H   UNL     1      -1.107   3.399   0.862  0.00  0.00    +0.169 HD
ATOM     14  H   UNL     1      -0.237   0.042   0.232  0.00  0.00    +0.172 HD
ENDROOT
BRANCH   3  15
ATOM     15  C   UNL     1      -2.794   3.608  -0.306  0.00  0.00    +0.061 A 
ATOM     16  C   UNL     1      -2.722   4.972  -0.517  0.00  0.00    +0.037 A 
ATOM     17  C   UNL     1      -3.830   5.609  -1.103  0.00  0.00    +0.002 A 
ATOM     18  C   UNL     1      -3.831   6.992  -1.348  0.00  0.00    +0.010 A 
ATOM     19  C   UNL     1      -4.922   7.574  -1.917  0.00  0.00    +0.001 A 
ATOM     20  C   UNL     1      -6.040   6.816  -2.258  0.00  0.00    +0.002 A 
ATOM     21  C   UNL     1      -6.074   5.474  -2.034  0.00  0.00    +0.028 A 
ATOM     22  C   UNL     1      -4.966   4.835  -1.449  0.00  0.00    +0.071 A 
ATOM     23  N   UNL     1      -4.975   3.519  -1.218  0.00  0.00    -0.253 NA
ATOM     24  C   UNL     1      -3.948   2.910  -0.680  0.00  0.00    +0.137 A 
ENDBRANCH   3  15
BRANCH   1  25
ATOM     25  C   UNL     1      -2.296  -0.395  -0.849  0.00  0.00    +0.161 C 
ATOM     26  S   UNL     1      -2.412  -1.436   0.505  0.00  0.00    -0.016 S 
BRANCH  25  27
ATOM     27  N   UNL     1      -2.076  -0.907  -2.076  0.00  0.00    -0.295 N 
ATOM     28  H   UNL     1      -1.879  -0.317  -2.820  0.00  0.00    +0.154 HD
BRANCH  27  33
ATOM     29  C   UNL     1      -2.308  -6.516  -2.891  0.00  0.00    +0.044 C 
ATOM     30  C   UNL     1      -2.246  -5.026  -2.675  0.00  0.00    -0.050 A 
ATOM     31  C   UNL     1      -1.555  -4.514  -1.591  0.00  0.00    +0.005 A 
ATOM     32  C   UNL     1      -1.497  -3.149  -1.390  0.00  0.00    +0.024 A 
ATOM     33  C   UNL     1      -2.133  -2.290  -2.277  0.00  0.00    +0.036 A 
ATOM     34  C   UNL     1      -2.831  -2.808  -3.361  0.00  0.00    -0.029 A 
ATOM     35  C   UNL     1      -2.880  -4.174  -3.559  0.00  0.00    +0.008 A 
ATOM     36  C   UNL     1      -3.528  -1.880  -4.322  0.00  0.00    +0.045 C 
ENDBRANCH  27  33
ENDBRANCH  25  27
ENDBRANCH   1  25
TORSDOF 4
