REMARK  Name = ZINC36532128
REMARK  11 active torsions:
REMARK  status: ('A' for Active; 'I' for Inactive)
REMARK    1  A    between atoms: C_1  and  N_2
REMARK    2  A    between atoms: N_2  and  C_3
REMARK    3  A    between atoms: C_3  and  C_5
REMARK    4  A    between atoms: C_3  and  C_14
REMARK    5  A    between atoms: C_6  and  O_13
REMARK    6  A    between atoms: C_8  and  O_12
REMARK    7  A    between atoms: C_10  and  O_11
REMARK    8  A    between atoms: N_16  and  C_17
REMARK    9  A    between atoms: C_23  and  C_25
REMARK   10  A    between atoms: C_25  and  C_26
REMARK   11  A    between atoms: C_26  and  S_27
REMARK                            x       y       z     vdW  Elec       q    Type
REMARK                         _______ _______ _______ _____ _____    ______ ____
ROOT
ATOM      1  C   UNL     1       0.142  -0.741   1.248  0.00  0.00    +0.199 C 
ENDROOT
BRANCH   1   2
ATOM      2  C   UNL     1       1.372  -0.274   1.984  0.00  0.00    +0.065 A 
ATOM      3  C   UNL     1       1.585   1.081   2.188  0.00  0.00    +0.129 A 
ATOM      4  C   UNL     1       2.716   1.511   2.864  0.00  0.00    +0.091 A 
ATOM      5  C   UNL     1       3.635   0.585   3.337  0.00  0.00    +0.124 A 
ATOM      6  C   UNL     1       3.421  -0.770   3.133  0.00  0.00    +0.091 A 
ATOM      7  C   UNL     1       2.287  -1.200   2.461  0.00  0.00    +0.129 A 
BRANCH   7   8
ATOM      8  O   UNL     1       2.076  -2.528   2.265  0.00  0.00    -0.506 OA
ATOM      9  H   UNL     1       2.455  -2.870   1.445  0.00  0.00    +0.292 HD
ENDBRANCH   7   8
BRANCH   5  10
ATOM     10  O   UNL     1       4.744   1.007   3.999  0.00  0.00    -0.507 OA
ATOM     11  H   UNL     1       4.626   1.083   4.955  0.00  0.00    +0.292 HD
ENDBRANCH   5  10
BRANCH   3  12
ATOM     12  O   UNL     1       0.685   1.988   1.724  0.00  0.00    -0.506 OA
ATOM     13  H   UNL     1      -0.055   2.151   2.326  0.00  0.00    +0.292 HD
ENDBRANCH   3  12
ENDBRANCH   1   2
BRANCH   1  15
ATOM     14  C   UNL     1       0.063   1.207  -0.375  0.00  0.00    +0.133 C 
ATOM     15  N   UNL     1       0.171  -0.232  -0.125  0.00  0.00    -0.289 N 
ATOM     16  C   UNL     1       0.297  -1.088  -1.158  0.00  0.00    +0.217 C 
ATOM     17  O   UNL     1       0.386  -2.280  -0.951  0.00  0.00    -0.276 OA
BRANCH  16  18
ATOM     18  C   UNL     1       0.327  -0.565  -2.571  0.00  0.00    +0.106 C 
BRANCH  18  19
ATOM     19  C   UNL     1       0.476  -1.735  -3.546  0.00  0.00    +0.075 C 
BRANCH  19  20
ATOM     20  S   UNL     1       0.512  -1.104  -5.246  0.00  0.00    -0.178 S 
ATOM     21  H   UNL     1       0.645  -2.210  -6.000  0.00  0.00    +0.102 HD
ENDBRANCH  19  20
ENDBRANCH  18  19
ENDBRANCH  16  18
ENDBRANCH   1  15
BRANCH   1  22
ATOM     22  C   UNL     1      -1.089  -0.225   1.949  0.00  0.00    +0.239 C 
ATOM     23  O   UNL     1      -1.865   0.497   1.360  0.00  0.00    -0.273 OA
ATOM     24  N   UNL     1      -1.327  -0.566   3.231  0.00  0.00    -0.311 N 
ATOM     25  H   UNL     1      -0.706  -1.143   3.703  0.00  0.00    +0.149 HD
BRANCH  24  26
ATOM     26  C   UNL     1      -2.523  -0.064   3.913  0.00  0.00    +0.073 C 
ATOM     27  C   UNL     1      -2.237   1.324   4.488  0.00  0.00    +0.022 C 
ATOM     28  C   UNL     1      -3.486   1.848   5.200  0.00  0.00    +0.002 C 
ATOM     29  C   UNL     1      -3.865   0.894   6.334  0.00  0.00    +0.000 C 
ATOM     30  C   UNL     1      -4.150  -0.495   5.759  0.00  0.00    +0.002 C 
ATOM     31  C   UNL     1      -2.901  -1.018   5.047  0.00  0.00    +0.022 C 
ENDBRANCH  24  26
ENDBRANCH   1  22
TORSDOF 10
