REMARK  Name = ZINC28501542
REMARK  6 active torsions:
REMARK  status: ('A' for Active; 'I' for Inactive)
REMARK    1  A    between atoms: C_1  and  N_2
REMARK    2  A    between atoms: C_6  and  C_7
REMARK    3  A    between atoms: N_9  and  N_10
REMARK    4  A    between atoms: C_11  and  C_13
REMARK    5  A    between atoms: C_16  and  S_19
REMARK    6  A    between atoms: S_19  and  C_22
REMARK                            x       y       z     vdW  Elec       q    Type
REMARK                         _______ _______ _______ _____ _____    ______ ____
ROOT
ATOM      1  N   UNL     1      -0.398   1.369   4.115  0.00  0.00    -0.230 N 
ATOM      2  C   UNL     1      -0.602   2.671   4.394  0.00  0.00    +0.260 C 
ATOM      3  O   UNL     1      -0.782   3.465   3.490  0.00  0.00    -0.269 OA
ATOM      4  H   UNL     1      -0.255   0.736   4.836  0.00  0.00    +0.173 HD
ENDROOT
BRANCH   2   5
ATOM      5  C   UNL     1      -0.608   3.135   5.797  0.00  0.00    +0.038 A 
ATOM      6  C   UNL     1      -0.396   2.228   6.836  0.00  0.00    +0.015 A 
ATOM      7  C   UNL     1      -0.402   2.667   8.144  0.00  0.00    +0.028 A 
ATOM      8  C   UNL     1      -0.618   4.005   8.427  0.00  0.00    +0.098 A 
ATOM      9  C   UNL     1      -0.828   4.909   7.401  0.00  0.00    +0.028 A 
ATOM     10  C   UNL     1      -0.819   4.484   6.089  0.00  0.00    +0.015 A 
BRANCH   8  11
ATOM     11  S   UNL     1      -0.625   4.558  10.100  0.00  0.00    +0.091 S 
ATOM     12  O   UNL     1      -1.439   5.722  10.093  0.00  0.00    -0.161 OA
ATOM     13  O   UNL     1      -1.000   3.416  10.857  0.00  0.00    -0.161 OA
BRANCH  11  14
ATOM     14  C   UNL     1       1.099   5.001  10.451  0.00  0.00    +0.526 C 
ATOM     15  F   UNL     1       1.508   6.011   9.574  0.00  0.00    -0.150 F 
ATOM     16  F   UNL     1       1.203   5.458  11.769  0.00  0.00    -0.150 F 
ATOM     17  F   UNL     1       1.914   3.877  10.281  0.00  0.00    -0.150 F 
ENDBRANCH  11  14
ENDBRANCH   8  11
ENDBRANCH   2   5
BRANCH   1  20
ATOM     18  C   UNL     1      -0.189  -0.374   2.507  0.00  0.00    +0.277 C 
ATOM     19  O   UNL     1      -0.101  -1.183   3.412  0.00  0.00    -0.267 OA
ATOM     20  N   UNL     1      -0.393   0.929   2.785  0.00  0.00    -0.229 N 
ATOM     21  H   UNL     1      -0.536   1.562   2.064  0.00  0.00    +0.173 HD
BRANCH  18  27
ATOM     22  C   UNL     1       0.070  -3.305   1.538  0.00  0.00    +0.149 C 
ATOM     23  N   UNL     1       0.043  -2.118   0.680  0.00  0.00    -0.345 N 
ATOM     24  C   UNL     1       0.122  -2.119  -0.674  0.00  0.00    +0.101 A 
ATOM     25  C   UNL     1       0.065  -0.840  -1.117  0.00  0.00    +0.036 A 
ATOM     26  C   UNL     1      -0.054  -0.004  -0.001  0.00  0.00    +0.047 A 
ATOM     27  C   UNL     1      -0.072  -0.817   1.113  0.00  0.00    +0.107 A 
ATOM     28 BR   UNL     1       0.135  -0.283  -2.922  0.00  0.00    -0.049 Br
ENDBRANCH  18  27
ENDBRANCH   1  20
TORSDOF 5
