REMARK  Name = ZINC22063446
REMARK  8 active torsions:
REMARK  status: ('A' for Active; 'I' for Inactive)
REMARK    1  A    between atoms: C_1  and  C_2
REMARK    2  A    between atoms: C_2  and  O_3
REMARK    3  A    between atoms: O_3  and  C_4
REMARK    4  A    between atoms: C_4  and  C_6
REMARK    5  A    between atoms: C_7  and  C_20
REMARK    6  A    between atoms: C_12  and  C_14
REMARK    7  A    between atoms: C_20  and  N_21
REMARK    8  A    between atoms: C_30  and  C_32
REMARK                            x       y       z     vdW  Elec       q    Type
REMARK                         _______ _______ _______ _____ _____    ______ ____
ROOT
ATOM      1  C   UNL     1       4.056  -1.137   2.225  0.00  0.00    +0.076 C 
ATOM      2  C   UNL     1       3.329  -0.937   1.104  0.00  0.00    +0.008 C 
ATOM      3  N   UNL     1       3.563  -1.666  -0.026  0.00  0.00    -0.274 N 
ATOM      4  C   UNL     1       4.500  -2.618  -0.116  0.00  0.00    +0.304 C 
ATOM      5  O   UNL     1       4.634  -3.214  -1.167  0.00  0.00    -0.252 OA
ATOM      6  N   UNL     1       5.301  -2.936   0.920  0.00  0.00    -0.288 N 
ATOM      7  C   UNL     1       5.130  -2.206   2.188  0.00  0.00    +0.143 C 
ATOM      8  H   UNL     1       2.963  -1.485  -0.931  0.00  0.00    +0.156 HD
ATOM      9  H   UNL     1       6.069  -3.719   0.836  0.00  0.00    +0.151 HD
ENDROOT
BRANCH   7  10
ATOM     10  C   UNL     1       6.443  -1.550   2.527  0.00  0.00    -0.023 A 
ATOM     11  C   UNL     1       7.206  -0.974   1.528  0.00  0.00    +0.006 A 
ATOM     12  C   UNL     1       8.409  -0.367   1.840  0.00  0.00    +0.000 A 
ATOM     13  C   UNL     1       8.853  -0.346   3.149  0.00  0.00    +0.000 A 
ATOM     14  C   UNL     1       8.092  -0.926   4.147  0.00  0.00    +0.000 A 
ATOM     15  C   UNL     1       6.888  -1.528   3.836  0.00  0.00    +0.006 A 
ENDBRANCH   7  10
BRANCH   1  16
ATOM     16  C   UNL     1       3.820  -0.379   3.395  0.00  0.00    +0.339 C 
ATOM     17  O   UNL     1       4.565   0.537   3.688  0.00  0.00    -0.245 OA
BRANCH  16  18
ATOM     18  O   UNL     1       2.767  -0.671   4.187  0.00  0.00    -0.462 OA
BRANCH  18  20
ATOM     19  C   UNL     1       1.353  -0.341   6.119  0.00  0.00    +0.048 C 
ATOM     20  C   UNL     1       2.588   0.136   5.353  0.00  0.00    +0.229 C 
ENDBRANCH  18  20
ENDBRANCH  16  18
ENDBRANCH   1  16
BRANCH   2  21
ATOM     21  C   UNL     1       2.248   0.112   1.100  0.00  0.00    -0.025 C 
BRANCH  21  22
ATOM     22  N   UNL     1       2.592   1.165   0.135  0.00  0.00    +0.394 N 
ATOM     23  C   UNL     1       3.831   1.847   0.521  0.00  0.00    -0.041 C 
ATOM     24  C   UNL     1       4.120   2.988  -0.419  0.00  0.00    -0.061 A 
ATOM     25  C   UNL     1       5.405   3.510  -0.449  0.00  0.00    +0.002 A 
ATOM     26  C   UNL     1       5.714   4.557  -1.293  0.00  0.00    +0.000 A 
ATOM     27  C   UNL     1       4.737   5.091  -2.113  0.00  0.00    +0.000 A 
ATOM     28  C   UNL     1       3.458   4.573  -2.085  0.00  0.00    +0.004 A 
ATOM     29  C   UNL     1       3.148   3.519  -1.239  0.00  0.00    -0.047 A 
ATOM     30  C   UNL     1       1.738   2.983  -1.247  0.00  0.00    +0.029 C 
ATOM     31  C   UNL     1       1.495   2.138   0.003  0.00  0.00    +0.024 C 
ATOM     32  H   UNL     1       2.752   0.684  -0.841  0.00  0.00    -0.080 HD
BRANCH  31  33
ATOM     33  C   UNL     1       0.183   1.407  -0.126  0.00  0.00    +0.197 C 
ATOM     34  O   UNL     1       0.134   0.352  -0.721  0.00  0.00    -0.278 OA
ATOM     35  N   UNL     1      -0.935   1.930   0.414  0.00  0.00    -0.331 N 
ATOM     36  H   UNL     1      -1.893   1.397   0.319  0.00  0.00    +0.145 HD
ATOM     37  H   UNL     1      -0.891   2.890   0.949  0.00  0.00    +0.145 HD
ENDBRANCH  31  33
ENDBRANCH  21  22
ENDBRANCH   2  21
TORSDOF 7
