REMARK  Name = ZINC63386498
REMARK  10 active torsions:
REMARK  status: ('A' for Active; 'I' for Inactive)
REMARK    1  A    between atoms: C_1  and  C_2
REMARK    2  A    between atoms: C_4  and  O_33
REMARK    3  A    between atoms: C_11  and  C_16
REMARK    4  A    between atoms: C_13  and  C_15
REMARK    5  A    between atoms: C_16  and  C_17
REMARK    6  A    between atoms: N_19  and  C_20
REMARK    7  A    between atoms: C_20  and  C_21
REMARK    8  A    between atoms: C_21  and  C_22
REMARK    9  A    between atoms: C_26  and  O_31
REMARK   10  A    between atoms: O_31  and  C_32
REMARK                            x       y       z     vdW  Elec       q    Type
REMARK                         _______ _______ _______ _____ _____    ______ ____
ROOT
ATOM      1  C   UNL     1      -2.389  -5.389   2.657  0.00  0.00    +0.214 C 
ATOM      2  O   UNL     1      -1.585  -5.893   3.412  0.00  0.00    -0.276 OA
ATOM      3  N   UNL     1      -3.701  -5.403   2.962  0.00  0.00    -0.315 N 
ATOM      4  H   UNL     1      -4.344  -5.000   2.358  0.00  0.00    +0.149 HD
ENDROOT
BRANCH   1   5
ATOM      5  C   UNL     1      -1.919  -4.746   1.377  0.00  0.00    +0.111 C 
BRANCH   5  16
ATOM      6  C   UNL     1      -0.018   1.503   0.010  0.00  0.00    +0.044 C 
ATOM      7  C   UNL     1       0.002  -0.004   0.002  0.00  0.00    -0.044 A 
ATOM      8  C   UNL     1       0.006  -0.689  -1.198  0.00  0.00    +0.049 A 
ATOM      9  C   UNL     1       0.029  -2.075  -1.204  0.00  0.00    +0.124 A 
ATOM     10  C   UNL     1       0.046  -2.780  -0.006  0.00  0.00    +0.040 A 
ATOM     11  C   UNL     1       0.036  -2.093   1.193  0.00  0.00    +0.139 A 
ATOM     12  C   UNL     1       0.023  -0.701   1.193  0.00  0.00    +0.050 A 
ATOM     13  O   UNL     1       0.031  -2.738   2.391  0.00  0.00    -0.425 OA
ATOM     14  C   UNL     1       0.258  -4.067   2.383  0.00  0.00    +0.317 C 
ATOM     15  O   UNL     1       0.950  -4.596   3.220  0.00  0.00    -0.250 OA
ATOM     16  C   UNL     1      -0.397  -4.867   1.274  0.00  0.00    +0.114 C 
ATOM     17  C   UNL     1       0.082  -4.287  -0.060  0.00  0.00    +0.037 C 
ATOM     18  C   UNL     1       1.514  -4.752  -0.331  0.00  0.00    +0.013 C 
BRANCH   9  19
ATOM     19  O   UNL     1       0.035  -2.746  -2.386  0.00  0.00    -0.506 OA
ATOM     20  H   UNL     1       0.919  -2.926  -2.732  0.00  0.00    +0.292 HD
ENDBRANCH   9  19
ENDBRANCH   5  16
ENDBRANCH   1   5
BRANCH   3  21
ATOM     21  C   UNL     1      -4.157  -6.028   4.206  0.00  0.00    +0.108 C 
BRANCH  21  22
ATOM     22  C   UNL     1      -5.679  -5.907   4.309  0.00  0.00    +0.052 C 
BRANCH  22  23
ATOM     23  C   UNL     1      -6.149  -6.550   5.589  0.00  0.00    -0.040 C 
ATOM     24  C   UNL     1      -6.387  -5.933   6.767  0.00  0.00    -0.001 A 
ATOM     25  C   UNL     1      -6.283  -4.531   7.192  0.00  0.00    +0.013 A 
ATOM     26  C   UNL     1      -6.595  -4.206   8.465  0.00  0.00    +0.046 A 
ATOM     27  C   UNL     1      -7.016  -5.178   9.393  0.00  0.00    +0.122 A 
ATOM     28  C   UNL     1      -7.135  -6.491   9.071  0.00  0.00    +0.071 A 
ATOM     29  C   UNL     1      -6.832  -6.937   7.760  0.00  0.00    +0.046 A 
ATOM     30  N   UNL     1      -6.867  -8.131   7.214  0.00  0.00    -0.380 N 
ATOM     31  C   UNL     1      -6.454  -8.014   5.811  0.00  0.00    +0.144 C 
ATOM     32  H   UNL     1      -7.127  -8.951   7.662  0.00  0.00    +0.160 HD
BRANCH  27  33
ATOM     33  O   UNL     1      -7.314  -4.787  10.657  0.00  0.00    -0.495 OA
ATOM     34  C   UNL     1      -7.176  -3.396  10.955  0.00  0.00    +0.277 C 
ENDBRANCH  27  33
ENDBRANCH  22  23
ENDBRANCH  21  22
ENDBRANCH   3  21
TORSDOF 7
