REMARK  Name = ZINC04222420
REMARK  9 active torsions:
REMARK  status: ('A' for Active; 'I' for Inactive)
REMARK    1  A    between atoms: C_1  and  C_2
REMARK    2  A    between atoms: C_8  and  C_10
REMARK    3  A    between atoms: C_10  and  C_11
REMARK    4  A    between atoms: C_19  and  C_21
REMARK    5  A    between atoms: C_31  and  C_41
REMARK    6  A    between atoms: C_34  and  O_40
REMARK    7  A    between atoms: C_36  and  C_37
REMARK    8  A    between atoms: C_36  and  C_38
REMARK    9  A    between atoms: C_38  and  O_39
REMARK                            x       y       z     vdW  Elec       q    Type
REMARK                         _______ _______ _______ _____ _____    ______ ____
ROOT
ATOM      1  C   UNL     1       4.605   3.913   1.267  0.00  0.00    +0.054 C 
ATOM      2  C   UNL     1       4.407   5.413   1.110  0.00  0.00    +0.058 A 
ATOM      3  C   UNL     1       3.262   5.896   0.561  0.00  0.00    +0.015 A 
ATOM      4  S   UNL     1       3.521   7.649   0.600  0.00  0.00    -0.057 S 
ATOM      5  C   UNL     1       5.099   7.615   1.328  0.00  0.00    +0.165 A 
ATOM      6  N   UNL     1       5.304   6.323   1.482  0.00  0.00    -0.229 NA
ATOM      7  N   UNL     1       5.930   8.677   1.661  0.00  0.00    -0.261 N 
ATOM      8  C   UNL     1       5.535   9.943   1.421  0.00  0.00    +0.250 C 
ATOM      9  O   UNL     1       4.451  10.155   0.913  0.00  0.00    -0.270 OA
ATOM     10  C   UNL     1       2.096   5.121   0.046  0.00  0.00    +0.049 C 
ATOM     11  C   UNL     1       2.502   3.640  -0.083  0.00  0.00    +0.011 C 
ATOM     12  C   UNL     1       3.247   3.204   1.181  0.00  0.00    -0.019 C 
ATOM     13  C   UNL     1       3.519   1.696   1.139  0.00  0.00    +0.010 C 
ATOM     14  C   UNL     1       2.200   0.933   1.025  0.00  0.00    +0.032 C 
ATOM     15  C   UNL     1       1.525   1.336  -0.290  0.00  0.00    +0.123 C 
ATOM     16  C   UNL     1       1.212   2.830  -0.244  0.00  0.00    +0.021 C 
ATOM     17  C   UNL     1       0.518   3.242  -1.543  0.00  0.00    +0.016 C 
ATOM     18  C   UNL     1       2.405   3.539   2.414  0.00  0.00    +0.012 C 
ATOM     19  H   UNL     1       6.795   8.507   2.067  0.00  0.00    +0.157 HD
ENDROOT
BRANCH   8  20
ATOM     20  C   UNL     1       6.418  11.072   1.776  0.00  0.00    +0.037 A 
ATOM     21  C   UNL     1       7.661  10.831   2.365  0.00  0.00    +0.016 A 
ATOM     22  C   UNL     1       8.484  11.888   2.690  0.00  0.00    +0.039 A 
ATOM     23  C   UNL     1       8.075  13.190   2.442  0.00  0.00    +0.123 A 
ATOM     24  C   UNL     1       6.840  13.435   1.862  0.00  0.00    +0.039 A 
ATOM     25  C   UNL     1       6.011  12.385   1.528  0.00  0.00    +0.016 A 
ATOM     26  F   UNL     1       8.883  14.223   2.767  0.00  0.00    -0.205 F 
ENDBRANCH   8  20
BRANCH  15  27
ATOM     27  O   UNL     1       0.313   0.596  -0.453  0.00  0.00    -0.391 OA
ATOM     28  H   UNL     1       0.439  -0.362  -0.490  0.00  0.00    +0.210 HD
ENDBRANCH  15  27
BRANCH   1  29
ATOM     29  C   UNL     1       5.246   3.624   2.625  0.00  0.00    +0.106 C 
BRANCH  29  37
ATOM     30  C   UNL     1       8.741   5.573   7.470  0.00  0.00    +0.007 C 
ATOM     31  C   UNL     1       8.547   4.675   6.247  0.00  0.00    -0.011 C 
ATOM     32  C   UNL     1       8.961   5.435   4.985  0.00  0.00    +0.022 C 
ATOM     33  C   UNL     1       8.798   4.520   3.767  0.00  0.00    +0.108 C 
ATOM     34  N   UNL     1       7.420   4.010   3.739  0.00  0.00    -0.301 N 
ATOM     35  C   UNL     1       6.889   3.347   4.938  0.00  0.00    +0.108 C 
ATOM     36  C   UNL     1       7.075   4.269   6.141  0.00  0.00    +0.022 C 
ATOM     37  C   UNL     1       6.657   4.153   2.638  0.00  0.00    +0.216 C 
ATOM     38  O   UNL     1       7.106   4.707   1.657  0.00  0.00    -0.276 OA
ENDBRANCH  29  37
ENDBRANCH   1  29
BRANCH  16  39
ATOM     39  C   UNL     1       0.283   3.116   0.939  0.00  0.00    +0.165 C 
BRANCH  39  40
ATOM     40  O   UNL     1      -0.988   2.506   0.705  0.00  0.00    -0.394 OA
ATOM     41  H   UNL     1      -1.628   2.647   1.415  0.00  0.00    +0.209 HD
ENDBRANCH  39  40
ENDBRANCH  16  39
TORSDOF 6
