REMARK  Name = ZINC39205105
REMARK  3 active torsions:
REMARK  status: ('A' for Active; 'I' for Inactive)
REMARK    1  A    between atoms: C_4  and  C_24
REMARK    2  A    between atoms: C_5  and  C_7
REMARK    3  A    between atoms: N_8  and  N_9
REMARK                            x       y       z     vdW  Elec       q    Type
REMARK                         _______ _______ _______ _____ _____    ______ ____
ROOT
ATOM      1  N   UNL     1       2.415  -4.185  -0.044  0.00  0.00    -0.206 N 
ATOM      2  C   UNL     1       3.623  -4.852  -0.059  0.00  0.00    +0.227 C 
ATOM      3  N   UNL     1       4.723  -4.138  -0.061  0.00  0.00    -0.220 NA
ATOM      4  C   UNL     1       5.996  -4.850  -0.157  0.00  0.00    +0.253 C 
ATOM      5  C   UNL     1       5.768  -6.220   0.465  0.00  0.00    +0.115 C 
ATOM      6  C   UNL     1       6.799  -6.403   1.336  0.00  0.00    +0.025 A 
ATOM      7  C   UNL     1       7.194  -7.512   2.124  0.00  0.00    +0.012 A 
ATOM      8  C   UNL     1       8.287  -7.357   2.918  0.00  0.00    +0.001 A 
ATOM      9  C   UNL     1       9.038  -6.181   3.002  0.00  0.00    +0.002 A 
ATOM     10  C   UNL     1       8.756  -5.059   2.287  0.00  0.00    +0.026 A 
ATOM     11  C   UNL     1       7.589  -5.135   1.393  0.00  0.00    +0.046 A 
ATOM     12  N   UNL     1       7.093  -4.247   0.586  0.00  0.00    -0.358 N 
ATOM     13  N   UNL     1       4.653  -6.916   0.220  0.00  0.00    -0.171 NA
ATOM     14  N   UNL     1       3.605  -6.207  -0.066  0.00  0.00    -0.247 N 
ATOM     15  H   UNL     1       1.584  -4.686  -0.038  0.00  0.00    +0.177 HD
ATOM     16  H   UNL     1       2.780  -6.664  -0.296  0.00  0.00    +0.192 HD
ATOM     17  H   UNL     1       7.403  -3.332   0.492  0.00  0.00    +0.162 HD
ENDROOT
BRANCH   1  19
ATOM     18  C   UNL     1       1.252  -2.157  -0.021  0.00  0.00    +0.138 C 
ATOM     19  N   UNL     1       2.388  -2.784  -0.036  0.00  0.00    -0.188 NA
BRANCH  18  24
ATOM     20  C   UNL     1      -0.017   1.375   0.010  0.00  0.00    +0.001 A 
ATOM     21  C   UNL     1       1.170   2.086   0.002  0.00  0.00    +0.001 A 
ATOM     22  C   UNL     1       2.383   1.421  -0.013  0.00  0.00    +0.013 A 
ATOM     23  C   UNL     1       2.417   0.042  -0.021  0.00  0.00    +0.063 A 
ATOM     24  C   UNL     1       1.223  -0.683  -0.013  0.00  0.00    +0.006 A 
ATOM     25  C   UNL     1       0.002  -0.004   0.002  0.00  0.00    +0.010 A 
BRANCH  23  26
ATOM     26  C   UNL     1       3.740  -0.681  -0.039  0.00  0.00    +0.418 C 
ATOM     27  F   UNL     1       4.782   0.253  -0.044  0.00  0.00    -0.166 F 
ATOM     28  F   UNL     1       3.844  -1.489   1.098  0.00  0.00    -0.166 F 
ATOM     29  F   UNL     1       3.821  -1.477  -1.186  0.00  0.00    -0.166 F 
ENDBRANCH  23  26
ENDBRANCH  18  24
ENDBRANCH   1  19
TORSDOF 3
