REMARK  Name = ZINC36499006
REMARK  13 active torsions:
REMARK  status: ('A' for Active; 'I' for Inactive)
REMARK    1  A    between atoms: C_1  and  C_2
REMARK    2  A    between atoms: C_2  and  C_3
REMARK    3  A    between atoms: C_2  and  C_4
REMARK    4  A    between atoms: C_2  and  N_5
REMARK    5  A    between atoms: C_6  and  C_8
REMARK    6  A    between atoms: C_8  and  C_10
REMARK    7  A    between atoms: C_8  and  N_19
REMARK    8  A    between atoms: C_11  and  O_18
REMARK    9  A    between atoms: C_13  and  O_17
REMARK   10  A    between atoms: C_15  and  O_16
REMARK   11  A    between atoms: N_19  and  C_20
REMARK   12  A    between atoms: C_20  and  C_21
REMARK   13  A    between atoms: C_26  and  C_28
REMARK                            x       y       z     vdW  Elec       q    Type
REMARK                         _______ _______ _______ _____ _____    ______ ____
ROOT
ATOM      1  C   UNL     1       2.625  -0.496  -2.049  0.00  0.00    +0.200 C 
ENDROOT
BRANCH   1   2
ATOM      2  C   UNL     1       2.481  -1.925  -1.592  0.00  0.00    +0.065 A 
ATOM      3  C   UNL     1       3.306  -2.420  -0.594  0.00  0.00    +0.129 A 
ATOM      4  C   UNL     1       3.174  -3.735  -0.173  0.00  0.00    +0.091 A 
ATOM      5  C   UNL     1       2.216  -4.555  -0.751  0.00  0.00    +0.124 A 
ATOM      6  C   UNL     1       1.391  -4.060  -1.749  0.00  0.00    +0.091 A 
ATOM      7  C   UNL     1       1.520  -2.744  -2.167  0.00  0.00    +0.129 A 
BRANCH   7   8
ATOM      8  O   UNL     1       0.708  -2.257  -3.141  0.00  0.00    -0.506 OA
ATOM      9  H   UNL     1       1.056  -2.370  -4.036  0.00  0.00    +0.292 HD
ENDBRANCH   7   8
BRANCH   5  10
ATOM     10  O   UNL     1       2.087  -5.844  -0.340  0.00  0.00    -0.507 OA
ATOM     11  H   UNL     1       1.464  -5.963   0.390  0.00  0.00    +0.292 HD
ENDBRANCH   5  10
BRANCH   3  12
ATOM     12  O   UNL     1       4.245  -1.617  -0.027  0.00  0.00    -0.506 OA
ATOM     13  H   UNL     1       3.956  -1.193   0.793  0.00  0.00    +0.292 HD
ENDBRANCH   3  12
ENDBRANCH   1   2
BRANCH   1  15
ATOM     14  N   UNL     1       1.538   0.443  -0.035  0.00  0.00    -0.309 N 
ATOM     15  C   UNL     1       2.611   0.418  -0.851  0.00  0.00    +0.239 C 
ATOM     16  O   UNL     1       3.565   1.131  -0.621  0.00  0.00    -0.273 OA
ATOM     17  H   UNL     1       0.775  -0.127  -0.219  0.00  0.00    +0.149 HD
BRANCH  14  19
ATOM     18  C   UNL     1       1.670   2.782   0.666  0.00  0.00    +0.031 C 
ATOM     19  C   UNL     1       1.524   1.331   1.130  0.00  0.00    +0.026 C 
ATOM     20  C   UNL     1       2.687   0.973   2.058  0.00  0.00    +0.031 C 
ATOM     21  C   UNL     1       0.202   1.167   1.881  0.00  0.00    +0.031 C 
ENDBRANCH  14  19
ENDBRANCH   1  15
BRANCH   1  22
ATOM     22  N   UNL     1       3.891  -0.339  -2.768  0.00  0.00    -0.274 N 
ATOM     23  C   UNL     1       4.295   0.885  -3.162  0.00  0.00    +0.248 C 
ATOM     24  O   UNL     1       5.277   1.004  -3.869  0.00  0.00    -0.270 OA
BRANCH  23  25
ATOM     25  C   UNL     1       3.542   2.085  -2.736  0.00  0.00    +0.038 A 
ATOM     26  C   UNL     1       2.227   1.963  -2.283  0.00  0.00    +0.013 A 
ATOM     27  C   UNL     1       1.531   3.085  -1.886  0.00  0.00    +0.002 A 
ATOM     28  C   UNL     1       2.132   4.330  -1.934  0.00  0.00    +0.020 A 
ATOM     29  C   UNL     1       3.436   4.458  -2.382  0.00  0.00    +0.042 A 
ATOM     30  C   UNL     1       4.146   3.342  -2.777  0.00  0.00    +0.033 A 
ATOM     31 CL   UNL     1       4.182   6.025  -2.439  0.00  0.00    -0.084 Cl
ENDBRANCH  23  25
BRANCH  22  32
ATOM     32  C   UNL     1       4.719  -1.512  -3.060  0.00  0.00    +0.183 C 
BRANCH  32  33
ATOM     33  C   UNL     1       4.448  -1.982  -4.465  0.00  0.00    +0.122 A 
ATOM     34  C   UNL     1       5.164  -1.655  -5.556  0.00  0.00    +0.046 A 
ATOM     35  C   UNL     1       4.562  -2.313  -6.653  0.00  0.00    +0.041 A 
ATOM     36  C   UNL     1       3.514  -3.002  -6.168  0.00  0.00    +0.195 A 
ATOM     37  O   UNL     1       3.453  -2.802  -4.841  0.00  0.00    -0.466 OA
ENDBRANCH  32  33
ENDBRANCH  22  32
ENDBRANCH   1  22
TORSDOF 10
