REMARK  Name = ZINC20512672
REMARK  5 active torsions:
REMARK  status: ('A' for Active; 'I' for Inactive)
REMARK    1  A    between atoms: C_4  and  C_7
REMARK    2  A    between atoms: C_7  and  C_8
REMARK    3  A    between atoms: C_7  and  N_14
REMARK    4  A    between atoms: C_20  and  C_22
REMARK    5  A    between atoms: C_22  and  C_23
REMARK                            x       y       z     vdW  Elec       q    Type
REMARK                         _______ _______ _______ _____ _____    ______ ____
ROOT
ATOM      1  N   UNL     1      -0.665  -2.039  -5.901  0.00  0.00    -0.289 NA
ATOM      2  C   UNL     1      -1.912  -1.389  -5.478  0.00  0.00    +0.104 C 
ATOM      3  C   UNL     1      -1.586  -0.247  -4.509  0.00  0.00    +0.123 C 
ATOM      4  N   UNL     1      -0.762  -0.784  -3.415  0.00  0.00    -0.299 N 
ATOM      5  C   UNL     1       0.437  -1.562  -3.764  0.00  0.00    +0.123 C 
ATOM      6  C   UNL     1       0.027  -2.656  -4.762  0.00  0.00    +0.104 C 
ATOM      7  C   UNL     1      -1.093  -0.565  -2.127  0.00  0.00    +0.215 C 
ATOM      8  O   UNL     1      -2.083   0.083  -1.857  0.00  0.00    -0.276 OA
ENDROOT
BRANCH   1   9
ATOM      9  C   UNL     1      -0.919  -3.025  -6.960  0.00  0.00    +0.117 C 
BRANCH   9  13
ATOM     10  C   UNL     1      -2.844  -1.109 -10.257  0.00  0.00    +0.000 A 
ATOM     11  C   UNL     1      -3.296  -2.336  -9.811  0.00  0.00    +0.000 A 
ATOM     12  C   UNL     1      -2.674  -2.956  -8.744  0.00  0.00    +0.005 A 
ATOM     13  C   UNL     1      -1.598  -2.349  -8.124  0.00  0.00    -0.026 A 
ATOM     14  C   UNL     1      -1.148  -1.119  -8.567  0.00  0.00    +0.005 A 
ATOM     15  C   UNL     1      -1.768  -0.501  -9.636  0.00  0.00    +0.000 A 
ENDBRANCH   9  13
BRANCH   9  16
ATOM     16  C   UNL     1       0.389  -3.619  -7.418  0.00  0.00    -0.026 A 
ATOM     17  C   UNL     1       1.478  -2.799  -7.644  0.00  0.00    +0.005 A 
ATOM     18  C   UNL     1       2.679  -3.344  -8.059  0.00  0.00    +0.000 A 
ATOM     19  C   UNL     1       2.787  -4.708  -8.257  0.00  0.00    +0.000 A 
ATOM     20  C   UNL     1       1.696  -5.527  -8.035  0.00  0.00    +0.000 A 
ATOM     21  C   UNL     1       0.497  -4.982  -7.616  0.00  0.00    +0.005 A 
ENDBRANCH   9  16
ENDBRANCH   1   9
BRANCH   7  22
ATOM     22  C   UNL     1      -0.235  -1.124  -1.022  0.00  0.00    +0.089 C 
BRANCH  22  23
ATOM     23  C   UNL     1      -0.828  -0.733   0.333  0.00  0.00    +0.025 C 
ATOM     24  C   UNL     1      -0.058  -1.416   1.426  0.00  0.00    +0.200 C 
ATOM     25  O   UNL     1      -0.246  -2.600   1.610  0.00  0.00    -0.278 OA
ATOM     26  N   UNL     1       0.826  -0.782   2.207  0.00  0.00    -0.315 N 
ATOM     27  C   UNL     1       1.061   0.651   2.099  0.00  0.00    +0.059 C 
ATOM     28  C   UNL     1       2.533   0.997   2.313  0.00  0.00    +0.020 C 
ATOM     29  C   UNL     1       2.699   2.519   2.248  0.00  0.00    +0.002 C 
ATOM     30  C   UNL     1       2.230   3.038   0.889  0.00  0.00    -0.001 C 
ATOM     31  C   UNL     1       0.762   2.664   0.663  0.00  0.00    -0.014 C 
ATOM     32  C   UNL     1       0.626   1.144   0.717  0.00  0.00    -0.050 C 
ATOM     33  N   UNL     1      -0.762   0.728   0.487  0.00  0.00    +0.390 N 
ATOM     34  H   UNL     1       1.382  -1.376   2.948  0.00  0.00    +0.149 HD
ATOM     35  H   UNL     1      -1.139   1.210  -0.427  0.00  0.00    -0.084 HD
ATOM     36  H   UNL     1      -1.380   1.034   1.344  0.00  0.00    -0.084 HD
ENDBRANCH  22  23
ENDBRANCH   7  22
TORSDOF 5
