REMARK  Name = ZINC12700875
REMARK  9 active torsions:
REMARK  status: ('A' for Active; 'I' for Inactive)
REMARK    1  A    between atoms: C_1  and  C_2
REMARK    2  A    between atoms: C_2  and  C_3
REMARK    3  A    between atoms: C_2  and  C_4
REMARK    4  A    between atoms: C_4  and  C_5
REMARK    5  A    between atoms: C_5  and  N_6
REMARK    6  A    between atoms: C_9  and  C_12
REMARK    7  A    between atoms: C_12  and  O_14
REMARK    8  A    between atoms: O_14  and  C_15
REMARK    9  A    between atoms: C_15  and  C_16
REMARK                            x       y       z     vdW  Elec       q    Type
REMARK                         _______ _______ _______ _____ _____    ______ ____
ROOT
ATOM      1  C   UNL     1       0.010   0.005   0.169  0.00  0.00    +0.170 A 
ATOM      2  N   UNL     1       1.146  -0.670   0.149  0.00  0.00    -0.214 NA
ATOM      3  C   UNL     1       2.316  -0.075  -0.021  0.00  0.00    +0.128 A 
ATOM      4  C   UNL     1       2.356   1.337  -0.188  0.00  0.00    +0.051 A 
ATOM      5  C   UNL     1       3.525   2.200  -0.391  0.00  0.00    -0.025 A 
ATOM      6  C   UNL     1       3.287   3.521  -0.516  0.00  0.00    -0.004 A 
ATOM      7  S   UNL     1       1.526   3.693  -0.389  0.00  0.00    -0.073 S 
ATOM      8  C   UNL     1       1.107   1.986  -0.154  0.00  0.00    +0.114 A 
ATOM      9  N   UNL     1      -0.015   1.315   0.020  0.00  0.00    -0.221 NA
ATOM     10  C   UNL     1       4.287   4.619  -0.714  0.00  0.00    +0.043 C 
ATOM     11  C   UNL     1       5.243   4.235  -1.851  0.00  0.00    +0.005 C 
ATOM     12  C   UNL     1       6.421   3.474  -1.252  0.00  0.00    +0.001 C 
ATOM     13  C   UNL     1       5.957   2.659  -0.045  0.00  0.00    +0.005 C 
ATOM     14  C   UNL     1       4.932   1.615  -0.469  0.00  0.00    +0.037 C 
ATOM     15  N   UNL     1       3.483  -0.816  -0.037  0.00  0.00    -0.343 N 
ATOM     16  H   UNL     1       4.257  -0.492  -0.525  0.00  0.00    +0.144 HD
ATOM     17  H   UNL     1       3.529  -1.660   0.439  0.00  0.00    +0.144 HD
ENDROOT
BRANCH   1  18
ATOM     18  C   UNL     1      -1.285  -0.739   0.368  0.00  0.00    +0.308 C 
BRANCH  18  19
ATOM     19  O   UNL     1      -1.819  -1.135  -0.923  0.00  0.00    -0.452 OA
BRANCH  19  20
ATOM     20  C   UNL     1      -2.983  -1.815  -0.921  0.00  0.00    +0.359 C 
ATOM     21  O   UNL     1      -3.537  -2.071   0.130  0.00  0.00    -0.243 OA
BRANCH  20  25
ATOM     22  N   UNL     1      -3.035  -2.161  -5.786  0.00  0.00    -0.323 N 
ATOM     23  C   UNL     1      -3.509  -2.355  -4.500  0.00  0.00    +0.159 A 
ATOM     24  N   UNL     1      -2.986  -1.968  -3.353  0.00  0.00    -0.218 NA
ATOM     25  C   UNL     1      -3.583  -2.248  -2.192  0.00  0.00    +0.157 A 
ATOM     26  C   UNL     1      -4.768  -2.942  -2.203  0.00  0.00    +0.083 A 
ATOM     27  S   UNL     1      -4.995  -3.188  -3.959  0.00  0.00    -0.060 S 
ATOM     28  H   UNL     1      -2.203  -1.683  -5.929  0.00  0.00    +0.148 HD
BRANCH  22  29
ATOM     29  C   UNL     1      -3.790  -2.677  -6.930  0.00  0.00    +0.103 C 
BRANCH  29  30
ATOM     30  C   UNL     1      -3.053  -2.330  -8.226  0.00  0.00    +0.021 C 
BRANCH  30  32
ATOM     31  C   UNL     1      -5.185  -2.145  -9.514  0.00  0.00    +0.007 C 
ATOM     32  C   UNL     1      -3.841  -2.869  -9.421  0.00  0.00    -0.016 C 
ATOM     33  C   UNL     1      -3.044  -2.633 -10.706  0.00  0.00    +0.007 C 
ENDBRANCH  30  32
ENDBRANCH  29  30
ENDBRANCH  22  29
ENDBRANCH  20  25
ENDBRANCH  19  20
ENDBRANCH  18  19
ENDBRANCH   1  18
TORSDOF 7
