REMARK  Name = ZINC06623786
REMARK  7 active torsions:
REMARK  status: ('A' for Active; 'I' for Inactive)
REMARK    1  A    between atoms: C_1  and  C_2
REMARK    2  A    between atoms: C_7  and  C_32
REMARK    3  A    between atoms: C_20  and  C_22
REMARK    4  A    between atoms: C_22  and  N_57
REMARK    5  A    between atoms: C_23  and  C_25
REMARK    6  A    between atoms: C_23  and  C_26
REMARK    7  A    between atoms: C_23  and  N_57
REMARK                            x       y       z     vdW  Elec       q    Type
REMARK                         _______ _______ _______ _____ _____    ______ ____
ROOT
ATOM      1  C   UNL     1       0.054  -0.026   1.521  0.00  0.00    +0.010 C 
ATOM      2  C   UNL     1      -0.469   1.175   0.729  0.00  0.00    +0.021 C 
ATOM      3  C   UNL     1      -0.090   0.983  -0.718  0.00  0.00    +0.006 C 
ATOM      4  C   UNL     1      -1.008   1.778  -1.642  0.00  0.00    +0.001 C 
ATOM      5  C   UNL     1      -2.420   1.212  -1.496  0.00  0.00    +0.010 C 
ATOM      6  C   UNL     1      -2.955   1.468  -0.107  0.00  0.00    +0.003 C 
ATOM      7  C   UNL     1      -1.951   1.324   1.023  0.00  0.00    +0.104 C 
ATOM      8  C   UNL     1      -2.312   2.000   2.339  0.00  0.00    +0.159 C 
ATOM      9  O   UNL     1      -2.438   0.587   2.176  0.00  0.00    -0.363 OA
ATOM     10  C   UNL     1      -3.572   2.817   2.516  0.00  0.00    +0.073 C 
ATOM     11  C   UNL     1      -4.412   2.971   1.245  0.00  0.00    +0.183 C 
ATOM     12  C   UNL     1      -3.589   2.858  -0.024  0.00  0.00    +0.054 C 
ATOM     13  O   UNL     1      -5.388   1.882   1.332  0.00  0.00    -0.461 OA
ATOM     14  C   UNL     1      -5.781   1.849   2.630  0.00  0.00    +0.309 C 
ATOM     15  O   UNL     1      -6.905   1.685   3.042  0.00  0.00    -0.251 OA
ATOM     16  C   UNL     1      -4.527   2.059   3.464  0.00  0.00    +0.090 C 
ATOM     17  C   UNL     1      -4.062   0.445   0.157  0.00  0.00    +0.014 C 
ENDROOT
BRANCH  16  18
ATOM     18  C   UNL     1      -4.842   2.897   4.705  0.00  0.00    -0.067 C 
BRANCH  18  19
ATOM     19  N   UNL     1      -5.732   2.127   5.595  0.00  0.00    +0.384 N 
ATOM     20  H   UNL     1      -5.263   1.257   5.872  0.00  0.00    -0.085 HD
ATOM     21  H   UNL     1      -6.600   1.904   5.095  0.00  0.00    -0.085 HD
BRANCH  19  22
ATOM     22  C   UNL     1      -6.053   2.912   6.802  0.00  0.00    -0.044 C 
ATOM     23  C   UNL     1      -7.241   3.832   6.512  0.00  0.00    -0.009 C 
BRANCH  22  24
ATOM     24  C   UNL     1      -6.407   1.971   7.924  0.00  0.00    -0.062 A 
ATOM     25  C   UNL     1      -7.175   0.850   7.670  0.00  0.00    +0.002 A 
ATOM     26  C   UNL     1      -7.497  -0.015   8.698  0.00  0.00    +0.000 A 
ATOM     27  C   UNL     1      -7.059   0.245   9.983  0.00  0.00    +0.000 A 
ATOM     28  C   UNL     1      -6.295   1.369  10.239  0.00  0.00    +0.000 A 
ATOM     29  C   UNL     1      -5.970   2.232   9.209  0.00  0.00    +0.002 A 
ENDBRANCH  22  24
ENDBRANCH  19  22
ENDBRANCH  18  19
ENDBRANCH  16  18
TORSDOF 4
