REMARK  Name = ZINC01866597
REMARK  4 active torsions:
REMARK  status: ('A' for Active; 'I' for Inactive)
REMARK    1  A    between atoms: C_4  and  C_7
REMARK    2  A    between atoms: C_7  and  N_8
REMARK    3  A    between atoms: C_18  and  C_20
REMARK    4  A    between atoms: C_23  and  C_26
REMARK                            x       y       z     vdW  Elec       q    Type
REMARK                         _______ _______ _______ _____ _____    ______ ____
ROOT
ATOM      1  N   UNL     1       4.153  -0.953   1.342  0.00  0.00    +0.383 N 
ATOM      2  C   UNL     1       3.203  -1.854   2.005  0.00  0.00    -0.073 C 
ATOM      3  C   UNL     1       3.615  -2.053   3.465  0.00  0.00    +0.048 C 
ATOM      4  C   UNL     1       5.018  -2.670   3.513  0.00  0.00    +0.177 C 
ATOM      5  C   UNL     1       5.986  -1.749   2.759  0.00  0.00    +0.048 C 
ATOM      6  C   UNL     1       5.488  -1.562   1.325  0.00  0.00    -0.073 C 
ATOM      7  N   UNL     1       5.448  -2.848   4.876  0.00  0.00    -0.177 NA
ATOM      8  C   UNL     1       4.624  -3.899   5.547  0.00  0.00    +0.138 C 
ATOM      9  C   UNL     1       5.040  -3.716   6.981  0.00  0.00    +0.023 C 
ATOM     10  C   UNL     1       5.555  -2.472   7.046  0.00  0.00    +0.047 C 
ATOM     11  N   UNL     1       5.483  -1.855   5.781  0.00  0.00    -0.273 N 
ATOM     12  C   UNL     1       5.079  -5.167   4.888  0.00  0.00    +0.018 A 
ATOM     13  C   UNL     1       5.318  -6.335   5.560  0.00  0.00    +0.024 A 
ATOM     14  C   UNL     1       5.752  -7.453   4.862  0.00  0.00    +0.018 A 
ATOM     15  C   UNL     1       5.940  -7.378   3.494  0.00  0.00    +0.019 A 
ATOM     16  C   UNL     1       5.693  -6.202   2.814  0.00  0.00    +0.047 A 
ATOM     17  C   UNL     1       5.252  -5.081   3.501  0.00  0.00    +0.128 A 
ATOM     18  O   UNL     1       4.984  -3.941   2.848  0.00  0.00    -0.469 OA
ATOM     19 BR   UNL     1       6.086  -9.073   5.778  0.00  0.00    -0.050 Br
ATOM     20  H   UNL     1       5.464  -0.902   5.599  0.00  0.00    +0.167 HD
ATOM     21  H   UNL     1       4.190  -0.078   1.843  0.00  0.00    -0.081 HD
ENDROOT
BRANCH  10  22
ATOM     22  C   UNL     1       6.114  -1.847   8.266  0.00  0.00    -0.003 A 
ATOM     23  C   UNL     1       6.138  -2.558   9.467  0.00  0.00    +0.010 A 
ATOM     24  C   UNL     1       6.658  -1.976  10.601  0.00  0.00    +0.009 A 
ATOM     25  C   UNL     1       7.160  -0.676  10.551  0.00  0.00    -0.018 A 
ATOM     26  C   UNL     1       7.136   0.035   9.352  0.00  0.00    +0.009 A 
ATOM     27  C   UNL     1       6.622  -0.548   8.215  0.00  0.00    +0.010 A 
BRANCH  25  28
ATOM     28  C   UNL     1       7.719  -0.050  11.774  0.00  0.00    -0.018 A 
ATOM     29  C   UNL     1       7.750  -0.760  12.972  0.00  0.00    +0.008 A 
ATOM     30  C   UNL     1       8.272  -0.172  14.107  0.00  0.00    +0.001 A 
ATOM     31  C   UNL     1       8.763   1.120  14.056  0.00  0.00    +0.000 A 
ATOM     32  C   UNL     1       8.735   1.830  12.869  0.00  0.00    +0.001 A 
ATOM     33  C   UNL     1       8.222   1.249  11.727  0.00  0.00    +0.008 A 
ENDBRANCH  25  28
ENDBRANCH  10  22
BRANCH   1  34
ATOM     34  C   UNL     1       3.711  -0.707  -0.038  0.00  0.00    -0.043 C 
BRANCH  34  38
ATOM     35  C   UNL     1      -0.017   1.378   0.010  0.00  0.00    +0.000 A 
ATOM     36  C   UNL     1       1.171   2.086   0.002  0.00  0.00    +0.000 A 
ATOM     37  C   UNL     1       2.377   1.411  -0.013  0.00  0.00    +0.002 A 
ATOM     38  C   UNL     1       2.396   0.029  -0.020  0.00  0.00    -0.064 A 
ATOM     39  C   UNL     1       1.208  -0.679  -0.012  0.00  0.00    +0.002 A 
ATOM     40  C   UNL     1       0.002  -0.004   0.002  0.00  0.00    +0.000 A 
ENDBRANCH  34  38
ENDBRANCH   1  34
TORSDOF 4
