REMARK  Name = ZINC23331237
REMARK  14 active torsions:
REMARK  status: ('A' for Active; 'I' for Inactive)
REMARK    1  A    between atoms: C_1  and  C_2
REMARK    2  A    between atoms: C_2  and  C_3
REMARK    3  A    between atoms: C_2  and  N_4
REMARK    4  A    between atoms: N_4  and  C_5
REMARK    5  A    between atoms: N_4  and  C_33
REMARK    6  A    between atoms: C_5  and  C_6
REMARK    7  A    between atoms: C_6  and  S_7
REMARK    8  A    between atoms: S_7  and  C_8
REMARK    9  A    between atoms: C_12  and  S_24
REMARK   10  A    between atoms: N_16  and  C_17
REMARK   11  A    between atoms: C_17  and  C_18
REMARK   12  A    between atoms: S_24  and  N_27
REMARK   13  A    between atoms: C_33  and  C_34
REMARK   14  A    between atoms: C_33  and  C_35
REMARK                            x       y       z     vdW  Elec       q    Type
REMARK                         _______ _______ _______ _____ _____    ______ ____
ROOT
ATOM      1  C   UNL     1       1.298   1.802   0.084  0.00  0.00    +0.170 A 
ATOM      2  N   UNL     1       0.075   1.340  -0.005  0.00  0.00    -0.222 NA
ATOM      3  C   UNL     1       0.095  -0.018   0.036  0.00  0.00    +0.092 A 
ATOM      4  C   UNL     1      -0.902  -0.995  -0.018  0.00  0.00    +0.058 A 
ATOM      5  C   UNL     1      -0.559  -2.327   0.050  0.00  0.00    +0.108 A 
ATOM      6  C   UNL     1       0.769  -2.706   0.172  0.00  0.00    +0.030 A 
ATOM      7  C   UNL     1       1.766  -1.754   0.227  0.00  0.00    +0.030 A 
ATOM      8  C   UNL     1       1.439  -0.408   0.160  0.00  0.00    +0.070 A 
ATOM      9  N   UNL     1       2.179   0.763   0.188  0.00  0.00    -0.316 N 
ENDROOT
BRANCH   5  10
ATOM     10  S   UNL     1      -1.817  -3.558  -0.019  0.00  0.00    +0.061 S 
ATOM     11  O   UNL     1      -2.927  -2.969  -0.682  0.00  0.00    -0.153 OA
ATOM     12  O   UNL     1      -1.196  -4.748  -0.484  0.00  0.00    -0.153 OA
BRANCH  10  13
ATOM     13  N   UNL     1      -2.299  -3.853   1.538  0.00  0.00    -0.172 NA
ATOM     14  C   UNL     1      -1.646  -4.894   2.348  0.00  0.00    +0.137 C 
ATOM     15  C   UNL     1      -1.249  -4.273   3.697  0.00  0.00    +0.177 C 
ATOM     16  O   UNL     1      -2.393  -3.642   4.277  0.00  0.00    -0.377 OA
ATOM     17  C   UNL     1      -2.917  -2.558   3.507  0.00  0.00    +0.177 C 
ATOM     18  C   UNL     1      -3.396  -3.087   2.150  0.00  0.00    +0.137 C 
ENDBRANCH  10  13
ENDBRANCH   5  10
BRANCH   1  19
ATOM     19  S   UNL     1       1.740   3.507   0.069  0.00  0.00    -0.090 S 
BRANCH  19  20
ATOM     20  C   UNL     1       0.100   4.256  -0.090  0.00  0.00    +0.059 C 
BRANCH  20  21
ATOM     21  C   UNL     1       0.236   5.779  -0.125  0.00  0.00    -0.067 C 
BRANCH  21  22
ATOM     22  N   UNL     1      -1.100   6.391  -0.097  0.00  0.00    +0.383 N 
ATOM     23  H   UNL     1      -1.656   5.949   0.743  0.00  0.00    -0.081 HD
BRANCH  22  25
ATOM     24  C   UNL     1      -2.413   8.405   0.366  0.00  0.00    -0.014 C 
ATOM     25  C   UNL     1      -1.011   7.839   0.133  0.00  0.00    -0.075 C 
ATOM     26  C   UNL     1      -0.141   8.108   1.363  0.00  0.00    -0.014 C 
ENDBRANCH  22  25
BRANCH  22  27
ATOM     27  C   UNL     1      -1.839   6.098  -1.332  0.00  0.00    -0.075 C 
ATOM     28  C   UNL     1      -0.859   6.006  -2.503  0.00  0.00    -0.014 C 
ATOM     29  C   UNL     1      -2.579   4.767  -1.180  0.00  0.00    -0.014 C 
ENDBRANCH  22  27
ENDBRANCH  21  22
ENDBRANCH  20  21
ENDBRANCH  19  20
ENDBRANCH   1  19
BRANCH   9  30
ATOM     30  C   UNL     1       3.636   0.868   0.306  0.00  0.00    +0.156 C 
BRANCH  30  31
ATOM     31  C   UNL     1       4.263   0.862  -1.089  0.00  0.00    +0.138 C 
ATOM     32  C   UNL     1       5.802   0.856  -0.972  0.00  0.00    +0.035 C 
ATOM     33  C   UNL     1       6.224   1.809  -2.123  0.00  0.00    +0.031 C 
ATOM     34  C   UNL     1       5.056   2.826  -2.106  0.00  0.00    +0.160 C 
ATOM     35  O   UNL     1       3.887   2.050  -1.796  0.00  0.00    -0.375 OA
ENDBRANCH  30  31
ENDBRANCH   9  30
TORSDOF 10
