REMARK  Name = ZINC40901827
REMARK  6 active torsions:
REMARK  status: ('A' for Active; 'I' for Inactive)
REMARK    1  A    between atoms: C_3  and  N_16
REMARK    2  A    between atoms: C_6  and  C_7
REMARK    3  A    between atoms: C_9  and  C_12
REMARK    4  A    between atoms: C_19  and  C_22
REMARK    5  A    between atoms: C_27  and  C_30
REMARK    6  A    between atoms: C_27  and  N_33
REMARK                            x       y       z     vdW  Elec       q    Type
REMARK                         _______ _______ _______ _____ _____    ______ ____
ROOT
ATOM      1  N   UNL     1       3.651   2.973  -0.439  0.00  0.00    -0.328 N 
ATOM      2  C   UNL     1       4.582   4.068  -0.132  0.00  0.00    +0.106 C 
ATOM      3  C   UNL     1       6.015   3.532  -0.206  0.00  0.00    +0.031 C 
ATOM      4  C   UNL     1       6.149   2.316   0.713  0.00  0.00    +0.078 C 
ATOM      5  C   UNL     1       5.197   1.213   0.245  0.00  0.00    +0.031 C 
ATOM      6  C   UNL     1       3.751   1.724   0.329  0.00  0.00    +0.106 C 
ENDROOT
BRANCH   4   7
ATOM      7  C   UNL     1       7.567   1.806   0.669  0.00  0.00    +0.219 C 
ATOM      8  O   UNL     1       7.854   0.875  -0.053  0.00  0.00    -0.275 OA
ATOM      9  N   UNL     1       8.515   2.386   1.431  0.00  0.00    -0.301 N 
ATOM     10  C   UNL     1       8.163   3.441   2.390  0.00  0.00    +0.107 C 
ATOM     11  C   UNL     1       9.042   4.667   2.120  0.00  0.00    +0.016 C 
ATOM     12  C   UNL     1      10.514   4.251   2.155  0.00  0.00    +0.015 C 
ATOM     13  C   UNL     1      10.780   3.215   1.060  0.00  0.00    +0.016 C 
ATOM     14  C   UNL     1       9.920   1.970   1.323  0.00  0.00    +0.107 C 
BRANCH  12  15
ATOM     15  N   UNL     1      11.361   5.430   1.929  0.00  0.00    +0.389 N 
ATOM     16  C   UNL     1      11.093   6.430   2.970  0.00  0.00    -0.077 C 
ATOM     17  C   UNL     1      11.913   7.692   2.693  0.00  0.00    -0.019 C 
ATOM     18  C   UNL     1      13.403   7.337   2.695  0.00  0.00    -0.004 C 
ATOM     19  C   UNL     1      13.658   6.240   1.657  0.00  0.00    -0.019 C 
ATOM     20  C   UNL     1      12.773   5.032   1.972  0.00  0.00    -0.077 C 
ATOM     21  H   UNL     1      11.152   5.825   1.024  0.00  0.00    -0.080 HD
ENDBRANCH  12  15
BRANCH  12  22
ATOM     22  C   UNL     1      10.835   3.654   3.501  0.00  0.00    +0.200 C 
ATOM     23  O   UNL     1      10.087   3.832   4.438  0.00  0.00    -0.278 OA
ATOM     24  N   UNL     1      11.955   2.921   3.663  0.00  0.00    -0.330 N 
ATOM     25  H   UNL     1      12.589   2.837   2.934  0.00  0.00    +0.145 HD
ATOM     26  H   UNL     1      12.126   2.477   4.508  0.00  0.00    +0.145 HD
ENDBRANCH  12  22
ENDBRANCH   4   7
BRANCH   1  29
ATOM     27  C   UNL     1       0.481   3.774  -2.110  0.00  0.00    +0.013 A 
ATOM     28  C   UNL     1       1.434   3.628  -1.125  0.00  0.00    +0.027 A 
ATOM     29  C   UNL     1       2.688   3.119  -1.439  0.00  0.00    +0.065 A 
ATOM     30  C   UNL     1       2.984   2.753  -2.749  0.00  0.00    +0.145 A 
ATOM     31  C   UNL     1       2.033   2.897  -3.738  0.00  0.00    +0.052 A 
ATOM     32  C   UNL     1       0.774   3.409  -3.423  0.00  0.00    +0.025 A 
ATOM     33  F   UNL     1       4.204   2.258  -3.053  0.00  0.00    -0.204 F 
BRANCH  32  34
ATOM     34  C   UNL     1      -0.251   3.565  -4.484  0.00  0.00    +0.202 A 
ATOM     35  N   UNL     1      -0.092   3.246  -5.781  0.00  0.00    -0.191 NA
ATOM     36  C   UNL     1      -1.184   3.507  -6.441  0.00  0.00    +0.231 A 
ATOM     37  O   UNL     1      -2.088   4.006  -5.588  0.00  0.00    -0.337 OA
ATOM     38  N   UNL     1      -1.463   4.032  -4.313  0.00  0.00    -0.056 NA
BRANCH  36  39
ATOM     39  C   UNL     1      -1.395   3.286  -7.917  0.00  0.00    +0.078 C 
ATOM     40  C   UNL     1      -2.677   3.843  -8.538  0.00  0.00    +0.014 C 
ATOM     41  C   UNL     1      -2.519   2.335  -8.335  0.00  0.00    +0.014 C 
ENDBRANCH  36  39
ENDBRANCH  32  34
ENDBRANCH   1  29
TORSDOF 6
