REMARK  Name = ZINC13838109
REMARK  7 active torsions:
REMARK  status: ('A' for Active; 'I' for Inactive)
REMARK    1  A    between atoms: C_1  and  O_2
REMARK    2  A    between atoms: O_2  and  C_3
REMARK    3  A    between atoms: C_6  and  N_10
REMARK    4  A    between atoms: C_11  and  C_13
REMARK    5  A    between atoms: C_13  and  S_14
REMARK    6  A    between atoms: S_14  and  C_15
REMARK    7  A    between atoms: C_21  and  N_23
REMARK                            x       y       z     vdW  Elec       q    Type
REMARK                         _______ _______ _______ _____ _____    ______ ____
ROOT
ATOM      1  N   UNL     1       3.625  -0.652  -0.037  0.00  0.00    -0.283 N 
ATOM      2  C   UNL     1       4.744  -0.021  -0.443  0.00  0.00    +0.228 C 
ATOM      3  O   UNL     1       4.711   1.162  -0.709  0.00  0.00    -0.275 OA
ATOM      4  H   UNL     1       3.671  -1.704   0.283  0.00  0.00    +0.155 HD
ENDROOT
BRANCH   1   8
ATOM      5  C   UNL     1      -0.017   1.383   0.009  0.00  0.00    +0.122 A 
ATOM      6  C   UNL     1       0.790   1.380   1.138  0.00  0.00    +0.062 A 
ATOM      7  C   UNL     1       1.996   0.706   1.124  0.00  0.00    +0.044 A 
ATOM      8  C   UNL     1       2.401   0.032  -0.021  0.00  0.00    +0.062 A 
ATOM      9  C   UNL     1       1.593   0.035  -1.151  0.00  0.00    +0.044 A 
ATOM     10  C   UNL     1       0.387   0.710  -1.134  0.00  0.00    +0.062 A 
ATOM     11 BR   UNL     1       2.142  -0.882  -2.710  0.00  0.00    -0.048 Br
ATOM     12 BR   UNL     1       3.095   0.702   2.662  0.00  0.00    -0.048 Br
BRANCH   5  14
ATOM     13  C   UNL     1      -1.553   2.723   1.233  0.00  0.00    +0.277 C 
ATOM     14  O   UNL     1      -1.200   2.052   0.022  0.00  0.00    -0.495 OA
ENDBRANCH   5  14
ENDBRANCH   1   8
BRANCH   2  15
ATOM     15  C   UNL     1       6.037  -0.785  -0.568  0.00  0.00    +0.173 C 
BRANCH  15  16
ATOM     16  S   UNL     1       7.346   0.331  -1.131  0.00  0.00    -0.078 S 
BRANCH  16  17
ATOM     17  C   UNL     1       8.702  -0.792  -1.188  0.00  0.00    +0.171 A 
ATOM     18  N   UNL     1       9.927  -0.341  -1.577  0.00  0.00    -0.302 N 
ATOM     19  H   UNL     1      10.061   0.716  -1.853  0.00  0.00    +0.171 HD
ATOM     20  C   UNL     1      10.977  -1.187  -1.626  0.00  0.00    +0.254 A 
ATOM     21  O   UNL     1      12.078  -0.790  -1.974  0.00  0.00    -0.268 OA
ATOM     22  C   UNL     1      10.783  -2.525  -1.272  0.00  0.00    +0.113 A 
ATOM     23  C   UNL     1       9.515  -2.936  -0.882  0.00  0.00    +0.124 A 
ATOM     24  N   UNL     1       8.513  -2.051  -0.847  0.00  0.00    -0.209 NA
BRANCH  23  25
ATOM     25  N   UNL     1       9.292  -4.250  -0.526  0.00  0.00    -0.343 N 
ATOM     26  H   UNL     1       8.286  -4.573  -0.218  0.00  0.00    +0.144 HD
ATOM     27  H   UNL     1      10.119  -4.975  -0.551  0.00  0.00    +0.144 HD
ENDBRANCH  23  25
ENDBRANCH  16  17
ENDBRANCH  15  16
ENDBRANCH   2  15
TORSDOF 6
