REMARK  Name = ZINC63271410
REMARK  6 active torsions:
REMARK  status: ('A' for Active; 'I' for Inactive)
REMARK    1  A    between atoms: C_4  and  C_7
REMARK    2  A    between atoms: C_7  and  C_9
REMARK    3  A    between atoms: C_7  and  O_31
REMARK    4  A    between atoms: C_9  and  N_10
REMARK    5  A    between atoms: C_11  and  C_13
REMARK    6  A    between atoms: C_13  and  N_14
REMARK                            x       y       z     vdW  Elec       q    Type
REMARK                         _______ _______ _______ _____ _____    ______ ____
ROOT
ATOM      1  N   UNL     1       7.550  -3.263  -4.066  0.00  0.00    -0.291 N 
ATOM      2  C   UNL     1       8.696  -3.922  -4.327  0.00  0.00    +0.303 C 
ATOM      3  O   UNL     1       9.480  -4.158  -3.429  0.00  0.00    -0.253 OA
ATOM      4  N   UNL     1       8.972  -4.321  -5.585  0.00  0.00    -0.283 N 
ATOM      5  C   UNL     1       8.082  -3.927  -6.682  0.00  0.00    +0.114 C 
ATOM      6  C   UNL     1       8.888  -3.157  -7.744  0.00  0.00    +0.052 C 
ATOM      7  C   UNL     1      10.160  -3.936  -7.972  0.00  0.00    -0.036 C 
ATOM      8  C   UNL     1      10.727  -4.385  -9.084  0.00  0.00    -0.001 A 
ATOM      9  C   UNL     1      10.386  -4.196 -10.504  0.00  0.00    +0.010 A 
ATOM     10  C   UNL     1      11.186  -4.828 -11.402  0.00  0.00    +0.001 A 
ATOM     11  C   UNL     1      12.278  -5.620 -11.035  0.00  0.00    +0.002 A 
ATOM     12  C   UNL     1      12.670  -5.842  -9.755  0.00  0.00    +0.026 A 
ATOM     13  C   UNL     1      11.911  -5.222  -8.720  0.00  0.00    +0.043 A 
ATOM     14  N   UNL     1      12.072  -5.244  -7.430  0.00  0.00    -0.376 N 
ATOM     15  C   UNL     1      11.058  -4.381  -6.824  0.00  0.00    +0.124 C 
ATOM     16  C   UNL     1      10.167  -5.140  -5.843  0.00  0.00    +0.138 C 
ATOM     17  H   UNL     1       6.959  -3.010  -4.792  0.00  0.00    +0.151 HD
ATOM     18  H   UNL     1      12.749  -5.747  -6.952  0.00  0.00    +0.160 HD
ENDROOT
BRANCH   1  19
ATOM     19  C   UNL     1       7.198  -2.926  -2.684  0.00  0.00    +0.201 C 
BRANCH  19  21
ATOM     20  N   UNL     1       5.353  -1.785  -1.495  0.00  0.00    -0.311 N 
ATOM     21  C   UNL     1       5.879  -2.196  -2.666  0.00  0.00    +0.230 C 
ATOM     22  O   UNL     1       5.292  -1.978  -3.704  0.00  0.00    -0.274 OA
ATOM     23  H   UNL     1       5.823  -1.959  -0.664  0.00  0.00    +0.149 HD
BRANCH  20  24
ATOM     24  C   UNL     1       4.072  -1.075  -1.477  0.00  0.00    +0.140 C 
BRANCH  24  25
ATOM     25  C   UNL     1       3.703  -0.724  -0.034  0.00  0.00    +0.162 C 
BRANCH  25  29
ATOM     26  C   UNL     1      -0.033   1.345   0.016  0.00  0.00    +0.000 A 
ATOM     27  C   UNL     1       1.151   2.058   0.006  0.00  0.00    +0.000 A 
ATOM     28  C   UNL     1       2.361   1.388  -0.010  0.00  0.00    +0.006 A 
ATOM     29  C   UNL     1       2.385   0.006  -0.015  0.00  0.00    -0.018 A 
ATOM     30  C   UNL     1       1.201  -0.707  -0.004  0.00  0.00    +0.006 A 
ATOM     31  C   UNL     1      -0.009  -0.037   0.010  0.00  0.00    +0.000 A 
ENDBRANCH  25  29
BRANCH  25  32
ATOM     32  O   UNL     1       3.595  -1.923   0.736  0.00  0.00    -0.386 OA
ATOM     33  H   UNL     1       2.923  -2.539   0.411  0.00  0.00    +0.210 HD
ENDBRANCH  25  32
ENDBRANCH  24  25
ENDBRANCH  20  24
ENDBRANCH  19  21
ENDBRANCH   1  19
TORSDOF 6
