REMARK  Name = ZINC37131279
REMARK  5 active torsions:
REMARK  status: ('A' for Active; 'I' for Inactive)
REMARK    1  A    between atoms: C_1  and  C_2
REMARK    2  A    between atoms: C_2  and  C_4
REMARK    3  A    between atoms: C_2  and  N_12
REMARK    4  A    between atoms: N_12  and  C_13
REMARK    5  A    between atoms: C_16  and  N_20
REMARK                            x       y       z     vdW  Elec       q    Type
REMARK                         _______ _______ _______ _____ _____    ______ ____
ROOT
ATOM      1  N   UNL     1      -1.373  -0.490  -0.132  0.00  0.00    -0.336 N 
ATOM      2  H   UNL     1      -1.898  -0.685   0.660  0.00  0.00    +0.147 HD
ENDROOT
BRANCH   1   3
ATOM      3  C   UNL     1      -1.929  -0.673  -1.401  0.00  0.00    +0.042 A 
ATOM      4  C   UNL     1      -1.177  -0.401  -2.536  0.00  0.00    +0.026 A 
ATOM      5  C   UNL     1      -1.729  -0.583  -3.789  0.00  0.00    +0.034 A 
ATOM      6  C   UNL     1      -3.029  -1.037  -3.914  0.00  0.00    +0.127 A 
ATOM      7  C   UNL     1      -3.781  -1.309  -2.787  0.00  0.00    +0.049 A 
ATOM      8  C   UNL     1      -3.234  -1.134  -1.530  0.00  0.00    +0.041 A 
ATOM      9 BR   UNL     1      -4.260  -1.515   0.012  0.00  0.00    -0.048 Br
BRANCH   6  10
ATOM     10  N   UNL     1      -3.617  -1.230  -5.259  0.00  0.00    +0.056 N 
ATOM     11  O   UNL     1      -2.961  -0.992  -6.246  0.00  0.00    -0.126 OA
ATOM     12  O   UNL     1      -4.754  -1.627  -5.370  0.00  0.00    -0.126 OA
ENDBRANCH   6  10
ENDBRANCH   1   3
BRANCH   1  14
ATOM     13  C   UNL     1       0.010   1.525  -0.049  0.00  0.00    +0.033 C 
ATOM     14  C   UNL     1       0.002  -0.004   0.002  0.00  0.00    +0.100 C 
BRANCH  14  15
ATOM     15  C   UNL     1       0.572  -0.465   1.319  0.00  0.00    +0.010 A 
ATOM     16  C   UNL     1      -0.269  -0.711   2.388  0.00  0.00    +0.046 A 
ATOM     17  C   UNL     1       0.254  -1.135   3.597  0.00  0.00    +0.124 A 
ATOM     18  C   UNL     1       1.620  -1.314   3.736  0.00  0.00    +0.041 A 
ATOM     19  C   UNL     1       2.461  -1.069   2.667  0.00  0.00    +0.041 A 
ATOM     20  C   UNL     1       1.937  -0.649   1.456  0.00  0.00    +0.128 A 
ATOM     21  F   UNL     1       2.759  -0.415   0.409  0.00  0.00    -0.205 F 
ATOM     22  F   UNL     1      -0.568  -1.374   4.642  0.00  0.00    -0.205 F 
ENDBRANCH  14  15
ENDBRANCH   1  14
TORSDOF 4
