REMARK  Name = ZINC06161630
REMARK  11 active torsions:
REMARK  status: ('A' for Active; 'I' for Inactive)
REMARK    1  A    between atoms: C_1  and  N_2
REMARK    2  A    between atoms: N_2  and  C_3
REMARK    3  A    between atoms: N_2  and  S_4
REMARK    4  A    between atoms: S_4  and  C_7
REMARK    5  A    between atoms: C_10  and  C_13
REMARK    6  A    between atoms: C_13  and  C_15
REMARK    7  A    between atoms: C_16  and  O_36
REMARK    8  A    between atoms: N_19  and  C_29
REMARK    9  A    between atoms: C_20  and  C_22
REMARK   10  A    between atoms: C_29  and  C_30
REMARK   11  A    between atoms: C_30  and  N_66
REMARK                            x       y       z     vdW  Elec       q    Type
REMARK                         _______ _______ _______ _____ _____    ______ ____
ROOT
ATOM      1  C   UNL     1      -3.011   0.774   1.412  0.00  0.00    +0.071 C 
ATOM      2  C   UNL     1      -3.089  -0.574   1.515  0.00  0.00    +0.188 C 
ATOM      3  C   UNL     1      -2.597  -1.186   0.263  0.00  0.00    +0.282 C 
ATOM      4  O   UNL     1      -2.541  -2.380   0.045  0.00  0.00    -0.267 OA
ATOM      5  N   UNL     1      -2.220  -0.225  -0.601  0.00  0.00    -0.285 N 
ATOM      6  C   UNL     1      -2.447   1.074   0.043  0.00  0.00    +0.147 C 
ENDROOT
BRANCH   6   7
ATOM      7  C   UNL     1      -1.145   1.823   0.172  0.00  0.00    +0.013 A 
ATOM      8  C   UNL     1      -0.477   1.845   1.382  0.00  0.00    +0.008 A 
ATOM      9  C   UNL     1       0.719   2.527   1.499  0.00  0.00    +0.001 A 
ATOM     10  C   UNL     1       1.247   3.192   0.408  0.00  0.00    +0.003 A 
ATOM     11  C   UNL     1       0.578   3.176  -0.801  0.00  0.00    +0.039 A 
ATOM     12  C   UNL     1      -0.621   2.493  -0.920  0.00  0.00    +0.129 A 
ATOM     13  F   UNL     1      -1.275   2.477  -2.102  0.00  0.00    -0.205 F 
ENDBRANCH   6   7
BRANCH   1  14
ATOM     14  C   UNL     1      -3.398   1.752   2.432  0.00  0.00    +0.195 C 
ATOM     15  O   UNL     1      -2.860   1.739   3.523  0.00  0.00    -0.287 OA
BRANCH  14  19
ATOM     16  C   UNL     1      -6.400   4.634   1.580  0.00  0.00    +0.105 A 
ATOM     17  C   UNL     1      -5.695   4.705   2.769  0.00  0.00    +0.029 A 
ATOM     18  C   UNL     1      -4.719   3.773   3.052  0.00  0.00    +0.013 A 
ATOM     19  C   UNL     1      -4.443   2.755   2.136  0.00  0.00    +0.022 A 
ATOM     20  C   UNL     1      -5.155   2.693   0.936  0.00  0.00    +0.013 A 
ATOM     21  C   UNL     1      -6.132   3.629   0.668  0.00  0.00    +0.029 A 
BRANCH  16  22
ATOM     22  S   UNL     1      -7.646   5.829   1.227  0.00  0.00    +0.060 S 
ATOM     23  O   UNL     1      -8.536   5.226   0.299  0.00  0.00    -0.153 OA
ATOM     24  O   UNL     1      -8.083   6.343   2.478  0.00  0.00    -0.153 OA
BRANCH  22  26
ATOM     25  C   UNL     1      -6.817   7.068  -1.030  0.00  0.00    +0.131 C 
ATOM     26  N   UNL     1      -6.911   7.083   0.432  0.00  0.00    -0.183 NA
ATOM     27  C   UNL     1      -6.355   8.206   1.191  0.00  0.00    +0.131 C 
ENDBRANCH  22  26
ENDBRANCH  16  22
ENDBRANCH  14  19
ENDBRANCH   1  14
BRANCH   2  28
ATOM     28  O   UNL     1      -3.545  -1.253   2.593  0.00  0.00    -0.502 OA
ATOM     29  H   UNL     1      -3.498  -2.235   2.412  0.00  0.00    +0.292 HD
ENDBRANCH   2  28
BRANCH   5  30
ATOM     30  C   UNL     1      -1.680  -0.438  -1.946  0.00  0.00    +0.090 C 
BRANCH  30  31
ATOM     31  C   UNL     1      -0.175  -0.699  -1.855  0.00  0.00    -0.060 C 
BRANCH  31  37
ATOM     32  C   UNL     1      -0.131  -1.954  -3.924  0.00  0.00    -0.079 C 
ATOM     33  C   UNL     1       0.363  -1.930  -5.373  0.00  0.00    -0.019 C 
ATOM     34  C   UNL     1       1.894  -1.940  -5.385  0.00  0.00    -0.004 C 
ATOM     35  C   UNL     1       2.411  -0.736  -4.592  0.00  0.00    -0.019 C 
ATOM     36  C   UNL     1       1.858  -0.795  -3.167  0.00  0.00    -0.079 C 
ATOM     37  N   UNL     1       0.381  -0.758  -3.223  0.00  0.00    +0.381 N 
ATOM     38  H   UNL     1       0.088   0.081  -3.738  0.00  0.00    -0.082 HD
ENDBRANCH  31  37
ENDBRANCH  30  31
ENDBRANCH   5  30
TORSDOF 9
