REMARK  Name = ZINC39527654
REMARK  6 active torsions:
REMARK  status: ('A' for Active; 'I' for Inactive)
REMARK    1  A    between atoms: C_6  and  O_11
REMARK    2  A    between atoms: O_11  and  C_12
REMARK    3  A    between atoms: C_12  and  C_13
REMARK    4  A    between atoms: C_13  and  N_14
REMARK    5  A    between atoms: C_15  and  C_17
REMARK    6  A    between atoms: C_17  and  N_18
REMARK                            x       y       z     vdW  Elec       q    Type
REMARK                         _______ _______ _______ _____ _____    ______ ____
ROOT
ATOM      1  N   UNL     1       6.938  -4.255   1.165  0.00  0.00    -0.311 N 
ATOM      2  C   UNL     1       8.213  -4.639   1.374  0.00  0.00    +0.231 C 
ATOM      3  O   UNL     1       8.799  -5.284   0.530  0.00  0.00    -0.274 OA
ATOM      4  H   UNL     1       6.470  -3.740   1.841  0.00  0.00    +0.149 HD
ENDROOT
BRANCH   1   5
ATOM      5  C   UNL     1       6.260  -4.616  -0.082  0.00  0.00    +0.145 C 
BRANCH   5   6
ATOM      6  C   UNL     1       4.834  -4.062  -0.065  0.00  0.00    +0.247 C 
BRANCH   6   7
ATOM      7  O   UNL     1       4.878  -2.633  -0.059  0.00  0.00    -0.490 OA
BRANCH   7  13
ATOM      8  C   UNL     1      -0.016   1.357   0.009  0.00  0.00    +0.001 A 
ATOM      9  C   UNL     1       1.169   2.091   0.002  0.00  0.00    +0.001 A 
ATOM     10  C   UNL     1       2.378   1.468  -0.013  0.00  0.00    +0.008 A 
ATOM     11  C   UNL     1       2.437   0.063  -0.021  0.00  0.00    -0.014 A 
ATOM     12  C   UNL     1       3.668  -0.614  -0.037  0.00  0.00    +0.054 A 
ATOM     13  C   UNL     1       3.687  -1.980  -0.044  0.00  0.00    +0.121 A 
ATOM     14  C   UNL     1       2.497  -2.714  -0.036  0.00  0.00    +0.046 A 
ATOM     15  C   UNL     1       1.289  -2.088  -0.022  0.00  0.00    +0.012 A 
ATOM     16  C   UNL     1       1.232  -0.683  -0.013  0.00  0.00    -0.018 A 
ATOM     17  C   UNL     1       0.002  -0.004   0.002  0.00  0.00    +0.008 A 
ENDBRANCH   7  13
ENDBRANCH   6   7
ENDBRANCH   5   6
ENDBRANCH   1   5
BRANCH   2  18
ATOM     18  C   UNL     1       8.911  -4.268   2.657  0.00  0.00    +0.213 C 
BRANCH  18  19
ATOM     19  N   UNL     1      10.277  -4.799   2.641  0.00  0.00    -0.215 N 
ATOM     20  C   UNL     1      10.621  -6.022   3.099  0.00  0.00    +0.251 C 
ATOM     21  O   UNL     1       9.891  -6.860   3.583  0.00  0.00    -0.272 OA
ATOM     22  C   UNL     1      12.108  -6.123   2.880  0.00  0.00    +0.138 C 
ATOM     23  C   UNL     1      12.852  -6.350   4.202  0.00  0.00    +0.045 C 
ATOM     24  C   UNL     1      14.049  -7.221   3.757  0.00  0.00    +0.038 C 
ATOM     25  C   UNL     1      13.583  -7.923   2.499  0.00  0.00    -0.042 A 
ATOM     26  C   UNL     1      12.462  -7.286   1.993  0.00  0.00    -0.012 A 
ATOM     27  C   UNL     1      11.865  -7.762   0.838  0.00  0.00    +0.006 A 
ATOM     28  C   UNL     1      12.382  -8.867   0.190  0.00  0.00    +0.000 A 
ATOM     29  C   UNL     1      13.499  -9.504   0.696  0.00  0.00    +0.000 A 
ATOM     30  C   UNL     1      14.098  -9.031   1.848  0.00  0.00    +0.004 A 
ATOM     31  N   UNL     1      12.479  -4.844   2.272  0.00  0.00    -0.281 N 
ATOM     32  C   UNL     1      11.338  -4.134   2.166  0.00  0.00    +0.310 C 
ATOM     33  O   UNL     1      11.279  -3.015   1.695  0.00  0.00    -0.252 OA
ATOM     34  H   UNL     1      13.367  -4.565   1.998  0.00  0.00    +0.152 HD
ENDBRANCH  18  19
ENDBRANCH   2  18
TORSDOF 6
