REMARK  Name = ZINC22851893
REMARK  5 active torsions:
REMARK  status: ('A' for Active; 'I' for Inactive)
REMARK    1  A    between atoms: C_5  and  C_7
REMARK    2  A    between atoms: C_7  and  C_9
REMARK    3  A    between atoms: C_7  and  N_23
REMARK    4  A    between atoms: C_15  and  C_17
REMARK    5  A    between atoms: C_26  and  O_29
REMARK                            x       y       z     vdW  Elec       q    Type
REMARK                         _______ _______ _______ _____ _____    ______ ____
ROOT
ATOM      1  C   UNL     1       1.229  -2.186  -0.022  0.00  0.00    +0.007 C 
ENDROOT
BRANCH   1   2
ATOM      2  C   UNL     1       1.373  -2.695   1.389  0.00  0.00    +0.050 A 
ATOM      3  C   UNL     1       2.385  -3.375   1.942  0.00  0.00    +0.282 A 
ATOM      4  N   UNL     1       2.336  -3.756   3.260  0.00  0.00    -0.169 N 
ATOM      5  C   UNL     1       1.218  -3.411   3.968  0.00  0.00    +0.200 A 
ATOM      6  S   UNL     1       0.243  -2.540   2.764  0.00  0.00    -0.050 S 
ATOM      7  N   UNL     1       1.323  -3.841   5.194  0.00  0.00    -0.197 NA
ATOM      8  C   UNL     1       2.493  -4.476   5.342  0.00  0.00    +0.218 A 
ATOM      9  N   UNL     1       3.143  -4.452   4.198  0.00  0.00    -0.138 NA
ATOM     10  O   UNL     1       3.473  -3.692   1.189  0.00  0.00    -0.265 OA
BRANCH   8  11
ATOM     11  C   UNL     1       2.977  -5.104   6.590  0.00  0.00    +0.173 A 
ATOM     12  C   UNL     1       2.311  -5.140   7.774  0.00  0.00    +0.053 A 
ATOM     13  C   UNL     1       3.136  -5.833   8.683  0.00  0.00    +0.042 A 
ATOM     14  C   UNL     1       4.253  -6.182   8.014  0.00  0.00    +0.196 A 
ATOM     15  O   UNL     1       4.151  -5.745   6.749  0.00  0.00    -0.460 OA
ENDBRANCH   8  11
ENDBRANCH   1   2
BRANCH   1  20
ATOM     16  C   UNL     1      -0.017   1.378   0.010  0.00  0.00    +0.000 A 
ATOM     17  C   UNL     1       1.171   2.086   0.002  0.00  0.00    +0.001 A 
ATOM     18  C   UNL     1       2.377   1.412  -0.013  0.00  0.00    +0.020 A 
ATOM     19  C   UNL     1       2.397   0.029  -0.021  0.00  0.00    +0.043 A 
ATOM     20  C   UNL     1       1.208  -0.679  -0.013  0.00  0.00    -0.038 A 
ATOM     21  C   UNL     1       0.002  -0.004   0.002  0.00  0.00    +0.004 A 
ATOM     22 CL   UNL     1       3.912  -0.818  -0.041  0.00  0.00    -0.083 Cl
ENDBRANCH   1  20
BRANCH   1  23
ATOM     23  N   UNL     1      -0.026  -2.689  -0.597  0.00  0.00    +0.388 N 
ATOM     24  C   UNL     1      -0.008  -4.157  -0.597  0.00  0.00    -0.075 C 
ATOM     25  C   UNL     1      -1.345  -4.687  -1.120  0.00  0.00    +0.013 C 
ATOM     26  C   UNL     1      -1.566  -4.178  -2.548  0.00  0.00    +0.111 C 
ATOM     27  C   UNL     1      -1.508  -2.647  -2.548  0.00  0.00    +0.013 C 
ATOM     28  C   UNL     1      -0.166  -2.193  -1.972  0.00  0.00    -0.075 C 
ATOM     29  H   UNL     1      -0.803  -2.364  -0.043  0.00  0.00    -0.080 HD
BRANCH  26  30
ATOM     30  O   UNL     1      -2.846  -4.608  -3.015  0.00  0.00    -0.392 OA
ATOM     31  H   UNL     1      -3.053  -4.320  -3.915  0.00  0.00    +0.210 HD
ENDBRANCH  26  30
ENDBRANCH   1  23
TORSDOF 5
