REMARK  Name = ZINC07926381
REMARK  9 active torsions:
REMARK  status: ('A' for Active; 'I' for Inactive)
REMARK    1  A    between atoms: C_4  and  S_7
REMARK    2  A    between atoms: S_7  and  C_8
REMARK    3  A    between atoms: C_8  and  C_9
REMARK    4  A    between atoms: C_9  and  N_10
REMARK    5  A    between atoms: N_10  and  C_11
REMARK    6  A    between atoms: C_11  and  N_13
REMARK    7  A    between atoms: N_13  and  N_14
REMARK    8  A    between atoms: C_15  and  C_17
REMARK    9  A    between atoms: C_22  and  O_23
REMARK                            x       y       z     vdW  Elec       q    Type
REMARK                         _______ _______ _______ _____ _____    ______ ____
ROOT
ATOM      1  N   UNL     1      -0.017   1.397   0.010  0.00  0.00    -0.246 N 
ATOM      2  H   UNL     1       0.816   1.893   0.004  0.00  0.00    +0.172 HD
ENDROOT
BRANCH   1   3
ATOM      3  N   UNL     1       0.002  -0.004   0.002  0.00  0.00    -0.231 N 
ATOM      4  C   UNL     1       1.178  -0.662  -0.013  0.00  0.00    +0.264 C 
ATOM      5  O   UNL     1       2.223  -0.040  -0.019  0.00  0.00    -0.269 OA
ATOM      6  H   UNL     1      -0.831  -0.500   0.007  0.00  0.00    +0.173 HD
BRANCH   4   7
ATOM      7  C   UNL     1       1.198  -2.137  -0.021  0.00  0.00    +0.079 A 
ATOM      8  C   UNL     1       0.000  -2.856  -0.007  0.00  0.00    +0.017 A 
ATOM      9  C   UNL     1       0.026  -4.234  -0.019  0.00  0.00    +0.001 A 
ATOM     10  C   UNL     1       1.235  -4.910  -0.035  0.00  0.00    +0.004 A 
ATOM     11  C   UNL     1       2.426  -4.212  -0.043  0.00  0.00    +0.046 A 
ATOM     12  C   UNL     1       2.419  -2.825  -0.036  0.00  0.00    +0.129 A 
BRANCH  12  13
ATOM     13  O   UNL     1       3.588  -2.138  -0.044  0.00  0.00    -0.506 OA
ATOM     14  H   UNL     1       3.936  -1.944   0.838  0.00  0.00    +0.292 HD
ENDBRANCH  12  13
ENDBRANCH   4   7
ENDBRANCH   1   3
BRANCH   1  15
ATOM     15  C   UNL     1      -1.193   2.055   0.019  0.00  0.00    +0.147 C 
ATOM     16  S   UNL     1      -1.216   3.767   0.028  0.00  0.00    -0.017 S 
BRANCH  15  17
ATOM     17  N   UNL     1      -2.351   1.365   0.021  0.00  0.00    -0.325 N 
ATOM     18  H   UNL     1      -2.338   0.395   0.015  0.00  0.00    +0.148 HD
BRANCH  17  19
ATOM     19  C   UNL     1      -3.630   2.080   0.031  0.00  0.00    +0.114 C 
BRANCH  19  20
ATOM     20  C   UNL     1      -4.779   1.070   0.030  0.00  0.00    +0.093 C 
BRANCH  20  21
ATOM     21  S   UNL     1      -6.362   1.956   0.043  0.00  0.00    -0.124 S 
BRANCH  21  25
ATOM     22  C   UNL     1      -9.464  -1.345   0.040  0.00  0.00    +0.000 A 
ATOM     23  C   UNL     1      -9.865  -0.021   0.049  0.00  0.00    +0.001 A 
ATOM     24  C   UNL     1      -8.922   0.988   0.050  0.00  0.00    +0.015 A 
ATOM     25  C   UNL     1      -7.569   0.672   0.042  0.00  0.00    +0.008 A 
ATOM     26  C   UNL     1      -7.169  -0.659   0.027  0.00  0.00    +0.015 A 
ATOM     27  C   UNL     1      -8.118  -1.663   0.032  0.00  0.00    +0.001 A 
ENDBRANCH  21  25
ENDBRANCH  20  21
ENDBRANCH  19  20
ENDBRANCH  17  19
ENDBRANCH  15  17
ENDBRANCH   1  15
TORSDOF 9
