REMARK  Name = ZINC32666109
REMARK  3 active torsions:
REMARK  status: ('A' for Active; 'I' for Inactive)
REMARK    1  A    between atoms: C_11  and  C_22
REMARK    2  A    between atoms: C_15  and  C_17
REMARK    3  A    between atoms: C_25  and  O_28
REMARK                            x       y       z     vdW  Elec       q    Type
REMARK                         _______ _______ _______ _____ _____    ______ ____
ROOT
ATOM      1  C   UNL     1       2.254   2.066  -0.114  0.00  0.00    +0.001 A 
ATOM      2  C   UNL     1       2.420   0.689  -0.179  0.00  0.00    +0.002 A 
ATOM      3  C   UNL     1       1.328  -0.150  -0.175  0.00  0.00    +0.026 A 
ATOM      4  C   UNL     1       0.046   0.383  -0.104  0.00  0.00    +0.047 A 
ATOM      5  C   UNL     1      -0.119   1.781  -0.039  0.00  0.00    +0.004 A 
ATOM      6  C   UNL     1       1.004   2.612  -0.044  0.00  0.00    +0.010 A 
ATOM      7  C   UNL     1      -1.556   2.009   0.017  0.00  0.00    -0.008 A 
ATOM      8  C   UNL     1      -2.159   0.802  -0.005  0.00  0.00    +0.043 A 
ATOM      9  N   UNL     1      -1.213  -0.179  -0.081  0.00  0.00    -0.356 N 
ATOM     10  H   UNL     1      -1.328  -1.272  -0.122  0.00  0.00    +0.166 HD
ATOM     11  C   UNL     1      -3.659   0.631   0.046  0.00  0.00    +0.131 C 
ATOM     12  N   UNL     1      -4.256   1.891   0.507  0.00  0.00    -0.304 NA
ATOM     13  C   UNL     1      -3.771   3.042  -0.267  0.00  0.00    +0.095 C 
ATOM     14  C   UNL     1      -2.303   3.316   0.092  0.00  0.00    +0.072 C 
ATOM     15  H   UNL     1      -5.350   1.839   0.399  0.00  0.00    +0.123 HD
ENDROOT
BRANCH  11  16
ATOM     16  C   UNL     1      -4.181   0.312  -1.331  0.00  0.00    -0.024 A 
ATOM     17  C   UNL     1      -5.482   0.636  -1.668  0.00  0.00    +0.009 A 
ATOM     18  C   UNL     1      -5.961   0.350  -2.932  0.00  0.00    +0.046 A 
ATOM     19  C   UNL     1      -5.139  -0.274  -3.859  0.00  0.00    +0.117 A 
ATOM     20  C   UNL     1      -3.835  -0.603  -3.517  0.00  0.00    +0.046 A 
ATOM     21  C   UNL     1      -3.359  -0.309  -2.253  0.00  0.00    +0.009 A 
BRANCH  19  22
ATOM     22  O   UNL     1      -5.610  -0.562  -5.101  0.00  0.00    -0.507 OA
ATOM     23  H   UNL     1      -4.957  -1.056  -5.836  0.00  0.00    +0.292 HD
ENDBRANCH  19  22
ENDBRANCH  11  16
BRANCH  14  24
ATOM     24  C   UNL     1      -1.713   4.297  -0.888  0.00  0.00    -0.002 A 
ATOM     25  C   UNL     1      -1.157   5.510  -0.652  0.00  0.00    +0.012 A 
ATOM     26  C   UNL     1      -0.671   6.244  -1.718  0.00  0.00    +0.008 A 
ATOM     27  C   UNL     1      -0.775   5.734  -2.969  0.00  0.00    +0.045 A 
ATOM     28  S   UNL     1      -1.572   4.166  -2.663  0.00  0.00    -0.101 S 
ENDBRANCH  14  24
TORSDOF 3
