REMARK  Name = ZINC55168774
REMARK  11 active torsions:
REMARK  status: ('A' for Active; 'I' for Inactive)
REMARK    1  A    between atoms: C_1  and  C_2
REMARK    2  A    between atoms: C_3  and  N_23
REMARK    3  A    between atoms: C_6  and  N_22
REMARK    4  A    between atoms: C_7  and  N_8
REMARK    5  A    between atoms: N_8  and  C_9
REMARK    6  A    between atoms: C_15  and  O_17
REMARK    7  A    between atoms: O_17  and  C_18
REMARK    8  A    between atoms: C_18  and  C_19
REMARK    9  A    between atoms: C_18  and  C_20
REMARK   10  A    between atoms: C_18  and  C_21
REMARK   11  A    between atoms: C_26  and  N_29
REMARK                            x       y       z     vdW  Elec       q    Type
REMARK                         _______ _______ _______ _____ _____    ______ ____
ROOT
ATOM      1  C   UNL     1      -0.206   2.817   2.258  0.00  0.00    +0.047 C 
ATOM      2  C   UNL     1       0.721   1.994   1.402  0.00  0.00    -0.007 A 
ATOM      3  C   UNL     1       1.565   2.617   0.492  0.00  0.00    +0.035 A 
ATOM      4  C   UNL     1       2.419   1.859  -0.296  0.00  0.00    +0.025 A 
ATOM      5  C   UNL     1       2.430   0.480  -0.180  0.00  0.00    +0.026 A 
ATOM      6  C   UNL     1       1.589  -0.147   0.726  0.00  0.00    +0.046 A 
ATOM      7  C   UNL     1       0.735   0.613   1.525  0.00  0.00    +0.053 A 
ENDROOT
BRANCH   3   8
ATOM      8  N   UNL     1       1.555   4.012   0.371  0.00  0.00    -0.330 N 
ATOM      9  C   UNL     1       2.449   4.841   1.191  0.00  0.00    +0.103 C 
ATOM     10  C   UNL     1       1.612   5.894   1.923  0.00  0.00    +0.004 C 
ATOM     11  C   UNL     1       0.784   6.681   0.903  0.00  0.00    -0.066 C 
ATOM     12  C   UNL     1      -0.167   5.729   0.173  0.00  0.00    +0.004 C 
ATOM     13  C   UNL     1       0.655   4.674  -0.582  0.00  0.00    +0.103 C 
BRANCH  11  14
ATOM     14  N   UNL     1       0.005   7.714   1.599  0.00  0.00    +0.382 N 
ATOM     15  C   UNL     1       0.915   8.697   2.239  0.00  0.00    -0.079 C 
ATOM     16  C   UNL     1       0.019   9.950   2.411  0.00  0.00    -0.020 C 
ATOM     17  C   UNL     1      -0.838   9.941   1.125  0.00  0.00    -0.020 C 
ATOM     18  C   UNL     1      -0.801   8.484   0.627  0.00  0.00    -0.079 C 
ATOM     19  H   UNL     1      -0.595   7.291   2.291  0.00  0.00    -0.081 HD
ENDBRANCH  11  14
ENDBRANCH   3   8
BRANCH   6  20
ATOM     20  N   UNL     1       1.602  -1.545   0.843  0.00  0.00    -0.357 N 
ATOM     21  H   UNL     1       2.124  -2.079   0.224  0.00  0.00    +0.142 HD
ATOM     22  H   UNL     1       1.088  -1.978   1.544  0.00  0.00    +0.142 HD
ENDBRANCH   6  20
BRANCH   7  23
ATOM     23  N   UNL     1      -0.111  -0.018   2.444  0.00  0.00    -0.339 N 
ATOM     24  H   UNL     1      -1.059  -0.100   2.254  0.00  0.00    +0.146 HD
BRANCH  23  25
ATOM     25  C   UNL     1       0.435  -0.553   3.694  0.00  0.00    +0.073 C 
ATOM     26  C   UNL     1      -0.529  -1.596   4.266  0.00  0.00    +0.041 C 
ATOM     27  C   UNL     1       0.061  -2.179   5.554  0.00  0.00    +0.113 C 
ATOM     28  N   UNL     1       0.371  -1.075   6.473  0.00  0.00    -0.267 N 
ATOM     29  C   UNL     1       1.216   0.027   5.994  0.00  0.00    +0.113 C 
ATOM     30  C   UNL     1       0.613   0.585   4.701  0.00  0.00    +0.041 C 
ATOM     31  C   UNL     1      -0.111  -1.074   7.732  0.00  0.00    +0.403 C 
ATOM     32  O   UNL     1      -0.809  -1.992   8.116  0.00  0.00    -0.226 OA
BRANCH  31  33
ATOM     33  O   UNL     1       0.181  -0.057   8.564  0.00  0.00    -0.445 OA
BRANCH  33  34
ATOM     34  C   UNL     1      -0.364  -0.121   9.883  0.00  0.00    +0.107 C 
ATOM     35  C   UNL     1       0.143  -1.383  10.584  0.00  0.00    +0.055 C 
ATOM     36  C   UNL     1       0.073   1.113  10.676  0.00  0.00    +0.055 C 
ATOM     37  C   UNL     1      -1.891  -0.161   9.803  0.00  0.00    +0.055 C 
ENDBRANCH  33  34
ENDBRANCH  31  33
ENDBRANCH  23  25
ENDBRANCH   7  23
TORSDOF 7
