REMARK  Name = ZINC39926583
REMARK  6 active torsions:
REMARK  status: ('A' for Active; 'I' for Inactive)
REMARK    1  A    between atoms: C_1  and  O_2
REMARK    2  A    between atoms: O_2  and  C_3
REMARK    3  A    between atoms: C_8  and  C_9
REMARK    4  A    between atoms: C_13  and  S_27
REMARK    5  A    between atoms: N_15  and  N_16
REMARK    6  A    between atoms: C_17  and  C_18
REMARK                            x       y       z     vdW  Elec       q    Type
REMARK                         _______ _______ _______ _____ _____    ______ ____
ROOT
ATOM      1  C   UNL     1       0.066  -2.935  -0.206  0.00  0.00    +0.209 C 
ATOM      2  N   UNL     1      -1.131  -2.444  -0.926  0.00  0.00    -0.229 NA
ATOM      3  N   UNL     1      -1.873  -3.665  -1.278  0.00  0.00    -0.225 NA
ATOM      4  C   UNL     1      -1.673  -4.531  -0.086  0.00  0.00    +0.231 C 
ATOM      5  N   UNL     1      -0.280  -4.264   0.329  0.00  0.00    -0.205 N 
ATOM      6  H   UNL     1      -1.685  -1.841  -0.338  0.00  0.00    +0.143 HD
ATOM      7  H   UNL     1      -2.852  -3.465  -1.419  0.00  0.00    +0.143 HD
ENDROOT
BRANCH   1  13
ATOM      8  C   UNL     1       0.248  -0.630   0.763  0.00  0.00    +0.126 A 
ATOM      9  C   UNL     1       0.560   0.230   1.806  0.00  0.00    +0.046 A 
ATOM     10  C   UNL     1       1.035  -0.278   3.000  0.00  0.00    +0.004 A 
ATOM     11  C   UNL     1       1.200  -1.642   3.155  0.00  0.00    +0.001 A 
ATOM     12  C   UNL     1       0.890  -2.501   2.117  0.00  0.00    +0.010 A 
ATOM     13  C   UNL     1       0.409  -1.998   0.923  0.00  0.00    +0.031 A 
BRANCH   8  15
ATOM     14  C   UNL     1      -0.360   1.286  -0.506  0.00  0.00    +0.277 C 
ATOM     15  O   UNL     1      -0.220  -0.133  -0.412  0.00  0.00    -0.495 OA
ENDBRANCH   8  15
ENDBRANCH   1  13
BRANCH   5  16
ATOM     16  N   UNL     1       0.482  -5.040   1.022  0.00  0.00    -0.188 NA
ATOM     17  C   UNL     1      -0.001  -6.146   1.538  0.00  0.00    +0.136 C 
BRANCH  17  18
ATOM     18  C   UNL     1       0.852  -7.054   2.170  0.00  0.00    +0.000 C 
ATOM     19  C   UNL     1       0.503  -8.270   2.760  0.00  0.00    +0.004 A 
ATOM     20  C   UNL     1      -0.730  -8.939   2.908  0.00  0.00    +0.010 A 
ATOM     21  C   UNL     1      -0.774 -10.139   3.542  0.00  0.00    +0.001 A 
ATOM     22  C   UNL     1       0.378 -10.736   4.057  0.00  0.00    +0.002 A 
ATOM     23  C   UNL     1       1.596 -10.150   3.952  0.00  0.00    +0.026 A 
ATOM     24  C   UNL     1       1.721  -8.895   3.302  0.00  0.00    +0.043 A 
ATOM     25  N   UNL     1       2.772  -8.132   3.073  0.00  0.00    -0.380 N 
ATOM     26  C   UNL     1       2.349  -6.929   2.351  0.00  0.00    +0.150 C 
ATOM     27  H   UNL     1       3.682  -8.337   3.338  0.00  0.00    +0.160 HD
ENDBRANCH  17  18
ENDBRANCH   5  16
BRANCH   4  28
ATOM     28  S   UNL     1      -1.883  -6.278  -0.529  0.00  0.00    -0.138 S 
ATOM     29  H   UNL     1      -3.155  -6.355  -0.959  0.00  0.00    +0.105 HD
ENDBRANCH   4  28
TORSDOF 5
