REMARK  Name = ZINC01373237
REMARK  11 active torsions:
REMARK  status: ('A' for Active; 'I' for Inactive)
REMARK    1  A    between atoms: C_1  and  C_2
REMARK    2  A    between atoms: C_7  and  C_15
REMARK    3  A    between atoms: C_13  and  C_14
REMARK    4  A    between atoms: C_15  and  N_16
REMARK    5  A    between atoms: N_16  and  C_17
REMARK    6  A    between atoms: N_16  and  C_27
REMARK    7  A    between atoms: C_17  and  C_18
REMARK    8  A    between atoms: C_27  and  C_28
REMARK    9  A    between atoms: N_32  and  C_33
REMARK   10  A    between atoms: C_33  and  C_34
REMARK   11  A    between atoms: C_34  and  C_35
REMARK                            x       y       z     vdW  Elec       q    Type
REMARK                         _______ _______ _______ _____ _____    ______ ____
ROOT
ATOM      1  N   UNL     1       1.349  -6.993   1.427  0.00  0.00    -0.287 NA
ENDROOT
BRANCH   1   2
ATOM      2  C   UNL     1      -0.052  -6.574   1.280  0.00  0.00    +0.125 C 
BRANCH   2   9
ATOM      3  C   UNL     1      -0.391   1.179  -0.562  0.00  0.00    +0.044 C 
ATOM      4  C   UNL     1      -0.330  -0.322  -0.445  0.00  0.00    -0.046 A 
ATOM      5  C   UNL     1      -0.321  -1.101  -1.594  0.00  0.00    +0.004 A 
ATOM      6  C   UNL     1      -0.266  -2.464  -1.510  0.00  0.00    +0.010 A 
ATOM      7  C   UNL     1      -0.218  -3.080  -0.255  0.00  0.00    -0.001 A 
ATOM      8  C   UNL     1      -0.158  -4.537  -0.129  0.00  0.00    +0.020 A 
ATOM      9  C   UNL     1      -0.114  -5.078   1.114  0.00  0.00    +0.031 A 
ATOM     10  C   UNL     1      -0.125  -4.244   2.253  0.00  0.00    +0.254 A 
ATOM     11  O   UNL     1      -0.084  -4.751   3.361  0.00  0.00    -0.268 OA
ATOM     12  N   UNL     1      -0.180  -2.905   2.147  0.00  0.00    -0.322 N 
ATOM     13  H   UNL     1      -0.186  -2.362   2.950  0.00  0.00    +0.169 HD
ATOM     14  C   UNL     1      -0.227  -2.293   0.912  0.00  0.00    +0.052 A 
ATOM     15  C   UNL     1      -0.278  -0.907   0.801  0.00  0.00    -0.024 A 
ATOM     16  C   UNL     1      -0.282  -0.049   2.040  0.00  0.00    +0.046 C 
ENDBRANCH   2   9
ENDBRANCH   1   2
BRANCH   1  17
ATOM     17  C   UNL     1       1.851  -6.687   2.773  0.00  0.00    +0.120 C 
BRANCH  17  18
ATOM     18  C   UNL     1       3.344  -6.886   2.810  0.00  0.00    -0.030 A 
ATOM     19  C   UNL     1       3.870  -8.085   3.254  0.00  0.00    +0.009 A 
ATOM     20  C   UNL     1       5.239  -8.272   3.288  0.00  0.00    +0.050 A 
ATOM     21  C   UNL     1       6.088  -7.257   2.878  0.00  0.00    +0.166 A 
ATOM     22  C   UNL     1       5.559  -6.049   2.431  0.00  0.00    +0.167 A 
ATOM     23  C   UNL     1       4.185  -5.871   2.393  0.00  0.00    +0.054 A 
ATOM     24  O   UNL     1       6.588  -5.222   2.088  0.00  0.00    -0.453 OA
ATOM     25  C   UNL     1       7.758  -5.783   2.713  0.00  0.00    +0.466 C 
ATOM     26  O   UNL     1       7.450  -7.186   2.815  0.00  0.00    -0.453 OA
ENDBRANCH  17  18
ENDBRANCH   1  17
BRANCH   1  27
ATOM     27  C   UNL     1       1.506  -8.421   1.118  0.00  0.00    +0.163 C 
BRANCH  27  28
ATOM     28  C   UNL     1       0.576  -9.228   1.987  0.00  0.00    +0.165 A 
ATOM     29  N   UNL     1       0.793  -9.611   3.221  0.00  0.00    -0.112 NA
ATOM     30  N   UNL     1      -0.235 -10.279   3.617  0.00  0.00    -0.023 NA
ATOM     31  N   UNL     1      -1.102 -10.332   2.667  0.00  0.00    -0.044 NA
ATOM     32  N   UNL     1      -0.641  -9.691   1.647  0.00  0.00    -0.228 N 
BRANCH  32  33
ATOM     33  C   UNL     1      -1.314  -9.506   0.359  0.00  0.00    +0.152 C 
BRANCH  33  34
ATOM     34  C   UNL     1      -1.065 -10.728  -0.528  0.00  0.00    +0.058 C 
BRANCH  34  35
ATOM     35  C   UNL     1      -1.758 -10.537  -1.853  0.00  0.00    -0.046 A 
ATOM     36  C   UNL     1      -3.062 -10.964  -2.019  0.00  0.00    +0.004 A 
ATOM     37  C   UNL     1      -3.697 -10.789  -3.234  0.00  0.00    +0.000 A 
ATOM     38  C   UNL     1      -3.028 -10.186  -4.283  0.00  0.00    +0.000 A 
ATOM     39  C   UNL     1      -1.724  -9.758  -4.116  0.00  0.00    +0.000 A 
ATOM     40  C   UNL     1      -1.091  -9.929  -2.900  0.00  0.00    +0.004 A 
ENDBRANCH  34  35
ENDBRANCH  33  34
ENDBRANCH  32  33
ENDBRANCH  27  28
ENDBRANCH   1  27
TORSDOF 9
