REMARK  Name = ZINC39657069
REMARK  6 active torsions:
REMARK  status: ('A' for Active; 'I' for Inactive)
REMARK    1  A    between atoms: C_1  and  C_2
REMARK    2  A    between atoms: C_7  and  C_8
REMARK    3  A    between atoms: C_12  and  C_21
REMARK    4  A    between atoms: N_23  and  C_24
REMARK    5  A    between atoms: C_24  and  C_26
REMARK    6  A    between atoms: C_24  and  C_27
REMARK                            x       y       z     vdW  Elec       q    Type
REMARK                         _______ _______ _______ _____ _____    ______ ____
ROOT
ATOM      1  C   UNL     1       0.117   0.200   2.409  0.00  0.00    +0.247 C 
ATOM      2  O   UNL     1      -0.025   1.405   2.354  0.00  0.00    -0.270 OA
ATOM      3  N   UNL     1       0.321  -0.402   3.598  0.00  0.00    -0.296 N 
ATOM      4  C   UNL     1       0.602  -1.834   3.855  0.00  0.00    +0.121 C 
ATOM      5  C   UNL     1       1.656  -1.828   4.985  0.00  0.00    +0.100 C 
ATOM      6  C   UNL     1       1.461  -0.479   5.697  0.00  0.00    -0.004 C 
ATOM      7  C   UNL     1       0.321   0.221   4.943  0.00  0.00    +0.115 C 
ATOM      8  C   UNL     1       2.735   0.355   5.606  0.00  0.00    -0.010 C 
ATOM      9  C   UNL     1       2.536   1.668   6.369  0.00  0.00    -0.082 C 
ATOM     10  N   UNL     1       2.217   1.376   7.772  0.00  0.00    +0.379 N 
ATOM     11  C   UNL     1       0.942   0.654   7.856  0.00  0.00    -0.082 C 
ATOM     12  C   UNL     1       1.073  -0.701   7.155  0.00  0.00    -0.010 C 
ATOM     13  H   UNL     1       2.950   0.810   8.172  0.00  0.00    -0.086 HD
ATOM     14  H   UNL     1       2.146   2.241   8.286  0.00  0.00    -0.086 HD
ENDROOT
BRANCH   1  21
ATOM     15  C   UNL     1      -2.145   0.458   0.625  0.00  0.00    +0.044 C 
ATOM     16  C   UNL     1      -1.020  -0.492   0.303  0.00  0.00    -0.038 A 
ATOM     17  C   UNL     1      -1.059  -1.243  -0.854  0.00  0.00    +0.007 A 
ATOM     18  C   UNL     1      -0.028  -2.115  -1.152  0.00  0.00    +0.038 A 
ATOM     19  C   UNL     1       1.052  -2.240  -0.292  0.00  0.00    +0.124 A 
ATOM     20  C   UNL     1       1.103  -1.493   0.870  0.00  0.00    +0.051 A 
ATOM     21  C   UNL     1       0.067  -0.608   1.171  0.00  0.00    +0.043 A 
ATOM     22  F   UNL     1       2.055  -3.094  -0.589  0.00  0.00    -0.205 F 
ENDBRANCH   1  21
BRANCH   5  23
ATOM     23  C   UNL     1       1.408  -2.968   5.939  0.00  0.00    +0.219 C 
ATOM     24  O   UNL     1       0.274  -3.325   6.176  0.00  0.00    -0.275 OA
ATOM     25  N   UNL     1       2.447  -3.590   6.530  0.00  0.00    -0.308 N 
ATOM     26  H   UNL     1       3.355  -3.305   6.341  0.00  0.00    +0.149 HD
BRANCH  25  27
ATOM     27  C   UNL     1       2.207  -4.698   7.458  0.00  0.00    +0.100 C 
ATOM     28  C   UNL     1       1.935  -4.142   8.857  0.00  0.00    +0.033 C 
BRANCH  27  29
ATOM     29  C   UNL     1       3.420  -5.591   7.500  0.00  0.00    -0.027 A 
ATOM     30  C   UNL     1       4.686  -5.037   7.494  0.00  0.00    +0.006 A 
ATOM     31  C   UNL     1       5.800  -5.855   7.533  0.00  0.00    +0.015 A 
ATOM     32  C   UNL     1       5.646  -7.229   7.577  0.00  0.00    +0.018 A 
ATOM     33  C   UNL     1       4.379  -7.783   7.583  0.00  0.00    +0.015 A 
ATOM     34  C   UNL     1       3.266  -6.964   7.549  0.00  0.00    +0.006 A 
ATOM     35 BR   UNL     1       7.169  -8.350   7.630  0.00  0.00    -0.050 Br
ENDBRANCH  27  29
ENDBRANCH  25  27
ENDBRANCH   5  23
TORSDOF 4
