REMARK  Name = ZINC50911840
REMARK  1 active torsions:
REMARK  status: ('A' for Active; 'I' for Inactive)
REMARK    1  A    between atoms: N_14  and  C_15
REMARK                            x       y       z     vdW  Elec       q    Type
REMARK                         _______ _______ _______ _____ _____    ______ ____
ROOT
ATOM      1  C   UNL     1       0.066   1.384   0.732  0.00  0.00    +0.000 A 
ATOM      2  C   UNL     1       1.243   2.089   0.558  0.00  0.00    +0.000 A 
ATOM      3  C   UNL     1       2.429   1.411   0.355  0.00  0.00    +0.005 A 
ATOM      4  C   UNL     1       2.442   0.026   0.325  0.00  0.00    -0.025 A 
ATOM      5  C   UNL     1       1.266  -0.677   0.498  0.00  0.00    -0.025 A 
ATOM      6  C   UNL     1       0.078   0.003   0.702  0.00  0.00    +0.005 A 
ATOM      7  C   UNL     1       1.565  -2.153   0.421  0.00  0.00    +0.143 C 
ATOM      8  N   UNL     1       3.005  -2.304   0.188  0.00  0.00    -0.291 N 
ATOM      9  C   UNL     1       3.571  -0.953   0.125  0.00  0.00    +0.143 C 
ATOM     10  C   UNL     1       3.700  -3.497   0.053  0.00  0.00    +0.219 A 
ATOM     11  N   UNL     1       3.178  -4.689   0.103  0.00  0.00    -0.137 NA
ATOM     12  N   UNL     1       4.208  -5.622  -0.077  0.00  0.00    -0.253 N 
ATOM     13  C   UNL     1       5.356  -4.929  -0.233  0.00  0.00    +0.177 A 
ATOM     14  N   UNL     1       5.053  -3.618  -0.161  0.00  0.00    -0.288 N 
ATOM     15  S   UNL     1       6.913  -5.596  -0.485  0.00  0.00    -0.011 S 
ATOM     16  H   UNL     1       4.114  -6.587  -0.086  0.00  0.00    +0.191 HD
ENDROOT
BRANCH  14  17
ATOM     17  C   UNL     1       6.003  -2.510  -0.286  0.00  0.00    +0.092 C 
ATOM     18  C   UNL     1       6.685  -2.575  -1.654  0.00  0.00    +0.025 C 
ATOM     19  C   UNL     1       7.678  -1.418  -1.784  0.00  0.00    +0.002 C 
ATOM     20  C   UNL     1       8.734  -1.526  -0.682  0.00  0.00    +0.000 C 
ATOM     21  C   UNL     1       8.052  -1.461   0.686  0.00  0.00    +0.002 C 
ATOM     22  C   UNL     1       7.059  -2.618   0.816  0.00  0.00    +0.025 C 
ENDBRANCH  14  17
TORSDOF 1
