REMARK  Name = ZINC36643286
REMARK  10 active torsions:
REMARK  status: ('A' for Active; 'I' for Inactive)
REMARK    1  A    between atoms: C_1  and  C_2
REMARK    2  A    between atoms: N_5  and  S_8
REMARK    3  A    between atoms: S_8  and  C_11
REMARK    4  A    between atoms: C_14  and  C_17
REMARK    5  A    between atoms: N_19  and  C_20
REMARK    6  A    between atoms: C_20  and  C_21
REMARK    7  A    between atoms: C_21  and  C_22
REMARK    8  A    between atoms: C_22  and  N_23
REMARK    9  A    between atoms: N_23  and  C_24
REMARK   10  A    between atoms: N_23  and  C_25
REMARK                            x       y       z     vdW  Elec       q    Type
REMARK                         _______ _______ _______ _____ _____    ______ ____
ROOT
ATOM      1  C   UNL     1       0.088  -8.703   0.059  0.00  0.00    +0.252 C 
ATOM      2  O   UNL     1      -0.872  -9.140  -0.545  0.00  0.00    -0.270 OA
ATOM      3  N   UNL     1       1.164  -9.486   0.271  0.00  0.00    -0.246 N 
ATOM      4  C   UNL     1       1.228 -10.745  -0.301  0.00  0.00    +0.168 A 
ATOM      5  N   UNL     1       2.178 -11.645  -0.206  0.00  0.00    -0.224 NA
ATOM      6  C   UNL     1       2.107 -12.844  -0.825  0.00  0.00    +0.080 A 
ATOM      7  C   UNL     1       3.054 -13.894  -0.805  0.00  0.00    +0.032 A 
ATOM      8  C   UNL     1       2.827 -15.056  -1.494  0.00  0.00    +0.040 A 
ATOM      9  C   UNL     1       1.665 -15.247  -2.232  0.00  0.00    +0.125 A 
ATOM     10  C   UNL     1       0.716 -14.239  -2.273  0.00  0.00    +0.055 A 
ATOM     11  C   UNL     1       0.938 -13.072  -1.585  0.00  0.00    +0.043 A 
ATOM     12  S   UNL     1       0.033 -11.561  -1.350  0.00  0.00    -0.052 S 
ATOM     13  F   UNL     1       1.464 -16.402  -2.903  0.00  0.00    -0.205 F 
ENDROOT
BRANCH   1  17
ATOM     14  C   UNL     1       0.051  -4.707   1.497  0.00  0.00    +0.106 A 
ATOM     15  C   UNL     1      -0.372  -4.978   0.208  0.00  0.00    +0.029 A 
ATOM     16  C   UNL     1      -0.362  -6.274  -0.265  0.00  0.00    +0.015 A 
ATOM     17  C   UNL     1       0.075  -7.312   0.559  0.00  0.00    +0.037 A 
ATOM     18  C   UNL     1       0.501  -7.031   1.859  0.00  0.00    +0.015 A 
ATOM     19  C   UNL     1       0.491  -5.730   2.318  0.00  0.00    +0.029 A 
BRANCH  14  20
ATOM     20  S   UNL     1       0.036  -3.049   2.094  0.00  0.00    +0.061 S 
ATOM     21  O   UNL     1      -0.030  -3.128   3.511  0.00  0.00    -0.153 OA
ATOM     22  O   UNL     1      -0.931  -2.349   1.324  0.00  0.00    -0.153 OA
BRANCH  20  27
ATOM     23  C   UNL     1       4.103   0.987   1.856  0.00  0.00    +0.007 C 
ATOM     24  C   UNL     1       3.527  -0.407   1.597  0.00  0.00    -0.012 C 
ATOM     25  C   UNL     1       2.268  -0.287   0.735  0.00  0.00    +0.020 C 
ATOM     26  C   UNL     1       1.714  -1.686   0.449  0.00  0.00    +0.110 C 
ATOM     27  N   UNL     1       1.507  -2.383   1.726  0.00  0.00    -0.177 NA
ATOM     28  C   UNL     1       2.629  -2.477   2.669  0.00  0.00    +0.110 C 
ATOM     29  C   UNL     1       3.173  -1.068   2.930  0.00  0.00    +0.020 C 
ENDBRANCH  20  27
ENDBRANCH  14  20
ENDBRANCH   1  17
BRANCH   3  30
ATOM     30  C   UNL     1       2.266  -9.005   1.107  0.00  0.00    +0.114 C 
BRANCH  30  31
ATOM     31  C   UNL     1       2.117  -9.568   2.522  0.00  0.00    +0.001 C 
BRANCH  31  32
ATOM     32  C   UNL     1       3.188  -8.960   3.429  0.00  0.00    -0.078 C 
BRANCH  32  33
ATOM     33  N   UNL     1       3.045  -9.500   4.787  0.00  0.00    +0.376 N 
ATOM     34  C   UNL     1       4.145  -9.010   5.629  0.00  0.00    -0.097 C 
ATOM     35  C   UNL     1       1.762  -9.064   5.355  0.00  0.00    -0.097 C 
ATOM     36  H   UNL     1       3.071 -10.508   4.753  0.00  0.00    -0.083 HD
ENDBRANCH  32  33
ENDBRANCH  31  32
ENDBRANCH  30  31
ENDBRANCH   3  30
TORSDOF 7
