REMARK  Name = ZINC63303106
REMARK  7 active torsions:
REMARK  status: ('A' for Active; 'I' for Inactive)
REMARK    1  A    between atoms: C_1  and  O_2
REMARK    2  A    between atoms: O_2  and  C_3
REMARK    3  A    between atoms: C_8  and  C_9
REMARK    4  A    between atoms: C_9  and  N_10
REMARK    5  A    between atoms: C_11  and  C_13
REMARK    6  A    between atoms: C_16  and  C_20
REMARK    7  A    between atoms: C_20  and  C_21
REMARK                            x       y       z     vdW  Elec       q    Type
REMARK                         _______ _______ _______ _____ _____    ______ ____
ROOT
ATOM      1  C   UNL     1       1.517  -3.610  -3.444  0.00  0.00    +0.297 C 
ATOM      2  N   UNL     1       1.566  -2.283  -4.097  0.00  0.00    -0.265 NA
ATOM      3  C   UNL     1       1.635  -2.597  -5.550  0.00  0.00    +0.154 C 
ATOM      4  N   UNL     1       0.757  -3.793  -5.655  0.00  0.00    -0.181 NA
ATOM      5  O   UNL     1       1.018  -4.546  -4.412  0.00  0.00    -0.270 OA
ATOM      6  H   UNL     1       0.741  -1.743  -3.883  0.00  0.00    +0.126 HD
ATOM      7  H   UNL     1      -0.213  -3.525  -5.720  0.00  0.00    +0.156 HD
ENDROOT
BRANCH   1   9
ATOM      8  N   UNL     1       0.950  -2.876  -1.151  0.00  0.00    -0.308 N 
ATOM      9  C   UNL     1       0.593  -3.562  -2.255  0.00  0.00    +0.259 C 
ATOM     10  O   UNL     1      -0.472  -4.141  -2.290  0.00  0.00    -0.271 OA
ATOM     11  H   UNL     1       1.802  -2.413  -1.123  0.00  0.00    +0.149 HD
BRANCH   8  12
ATOM     12  C   UNL     1       0.052  -2.828   0.005  0.00  0.00    +0.143 C 
BRANCH  12  18
ATOM     13  C   UNL     1       0.626  -0.618   1.042  0.00  0.00    +0.125 A 
ATOM     14  C   UNL     1       1.202   0.139   2.051  0.00  0.00    +0.046 A 
ATOM     15  C   UNL     1       1.835  -0.488   3.107  0.00  0.00    +0.004 A 
ATOM     16  C   UNL     1       1.895  -1.869   3.158  0.00  0.00    +0.001 A 
ATOM     17  C   UNL     1       1.321  -2.625   2.153  0.00  0.00    +0.009 A 
ATOM     18  C   UNL     1       0.682  -2.003   1.097  0.00  0.00    +0.011 A 
BRANCH  13  20
ATOM     19  C   UNL     1      -0.017   1.425   0.010  0.00  0.00    +0.277 C 
ATOM     20  O   UNL     1       0.002  -0.004   0.002  0.00  0.00    -0.495 OA
ENDBRANCH  13  20
ENDBRANCH  12  18
ENDBRANCH   8  12
ENDBRANCH   1   9
BRANCH   3  21
ATOM     21  C   UNL     1       1.086  -1.438  -6.384  0.00  0.00    +0.070 C 
BRANCH  21  22
ATOM     22  C   UNL     1       1.170  -1.789  -7.847  0.00  0.00    -0.039 C 
ATOM     23  C   UNL     1       0.191  -2.322  -8.613  0.00  0.00    -0.001 A 
ATOM     24  C   UNL     1      -1.191  -2.721  -8.324  0.00  0.00    +0.010 A 
ATOM     25  C   UNL     1      -1.946  -3.239  -9.320  0.00  0.00    +0.001 A 
ATOM     26  C   UNL     1      -1.443  -3.403 -10.618  0.00  0.00    +0.002 A 
ATOM     27  C   UNL     1      -0.183  -3.060 -10.960  0.00  0.00    +0.026 A 
ATOM     28  C   UNL     1       0.699  -2.506  -9.992  0.00  0.00    +0.043 A 
ATOM     29  N   UNL     1       1.943  -2.101 -10.075  0.00  0.00    -0.380 N 
ATOM     30  C   UNL     1       2.364  -1.610  -8.758  0.00  0.00    +0.144 C 
ATOM     31  H   UNL     1       2.493  -2.120 -10.874  0.00  0.00    +0.160 HD
ENDBRANCH  21  22
ENDBRANCH   3  21
TORSDOF 6
