REMARK  Name = ZINC03770058
REMARK  9 active torsions:
REMARK  status: ('A' for Active; 'I' for Inactive)
REMARK    1  A    between atoms: C_1  and  N_2
REMARK    2  A    between atoms: C_3  and  C_5
REMARK    3  A    between atoms: C_10  and  C_13
REMARK    4  A    between atoms: C_13  and  C_14
REMARK    5  A    between atoms: C_14  and  O_16
REMARK    6  A    between atoms: O_16  and  C_17
REMARK    7  A    between atoms: C_18  and  N_31
REMARK    8  A    between atoms: C_19  and  C_29
REMARK    9  A    between atoms: C_20  and  C_22
REMARK                            x       y       z     vdW  Elec       q    Type
REMARK                         _______ _______ _______ _____ _____    ______ ____
ROOT
ATOM      1  C   UNL     1      -1.026  -0.892  -0.008  0.00  0.00    +0.055 C 
ATOM      2  C   UNL     1      -0.001  -0.010  -0.126  0.00  0.00    +0.086 C 
ATOM      3  N   UNL     1       1.335  -0.364  -0.139  0.00  0.00    -0.220 N 
ATOM      4  C   UNL     1       2.270   0.603  -0.263  0.00  0.00    +0.239 C 
ATOM      5  O   UNL     1       3.452   0.337  -0.279  0.00  0.00    -0.274 OA
ATOM      6  C   UNL     1       1.785   2.029  -0.380  0.00  0.00    +0.150 C 
ATOM      7  S   UNL     1      -0.029   1.766  -0.293  0.00  0.00    -0.096 S 
ATOM      8  C   UNL     1       1.677  -1.720  -0.023  0.00  0.00    +0.110 C 
ATOM      9  C   UNL     1       0.774  -2.716   0.102  0.00  0.00    +0.077 C 
ATOM     10  C   UNL     1      -0.700  -2.366   0.120  0.00  0.00    +0.100 C 
ENDROOT
BRANCH  10  11
ATOM     11  C   UNL     1      -1.288  -2.869   1.412  0.00  0.00    -0.034 A 
ATOM     12  C   UNL     1      -0.797  -2.410   2.620  0.00  0.00    +0.007 A 
ATOM     13  C   UNL     1      -1.340  -2.867   3.806  0.00  0.00    +0.038 A 
ATOM     14  C   UNL     1      -2.368  -3.794   3.785  0.00  0.00    +0.123 A 
ATOM     15  C   UNL     1      -2.855  -4.258   2.575  0.00  0.00    +0.038 A 
ATOM     16  C   UNL     1      -2.315  -3.795   1.390  0.00  0.00    +0.007 A 
ATOM     17  F   UNL     1      -2.895  -4.245   4.944  0.00  0.00    -0.205 F 
ENDBRANCH  10  11
BRANCH   1  20
ATOM     18  C   UNL     1      -4.755  -0.875   0.120  0.00  0.00    +0.128 C 
ATOM     19  N   UNL     1      -3.365  -1.337   0.115  0.00  0.00    -0.315 N 
ATOM     20  C   UNL     1      -2.359  -0.448  -0.003  0.00  0.00    +0.243 C 
ATOM     21  O   UNL     1      -2.606   0.741  -0.106  0.00  0.00    -0.270 OA
ATOM     22  H   UNL     1      -3.169  -2.284   0.197  0.00  0.00    +0.149 HD
ENDBRANCH   1  20
BRANCH   8  23
ATOM     23  N   UNL     1       3.009  -2.054  -0.037  0.00  0.00    -0.345 N 
ATOM     24  H   UNL     1       3.668  -1.435   0.315  0.00  0.00    +0.144 HD
ATOM     25  H   UNL     1       3.291  -2.909  -0.400  0.00  0.00    +0.144 HD
ENDBRANCH   8  23
BRANCH   9  26
ATOM     26  C   UNL     1       1.202  -4.078   0.215  0.00  0.00    +0.099 C 
ATOM     27  N   UNL     1       1.542  -5.158   0.304  0.00  0.00    -0.191 NA
ENDBRANCH   9  26
BRANCH   6  28
ATOM     28  C   UNL     1       2.192   2.645  -1.720  0.00  0.00    +0.144 C 
BRANCH  28  29
ATOM     29  C   UNL     1       1.633   4.041  -1.822  0.00  0.00    +0.308 C 
ATOM     30  O   UNL     1       0.977   4.496  -0.916  0.00  0.00    -0.251 OA
BRANCH  29  31
ATOM     31  O   UNL     1       1.865   4.778  -2.920  0.00  0.00    -0.468 OA
ATOM     32  C   UNL     1       1.296   6.113  -2.949  0.00  0.00    +0.280 C 
ENDBRANCH  29  31
ENDBRANCH  28  29
ENDBRANCH   6  28
TORSDOF 7
