REMARK  Name = ZINC01376001
REMARK  16 active torsions:
REMARK  status: ('A' for Active; 'I' for Inactive)
REMARK    1  A    between atoms: C_1  and  C_2
REMARK    2  A    between atoms: C_2  and  C_3
REMARK    3  A    between atoms: C_3  and  C_5
REMARK    4  A    between atoms: C_3  and  N_16
REMARK    5  A    between atoms: N_9  and  C_10
REMARK    6  A    between atoms: C_10  and  C_11
REMARK    7  A    between atoms: N_16  and  C_17
REMARK    8  A    between atoms: N_16  and  C_29
REMARK    9  A    between atoms: C_17  and  C_18
REMARK   10  A    between atoms: C_18  and  C_19
REMARK   11  A    between atoms: C_22  and  O_27
REMARK   12  A    between atoms: C_23  and  O_25
REMARK   13  A    between atoms: O_25  and  C_26
REMARK   14  A    between atoms: O_27  and  C_28
REMARK   15  A    between atoms: C_29  and  C_30
REMARK   16  A    between atoms: C_36  and  C_42
REMARK                            x       y       z     vdW  Elec       q    Type
REMARK                         _______ _______ _______ _____ _____    ______ ____
ROOT
ATOM      1  N   UNL     1       3.086  -0.736   1.049  0.00  0.00    +0.389 N 
ATOM      2  H   UNL     1       3.172  -1.242   0.180  0.00  0.00    -0.080 HD
ENDROOT
BRANCH   1   3
ATOM      3  C   UNL     1       1.816   0.001   1.064  0.00  0.00    +0.003 C 
BRANCH   3   4
ATOM      4  C   UNL     1       1.748   0.861   2.299  0.00  0.00    +0.139 A 
ATOM      5  N   UNL     1       2.239   0.575   3.481  0.00  0.00    -0.115 NA
ATOM      6  N   UNL     1       1.979   1.560   4.269  0.00  0.00    -0.023 NA
ATOM      7  N   UNL     1       1.335   2.468   3.622  0.00  0.00    -0.044 NA
ATOM      8  N   UNL     1       1.178   2.076   2.402  0.00  0.00    -0.223 N 
BRANCH   8   9
ATOM      9  C   UNL     1       0.503   2.814   1.332  0.00  0.00    +0.221 C 
BRANCH   9  10
ATOM     10  C   UNL     1      -0.982   2.566   1.410  0.00  0.00    +0.126 A 
ATOM     11  C   UNL     1      -1.866   3.300   2.108  0.00  0.00    +0.046 A 
ATOM     12  C   UNL     1      -3.137   2.717   1.901  0.00  0.00    +0.041 A 
ATOM     13  C   UNL     1      -2.954   1.661   1.089  0.00  0.00    +0.195 A 
ATOM     14  O   UNL     1      -1.647   1.578   0.790  0.00  0.00    -0.466 OA
ENDBRANCH   9  10
ENDBRANCH   8   9
ENDBRANCH   3   4
BRANCH   3  16
ATOM     15  C   UNL     1       0.681  -1.821  -0.215  0.00  0.00    +0.002 C 
ATOM     16  C   UNL     1       0.651  -0.992   1.070  0.00  0.00    -0.011 C 
ENDBRANCH   3  16
ENDBRANCH   1   3
BRANCH   1  17
ATOM     17  C   UNL     1       4.203   0.210   1.177  0.00  0.00    -0.073 C 
BRANCH  17  18
ATOM     18  C   UNL     1       4.269   1.091  -0.072  0.00  0.00    +0.017 C 
BRANCH  18  19
ATOM     19  C   UNL     1       5.489   1.974  -0.000  0.00  0.00    -0.045 A 
ATOM     20  C   UNL     1       5.406   3.217   0.598  0.00  0.00    +0.007 A 
ATOM     21  C   UNL     1       6.521   4.031   0.667  0.00  0.00    +0.049 A 
ATOM     22  C   UNL     1       7.727   3.600   0.136  0.00  0.00    +0.161 A 
ATOM     23  C   UNL     1       7.810   2.348  -0.466  0.00  0.00    +0.162 A 
ATOM     24  C   UNL     1       6.689   1.535  -0.527  0.00  0.00    +0.053 A 
BRANCH  23  25
ATOM     25  O   UNL     1       8.991   1.920  -0.988  0.00  0.00    -0.491 OA
ATOM     26  C   UNL     1       9.003   0.624  -1.590  0.00  0.00    +0.277 C 
ENDBRANCH  23  25
BRANCH  22  27
ATOM     27  O   UNL     1       8.825   4.399   0.202  0.00  0.00    -0.491 OA
ATOM     28  C   UNL     1       8.665   5.670   0.834  0.00  0.00    +0.277 C 
ENDBRANCH  22  27
ENDBRANCH  18  19
ENDBRANCH  17  18
ENDBRANCH   1  17
BRANCH   1  29
ATOM     29  C   UNL     1       3.116  -1.683   2.172  0.00  0.00    -0.037 C 
BRANCH  29  30
ATOM     30  C   UNL     1       2.848  -3.075   1.663  0.00  0.00    +0.001 A 
ATOM     31  C   UNL     1       3.727  -3.667   0.817  0.00  0.00    +0.017 A 
ATOM     32  C   UNL     1       3.437  -5.020   0.340  0.00  0.00    -0.001 A 
ATOM     33  C   UNL     1       4.307  -5.682  -0.533  0.00  0.00    +0.010 A 
ATOM     34  C   UNL     1       4.007  -6.945  -0.959  0.00  0.00    +0.001 A 
ATOM     35  C   UNL     1       2.847  -7.578  -0.533  0.00  0.00    +0.005 A 
ATOM     36  C   UNL     1       1.976  -6.945   0.326  0.00  0.00    -0.026 A 
ATOM     37  C   UNL     1       2.260  -5.659   0.774  0.00  0.00    +0.052 A 
ATOM     38  N   UNL     1       1.406  -5.003   1.635  0.00  0.00    -0.322 N 
ATOM     39  H   UNL     1       0.596  -5.444   1.933  0.00  0.00    +0.169 HD
ATOM     40  C   UNL     1       1.684  -3.761   2.072  0.00  0.00    +0.251 A 
ATOM     41  O   UNL     1       0.909  -3.213   2.837  0.00  0.00    -0.268 OA
ATOM     42  C   UNL     1       0.719  -7.643   0.779  0.00  0.00    +0.046 C 
ENDBRANCH  29  30
ENDBRANCH   1  29
TORSDOF 12
