REMARK  Name = ZINC04646694
REMARK  5 active torsions:
REMARK  status: ('A' for Active; 'I' for Inactive)
REMARK    1  A    between atoms: C_4  and  C_7
REMARK    2  A    between atoms: C_13  and  C_15
REMARK    3  A    between atoms: N_17  and  N_18
REMARK    4  A    between atoms: C_19  and  C_20
REMARK    5  A    between atoms: C_25  and  O_26
REMARK                            x       y       z     vdW  Elec       q    Type
REMARK                         _______ _______ _______ _____ _____    ______ ____
ROOT
ATOM      1  C   UNL     1       5.495  -2.760  -1.115  0.00  0.00    +0.245 C 
ATOM      2  O   UNL     1       6.234  -1.901  -0.683  0.00  0.00    -0.273 OA
ATOM      3  N   UNL     1       5.775  -3.365  -2.287  0.00  0.00    -0.206 N 
ATOM      4  H   UNL     1       5.184  -4.051  -2.632  0.00  0.00    +0.177 HD
ENDROOT
BRANCH   1  10
ATOM      5  C   UNL     1       4.154  -2.324   0.960  0.00  0.00    +0.057 C 
ATOM      6  C   UNL     1       4.840  -3.256   1.983  0.00  0.00    +0.113 C 
ATOM      7  N   UNL     1       4.687  -4.612   1.442  0.00  0.00    -0.314 N 
ATOM      8  C   UNL     1       4.368  -4.583   0.137  0.00  0.00    +0.226 C 
ATOM      9  O   UNL     1       4.190  -5.562  -0.557  0.00  0.00    -0.275 OA
ATOM     10  C   UNL     1       4.261  -3.151  -0.342  0.00  0.00    +0.171 C 
ATOM     11  H   UNL     1       4.802  -5.424   1.960  0.00  0.00    +0.149 HD
BRANCH   5  15
ATOM     12  C   UNL     1       0.069  -1.644   2.005  0.00  0.00    +0.000 A 
ATOM     13  C   UNL     1       0.924  -0.573   1.827  0.00  0.00    +0.000 A 
ATOM     14  C   UNL     1       2.246  -0.793   1.489  0.00  0.00    +0.004 A 
ATOM     15  C   UNL     1       2.713  -2.084   1.329  0.00  0.00    -0.042 A 
ATOM     16  C   UNL     1       1.858  -3.155   1.508  0.00  0.00    +0.004 A 
ATOM     17  C   UNL     1       0.535  -2.935   1.845  0.00  0.00    +0.000 A 
ENDBRANCH   5  15
ENDBRANCH   1  10
BRANCH   3  18
ATOM     18  N   UNL     1       6.922  -3.001  -3.005  0.00  0.00    -0.188 NA
ATOM     19  C   UNL     1       7.137  -3.504  -4.182  0.00  0.00    +0.142 C 
BRANCH  19  20
ATOM     20  C   UNL     1       6.068  -4.250  -4.871  0.00  0.00    +0.039 A 
ATOM     21  C   UNL     1       4.728  -3.990  -4.576  0.00  0.00    +0.033 A 
ATOM     22  C   UNL     1       3.732  -4.691  -5.224  0.00  0.00    +0.043 A 
ATOM     23  C   UNL     1       4.055  -5.653  -6.167  0.00  0.00    +0.043 A 
ATOM     24  C   UNL     1       5.379  -5.919  -6.468  0.00  0.00    +0.084 A 
ATOM     25  C   UNL     1       6.391  -5.219  -5.830  0.00  0.00    +0.144 A 
ATOM     26 CL   UNL     1       5.772  -7.127  -7.651  0.00  0.00    -0.080 Cl
ATOM     27 CL   UNL     1       2.066  -4.367  -4.856  0.00  0.00    -0.083 Cl
BRANCH  25  28
ATOM     28  O   UNL     1       7.691  -5.475  -6.130  0.00  0.00    -0.505 OA
ATOM     29  H   UNL     1       8.113  -6.112  -5.536  0.00  0.00    +0.292 HD
ENDBRANCH  25  28
ENDBRANCH  19  20
ENDBRANCH   3  18
TORSDOF 5
