REMARK  Name = ZINC15357157
REMARK  5 active torsions:
REMARK  status: ('A' for Active; 'I' for Inactive)
REMARK    1  A    between atoms: C_4  and  C_7
REMARK    2  A    between atoms: N_8  and  S_9
REMARK    3  A    between atoms: S_9  and  C_12
REMARK    4  A    between atoms: N_18  and  C_19
REMARK    5  A    between atoms: C_22  and  O_26
REMARK                            x       y       z     vdW  Elec       q    Type
REMARK                         _______ _______ _______ _____ _____    ______ ____
ROOT
ATOM      1  C   UNL     1       3.717  -0.773  -0.100  0.00  0.00    +0.152 C 
ATOM      2  N   UNL     1       4.875  -0.176  -0.067  0.00  0.00    -0.113 NA
ATOM      3  N   UNL     1       3.647  -2.146   0.002  0.00  0.00    -0.298 N 
ATOM      4  H   UNL     1       2.794  -2.597  -0.103  0.00  0.00    +0.154 HD
ENDROOT
BRANCH   3   5
ATOM      5  C   UNL     1       4.805  -2.889   0.258  0.00  0.00    +0.035 A 
ATOM      6  C   UNL     1       5.801  -2.365   1.071  0.00  0.00    +0.047 A 
ATOM      7  C   UNL     1       6.945  -3.100   1.323  0.00  0.00    +0.085 A 
ATOM      8  C   UNL     1       7.097  -4.361   0.764  0.00  0.00    +0.153 A 
ATOM      9  C   UNL     1       6.102  -4.885  -0.049  0.00  0.00    +0.085 A 
ATOM     10  C   UNL     1       4.956  -4.153  -0.297  0.00  0.00    +0.047 A 
ATOM     11 CL   UNL     1       6.293  -6.462  -0.748  0.00  0.00    -0.080 Cl
ATOM     12 CL   UNL     1       8.190  -2.445   2.340  0.00  0.00    -0.080 Cl
BRANCH   8  13
ATOM     13  O   UNL     1       8.222  -5.083   1.013  0.00  0.00    -0.504 OA
ATOM     14  H   UNL     1       8.160  -5.653   1.792  0.00  0.00    +0.292 HD
ENDBRANCH   8  13
ENDBRANCH   3   5
BRANCH   1  18
ATOM     15  C   UNL     1       0.159   1.511  -0.523  0.00  0.00    +0.000 A 
ATOM     16  C   UNL     1       1.126   1.554  -1.511  0.00  0.00    +0.001 A 
ATOM     17  C   UNL     1       2.284   0.814  -1.379  0.00  0.00    +0.011 A 
ATOM     18  C   UNL     1       2.478   0.023  -0.247  0.00  0.00    +0.017 A 
ATOM     19  C   UNL     1       1.499  -0.015   0.746  0.00  0.00    +0.011 A 
ATOM     20  C   UNL     1       0.345   0.729   0.603  0.00  0.00    +0.001 A 
ENDBRANCH   1  18
BRANCH   2  21
ATOM     21  S   UNL     1       4.953   1.478  -0.021  0.00  0.00    +0.100 S 
ATOM     22  O   UNL     1       4.432   1.943  -1.259  0.00  0.00    -0.146 OA
ATOM     23  O   UNL     1       4.411   1.875   1.231  0.00  0.00    -0.146 OA
BRANCH  21  24
ATOM     24  C   UNL     1       6.659   1.918   0.005  0.00  0.00    +0.113 A 
ATOM     25  C   UNL     1       7.319   2.053   1.212  0.00  0.00    +0.029 A 
ATOM     26  C   UNL     1       8.657   2.399   1.232  0.00  0.00    +0.002 A 
ATOM     27  C   UNL     1       9.335   2.609   0.046  0.00  0.00    +0.000 A 
ATOM     28  C   UNL     1       8.675   2.473  -1.161  0.00  0.00    +0.002 A 
ATOM     29  C   UNL     1       7.338   2.123  -1.182  0.00  0.00    +0.029 A 
ENDBRANCH  21  24
ENDBRANCH   2  21
TORSDOF 5
