REMARK  Name = ZINC09000113
REMARK  9 active torsions:
REMARK  status: ('A' for Active; 'I' for Inactive)
REMARK    1  A    between atoms: C_1  and  C_2
REMARK    2  A    between atoms: N_7  and  S_9
REMARK    3  A    between atoms: S_9  and  C_12
REMARK    4  A    between atoms: C_15  and  C_18
REMARK    5  A    between atoms: C_18  and  N_20
REMARK    6  A    between atoms: N_22  and  C_34
REMARK    7  A    between atoms: C_26  and  N_30
REMARK    8  A    between atoms: C_31  and  C_33
REMARK    9  A    between atoms: C_34  and  C_35
REMARK                            x       y       z     vdW  Elec       q    Type
REMARK                         _______ _______ _______ _____ _____    ______ ____
ROOT
ATOM      1  C   UNL     1      -2.961   3.109   5.781  0.00  0.00    +0.269 C 
ATOM      2  O   UNL     1      -2.592   4.115   6.362  0.00  0.00    -0.268 OA
ENDROOT
BRANCH   1   3
ATOM      3  N   UNL     1      -3.702   2.201   6.422  0.00  0.00    -0.152 NA
ATOM      4  C   UNL     1      -4.038   2.395   7.694  0.00  0.00    +0.167 A 
ATOM      5  N   UNL     1      -4.779   1.591   8.502  0.00  0.00    -0.317 N 
ATOM      6  C   UNL     1      -5.026   1.963   9.812  0.00  0.00    +0.058 A 
ATOM      7  C   UNL     1      -5.762   1.272  10.788  0.00  0.00    +0.029 A 
ATOM      8  C   UNL     1      -5.911   1.786  12.053  0.00  0.00    +0.025 A 
ATOM      9  C   UNL     1      -5.341   3.005  12.406  0.00  0.00    +0.035 A 
ATOM     10  C   UNL     1      -4.609   3.708  11.457  0.00  0.00    +0.040 A 
ATOM     11  C   UNL     1      -4.462   3.189  10.193  0.00  0.00    +0.041 A 
ATOM     12  S   UNL     1      -3.630   3.730   8.722  0.00  0.00    -0.052 S 
BRANCH   9  13
ATOM     13  N   UNL     1      -5.504   3.517  13.699  0.00  0.00    -0.286 N 
ATOM     14  C   UNL     1      -6.659   3.314  14.364  0.00  0.00    +0.214 C 
ATOM     15  O   UNL     1      -7.524   2.617  13.877  0.00  0.00    -0.276 OA
ATOM     16  C   UNL     1      -6.874   3.952  15.712  0.00  0.00    +0.109 C 
ATOM     17  H   UNL     1      -4.785   4.017  14.117  0.00  0.00    +0.155 HD
ENDBRANCH   9  13
BRANCH   5  18
ATOM     18  C   UNL     1      -5.316   0.329   7.986  0.00  0.00    +0.151 C 
BRANCH  18  19
ATOM     19  C   UNL     1      -5.577   0.462   6.507  0.00  0.00    -0.013 C 
ATOM     20  C   UNL     1      -5.040  -0.389   5.668  0.00  0.00    +0.005 C 
ENDBRANCH  18  19
ENDBRANCH   5  18
ENDBRANCH   1   3
BRANCH   1  24
ATOM     21  C   UNL     1      -1.886   2.489   1.716  0.00  0.00    +0.106 A 
ATOM     22  C   UNL     1      -2.659   1.549   2.375  0.00  0.00    +0.029 A 
ATOM     23  C   UNL     1      -3.006   1.743   3.697  0.00  0.00    +0.015 A 
ATOM     24  C   UNL     1      -2.587   2.893   4.364  0.00  0.00    +0.039 A 
ATOM     25  C   UNL     1      -1.813   3.839   3.692  0.00  0.00    +0.015 A 
ATOM     26  C   UNL     1      -1.467   3.632   2.372  0.00  0.00    +0.029 A 
BRANCH  21  27
ATOM     27  S   UNL     1      -1.440   2.231   0.031  0.00  0.00    +0.061 S 
ATOM     28  O   UNL     1      -1.180   3.514  -0.521  0.00  0.00    -0.153 OA
ATOM     29  O   UNL     1      -2.411   1.350  -0.516  0.00  0.00    -0.153 OA
BRANCH  27  35
ATOM     30  C   UNL     1       3.523   2.287   1.098  0.00  0.00    +0.009 C 
ATOM     31  C   UNL     1       2.140   1.638   1.173  0.00  0.00    +0.002 C 
ATOM     32  C   UNL     1       2.284   0.117   1.076  0.00  0.00    +0.006 C 
ATOM     33  C   UNL     1       0.904  -0.535   1.185  0.00  0.00    +0.017 C 
ATOM     34  C   UNL     1       0.024  -0.057   0.025  0.00  0.00    +0.109 C 
ATOM     35  N   UNL     1      -0.001   1.412   0.025  0.00  0.00    -0.176 NA
ATOM     36  C   UNL     1       1.275   2.141   0.014  0.00  0.00    +0.112 C 
ENDBRANCH  27  35
ENDBRANCH  21  27
ENDBRANCH   1  24
TORSDOF 7
