REMARK  Name = ZINC59489407
REMARK  6 active torsions:
REMARK  status: ('A' for Active; 'I' for Inactive)
REMARK    1  A    between atoms: C_1  and  C_2
REMARK    2  A    between atoms: C_2  and  C_22
REMARK    3  A    between atoms: N_3  and  N_4
REMARK    4  A    between atoms: C_5  and  S_7
REMARK    5  A    between atoms: S_7  and  C_8
REMARK    6  A    between atoms: N_13  and  C_16
REMARK                            x       y       z     vdW  Elec       q    Type
REMARK                         _______ _______ _______ _____ _____    ______ ____
ROOT
ATOM      1  N   UNL     1      -0.326   0.906   2.603  0.00  0.00    -0.217 N 
ATOM      2  C   UNL     1      -0.244  -0.001   3.636  0.00  0.00    +0.146 C 
ATOM      3  N   UNL     1      -0.301  -1.280   3.387  0.00  0.00    -0.380 N 
ATOM      4  H   UNL     1      -0.283   1.857   2.788  0.00  0.00    +0.176 HD
ATOM      5  H   UNL     1      -0.243  -1.919   4.114  0.00  0.00    +0.158 HD
ATOM      6  H   UNL     1      -0.401  -1.593   2.474  0.00  0.00    +0.158 HD
ENDROOT
BRANCH   1   9
ATOM      7  C   UNL     1      -0.482   2.787   0.598  0.00  0.00    +0.068 C 
ATOM      8  C   UNL     1      -0.548   1.310   0.310  0.00  0.00    +0.063 C 
ATOM      9  N   UNL     1      -0.470   0.455   1.284  0.00  0.00    -0.185 NA
BRANCH   8  10
ATOM     10  C   UNL     1      -0.700   0.835  -1.077  0.00  0.00    -0.002 A 
ATOM     11  C   UNL     1      -0.777   1.766  -2.129  0.00  0.00    +0.010 A 
ATOM     12  C   UNL     1      -0.917   1.353  -3.414  0.00  0.00    +0.009 A 
ATOM     13  C   UNL     1      -0.987  -0.021  -3.709  0.00  0.00    -0.018 A 
ATOM     14  C   UNL     1      -1.132  -0.472  -5.032  0.00  0.00    +0.008 A 
ATOM     15  C   UNL     1      -1.196  -1.807  -5.287  0.00  0.00    +0.001 A 
ATOM     16  C   UNL     1      -1.121  -2.740  -4.254  0.00  0.00    +0.001 A 
ATOM     17  C   UNL     1      -0.981  -2.342  -2.960  0.00  0.00    +0.008 A 
ATOM     18  C   UNL     1      -0.910  -0.970  -2.658  0.00  0.00    -0.017 A 
ATOM     19  C   UNL     1      -0.760  -0.525  -1.336  0.00  0.00    +0.018 A 
ENDBRANCH   8  10
ENDBRANCH   1   9
BRANCH   2  20
ATOM     20  S   UNL     1      -0.062   0.567   5.294  0.00  0.00    -0.078 S 
BRANCH  20  21
ATOM     21  C   UNL     1      -0.000  -0.958   6.275  0.00  0.00    +0.149 C 
ATOM     22  C   UNL     1       0.231  -0.635   7.765  0.00  0.00    +0.120 C 
ATOM     23  C   UNL     1      -1.008  -1.180   8.443  0.00  0.00    +0.228 C 
ATOM     24  O   UNL     1      -1.235  -1.134   9.632  0.00  0.00    -0.275 OA
ATOM     25  N   UNL     1      -1.813  -1.721   7.519  0.00  0.00    -0.209 N 
ATOM     26  C   UNL     1      -1.344  -1.653   6.263  0.00  0.00    +0.240 C 
ATOM     27  O   UNL     1      -1.906  -2.079   5.277  0.00  0.00    -0.274 OA
BRANCH  25  28
ATOM     28  C   UNL     1      -3.044  -2.311   7.838  0.00  0.00    +0.044 A 
ATOM     29  C   UNL     1      -3.219  -3.679   7.686  0.00  0.00    +0.024 A 
ATOM     30  C   UNL     1      -4.433  -4.258   8.001  0.00  0.00    +0.002 A 
ATOM     31  C   UNL     1      -5.474  -3.475   8.467  0.00  0.00    +0.000 A 
ATOM     32  C   UNL     1      -5.302  -2.111   8.619  0.00  0.00    +0.002 A 
ATOM     33  C   UNL     1      -4.088  -1.528   8.311  0.00  0.00    +0.024 A 
ENDBRANCH  25  28
ENDBRANCH  20  21
ENDBRANCH   2  20
TORSDOF 5
