REMARK  Name = ZINC37371423
REMARK  3 active torsions:
REMARK  status: ('A' for Active; 'I' for Inactive)
REMARK    1  A    between atoms: C_5  and  C_7
REMARK    2  A    between atoms: C_7  and  C_9
REMARK    3  A    between atoms: C_7  and  N_20
REMARK                            x       y       z     vdW  Elec       q    Type
REMARK                         _______ _______ _______ _____ _____    ______ ____
ROOT
ATOM      1  C   UNL     1       1.229  -2.186  -0.022  0.00  0.00    -0.012 C 
ENDROOT
BRANCH   1   2
ATOM      2  C   UNL     1       1.373  -2.695   1.389  0.00  0.00    -0.056 A 
ATOM      3  C   UNL     1       0.267  -2.753   2.217  0.00  0.00    +0.006 A 
ATOM      4  C   UNL     1       0.391  -3.220   3.513  0.00  0.00    +0.048 A 
ATOM      5  C   UNL     1       1.627  -3.630   3.984  0.00  0.00    +0.142 A 
ATOM      6  C   UNL     1       2.741  -3.569   3.149  0.00  0.00    +0.076 A 
ATOM      7  C   UNL     1       2.610  -3.107   1.850  0.00  0.00    +0.029 A 
ATOM      8  N   UNL     1       3.988  -3.985   3.639  0.00  0.00    -0.280 N 
ATOM      9  C   UNL     1       4.034  -4.718   4.773  0.00  0.00    +0.255 C 
ATOM     10  O   UNL     1       5.103  -5.062   5.232  0.00  0.00    -0.272 OA
ATOM     11  C   UNL     1       2.753  -5.106   5.465  0.00  0.00    +0.325 C 
ATOM     12  O   UNL     1       1.766  -4.092   5.255  0.00  0.00    -0.481 OA
ATOM     13  H   UNL     1       4.804  -3.750   3.171  0.00  0.00    +0.155 HD
ENDBRANCH   1   2
BRANCH   1  18
ATOM     14  C   UNL     1      -0.017   1.378   0.010  0.00  0.00    +0.000 A 
ATOM     15  C   UNL     1       1.171   2.086   0.002  0.00  0.00    +0.001 A 
ATOM     16  C   UNL     1       2.377   1.412  -0.013  0.00  0.00    +0.015 A 
ATOM     17  C   UNL     1       2.397   0.029  -0.021  0.00  0.00    +0.020 A 
ATOM     18  C   UNL     1       1.208  -0.679  -0.013  0.00  0.00    -0.044 A 
ATOM     19  C   UNL     1       0.002  -0.004   0.002  0.00  0.00    +0.003 A 
ATOM     20 BR   UNL     1       4.047  -0.894  -0.042  0.00  0.00    -0.050 Br
ENDBRANCH   1  18
BRANCH   1  21
ATOM     21  N   UNL     1      -0.025  -2.689  -0.598  0.00  0.00    +0.385 N 
ATOM     22  H   UNL     1      -0.804  -2.367  -0.043  0.00  0.00    -0.089 HD
ATOM     23  H   UNL     1      -0.122  -2.349  -1.543  0.00  0.00    -0.089 HD
ATOM     24  H   UNL     1      -0.012  -3.698  -0.604  0.00  0.00    -0.089 HD
ENDBRANCH   1  21
TORSDOF 3
