REMARK  Name = ZINC04611860
REMARK  5 active torsions:
REMARK  status: ('A' for Active; 'I' for Inactive)
REMARK    1  A    between atoms: C_6  and  O_7
REMARK    2  A    between atoms: O_7  and  C_8
REMARK    3  A    between atoms: C_8  and  C_9
REMARK    4  A    between atoms: N_11  and  C_12
REMARK    5  A    between atoms: C_13  and  C_23
REMARK                            x       y       z     vdW  Elec       q    Type
REMARK                         _______ _______ _______ _____ _____    ______ ____
ROOT
ATOM      1  C   UNL     1      -2.371   1.876   3.318  0.00  0.00    +0.084 A 
ATOM      2  C   UNL     1      -1.620   2.964   2.922  0.00  0.00    +0.068 A 
ATOM      3  C   UNL     1      -0.691   2.796   1.798  0.00  0.00    -0.023 A 
ATOM      4  C   UNL     1      -0.742   1.584   1.224  0.00  0.00    -0.004 A 
ATOM      5  S   UNL     1      -1.892   0.646   2.199  0.00  0.00    -0.077 S 
ATOM      6  C   UNL     1      -0.013   1.086   0.008  0.00  0.00    +0.043 C 
ATOM      7  C   UNL     1      -0.784   1.609  -1.217  0.00  0.00    +0.005 C 
ATOM      8  C   UNL     1      -0.934   3.129  -1.077  0.00  0.00    +0.000 C 
ATOM      9  C   UNL     1       0.477   3.675  -1.077  0.00  0.00    +0.000 C 
ATOM     10  C   UNL     1       1.164   3.617   0.277  0.00  0.00    +0.005 C 
ATOM     11  C   UNL     1       0.225   3.963   1.426  0.00  0.00    +0.037 C 
ENDROOT
BRANCH   2  12
ATOM     12  C   UNL     1      -1.743   4.253   3.610  0.00  0.00    +0.244 C 
ATOM     13  O   UNL     1      -2.554   5.074   3.224  0.00  0.00    -0.270 OA
ATOM     14  N   UNL     1      -0.957   4.528   4.670  0.00  0.00    -0.325 N 
ATOM     15  H   UNL     1      -0.311   3.873   4.978  0.00  0.00    +0.145 HD
ATOM     16  H   UNL     1      -1.038   5.380   5.126  0.00  0.00    +0.145 HD
ENDBRANCH   2  12
BRANCH   1  19
ATOM     17  C   UNL     1      -3.935   0.632   4.588  0.00  0.00    +0.255 C 
ATOM     18  O   UNL     1      -3.716  -0.336   3.892  0.00  0.00    -0.272 OA
ATOM     19  N   UNL     1      -3.288   1.791   4.355  0.00  0.00    -0.277 N 
ATOM     20  H   UNL     1      -3.463   2.566   4.912  0.00  0.00    +0.155 HD
BRANCH  17  21
ATOM     21  C   UNL     1      -4.931   0.540   5.715  0.00  0.00    +0.324 C 
BRANCH  21  22
ATOM     22  O   UNL     1      -5.479  -0.779   5.759  0.00  0.00    -0.483 OA
BRANCH  22  28
ATOM     23  C   UNL     1      -6.766  -0.033   7.616  0.00  0.00    +0.047 A 
ATOM     24  C   UNL     1      -7.707  -0.291   8.595  0.00  0.00    +0.023 A 
ATOM     25  C   UNL     1      -8.277  -1.548   8.693  0.00  0.00    +0.041 A 
ATOM     26  C   UNL     1      -7.910  -2.547   7.809  0.00  0.00    +0.023 A 
ATOM     27  C   UNL     1      -6.974  -2.292   6.826  0.00  0.00    +0.047 A 
ATOM     28  C   UNL     1      -6.401  -1.032   6.726  0.00  0.00    +0.121 A 
ATOM     29 CL   UNL     1      -9.454  -1.871   9.928  0.00  0.00    -0.084 Cl
ENDBRANCH  22  28
ENDBRANCH  21  22
ENDBRANCH  17  21
ENDBRANCH   1  19
TORSDOF 5
