REMARK  Name = ZINC08733587
REMARK  7 active torsions:
REMARK  status: ('A' for Active; 'I' for Inactive)
REMARK    1  A    between atoms: C_4  and  C_7
REMARK    2  A    between atoms: C_7  and  O_8
REMARK    3  A    between atoms: O_8  and  C_9
REMARK    4  A    between atoms: C_14  and  C_15
REMARK    5  A    between atoms: C_25  and  C_33
REMARK    6  A    between atoms: C_27  and  C_31
REMARK    7  A    between atoms: C_28  and  N_30
REMARK                            x       y       z     vdW  Elec       q    Type
REMARK                         _______ _______ _______ _____ _____    ______ ____
ROOT
ATOM      1  C   UNL     1       5.488  -1.010  -1.335  0.00  0.00    +0.404 C 
ATOM      2  O   UNL     1       6.196  -1.255  -0.379  0.00  0.00    -0.226 OA
ATOM      3  N   UNL     1       5.842  -1.441  -2.563  0.00  0.00    -0.259 N 
ATOM      4  C   UNL     1       4.998  -1.164  -3.741  0.00  0.00    +0.150 C 
ATOM      5  C   UNL     1       5.890  -0.433  -4.729  0.00  0.00    +0.013 C 
ATOM      6  C   UNL     1       5.408   0.574  -5.478  0.00  0.00    +0.016 C 
ATOM      7  C   UNL     1       7.299  -0.859  -4.851  0.00  0.00    +0.136 C 
ATOM      8  C   UNL     1       7.854  -1.661  -3.943  0.00  0.00    +0.003 C 
ATOM      9  C   UNL     1       7.074  -2.205  -2.771  0.00  0.00    +0.147 C 
ATOM     10  C   UNL     1       9.308  -2.057  -4.061  0.00  0.00    +0.095 C 
ATOM     11  C   UNL     1      10.036  -1.118  -4.979  0.00  0.00    +0.098 C 
ATOM     12  C   UNL     1       9.350  -0.338  -5.852  0.00  0.00    +0.199 C 
ATOM     13  O   UNL     1       8.008  -0.390  -5.910  0.00  0.00    -0.441 OA
ENDROOT
BRANCH   6  14
ATOM     14  C   UNL     1       3.967   0.877  -5.466  0.00  0.00    -0.024 A 
ATOM     15  C   UNL     1       3.035  -0.152  -5.301  0.00  0.00    +0.011 A 
ATOM     16  C   UNL     1       1.688   0.139  -5.284  0.00  0.00    +0.039 A 
ATOM     17  C   UNL     1       1.256   1.446  -5.444  0.00  0.00    +0.123 A 
ATOM     18  C   UNL     1       2.174   2.470  -5.614  0.00  0.00    +0.039 A 
ATOM     19  C   UNL     1       3.525   2.193  -5.626  0.00  0.00    +0.011 A 
ATOM     20  F   UNL     1      -0.067   1.724  -5.433  0.00  0.00    -0.205 F 
ENDBRANCH   6  14
BRANCH  10  21
ATOM     21  C   UNL     1       9.398  -3.458  -4.608  0.00  0.00    -0.035 A 
ATOM     22  C   UNL     1       8.863  -3.751  -5.848  0.00  0.00    +0.007 A 
ATOM     23  C   UNL     1       8.950  -5.034  -6.354  0.00  0.00    +0.038 A 
ATOM     24  C   UNL     1       9.565  -6.029  -5.613  0.00  0.00    +0.123 A 
ATOM     25  C   UNL     1      10.096  -5.736  -4.369  0.00  0.00    +0.038 A 
ATOM     26  C   UNL     1      10.013  -4.450  -3.868  0.00  0.00    +0.007 A 
ATOM     27  F   UNL     1       9.645  -7.285  -6.104  0.00  0.00    -0.205 F 
ENDBRANCH  10  21
BRANCH  12  28
ATOM     28  N   UNL     1      10.033   0.513  -6.685  0.00  0.00    -0.328 N 
ATOM     29  H   UNL     1      11.001   0.555  -6.647  0.00  0.00    +0.145 HD
ATOM     30  H   UNL     1       9.547   1.073  -7.311  0.00  0.00    +0.145 HD
ENDBRANCH  12  28
BRANCH  11  31
ATOM     31  C   UNL     1      11.465  -1.046  -4.934  0.00  0.00    +0.101 C 
ATOM     32  N   UNL     1      12.599  -0.989  -4.898  0.00  0.00    -0.191 NA
ENDBRANCH  11  31
BRANCH   1  33
ATOM     33  O   UNL     1       4.351  -0.309  -1.170  0.00  0.00    -0.445 OA
BRANCH  33  34
ATOM     34  C   UNL     1       4.033   0.122   0.179  0.00  0.00    +0.269 C 
BRANCH  34  38
ATOM     35  C   UNL     1       0.351   2.288   0.150  0.00  0.00    +0.000 A 
ATOM     36  C   UNL     1       1.548   2.957  -0.029  0.00  0.00    +0.000 A 
ATOM     37  C   UNL     1       2.739   2.256  -0.020  0.00  0.00    +0.007 A 
ATOM     38  C   UNL     1       2.734   0.886   0.170  0.00  0.00    -0.010 A 
ATOM     39  C   UNL     1       1.538   0.218   0.349  0.00  0.00    +0.007 A 
ATOM     40  C   UNL     1       0.346   0.919   0.340  0.00  0.00    +0.000 A 
ENDBRANCH  34  38
ENDBRANCH  33  34
ENDBRANCH   1  33
TORSDOF 7
