REMARK  Name = ZINC51259933
REMARK  7 active torsions:
REMARK  status: ('A' for Active; 'I' for Inactive)
REMARK    1  A    between atoms: C_1  and  C_2
REMARK    2  A    between atoms: C_2  and  C_3
REMARK    3  A    between atoms: C_2  and  C_4
REMARK    4  A    between atoms: C_7  and  C_10
REMARK    5  A    between atoms: C_10  and  C_12
REMARK    6  A    between atoms: C_10  and  O_29
REMARK    7  A    between atoms: C_12  and  N_13
REMARK                            x       y       z     vdW  Elec       q    Type
REMARK                         _______ _______ _______ _____ _____    ______ ____
ROOT
ATOM      1  N   UNL     1       4.539  -1.380  -6.297  0.00  0.00    -0.221 N 
ATOM      2  C   UNL     1       5.505  -2.314  -6.411  0.00  0.00    +0.251 C 
ATOM      3  O   UNL     1       6.011  -2.960  -5.518  0.00  0.00    -0.272 OA
ATOM      4  C   UNL     1       5.824  -2.387  -7.886  0.00  0.00    +0.144 C 
ATOM      5  C   UNL     1       5.529  -3.784  -8.426  0.00  0.00    +0.081 C 
ATOM      6  C   UNL     1       6.645  -4.727  -7.956  0.00  0.00    +0.232 C 
ATOM      7  O   UNL     1       7.876  -4.295  -8.536  0.00  0.00    -0.492 OA
ATOM      8  C   UNL     1       8.206  -2.982  -8.436  0.00  0.00    +0.126 A 
ATOM      9  C   UNL     1       7.260  -2.016  -8.131  0.00  0.00    +0.027 A 
ATOM     10  C   UNL     1       7.636  -0.687  -8.047  0.00  0.00    +0.010 A 
ATOM     11  C   UNL     1       8.950  -0.319  -8.263  0.00  0.00    +0.001 A 
ATOM     12  C   UNL     1       9.897  -1.280  -8.562  0.00  0.00    +0.004 A 
ATOM     13  C   UNL     1       9.528  -2.607  -8.649  0.00  0.00    +0.046 A 
ATOM     14  N   UNL     1       4.925  -1.399  -8.495  0.00  0.00    -0.281 N 
ATOM     15  C   UNL     1       4.208  -0.865  -7.488  0.00  0.00    +0.310 C 
ATOM     16  O   UNL     1       3.360  -0.009  -7.642  0.00  0.00    -0.252 OA
ATOM     17  H   UNL     1       4.858  -1.177  -9.437  0.00  0.00    +0.152 HD
ENDROOT
BRANCH   1  18
ATOM     18  C   UNL     1       3.923  -0.982  -5.029  0.00  0.00    +0.154 C 
BRANCH  18  19
ATOM     19  C   UNL     1       2.707  -1.868  -4.752  0.00  0.00    +0.162 C 
BRANCH  19  23
ATOM     20  C   UNL     1       0.707  -0.490  -1.238  0.00  0.00    -0.045 A 
ATOM     21  C   UNL     1       0.222  -0.151  -2.487  0.00  0.00    +0.004 A 
ATOM     22  C   UNL     1       0.869  -0.597  -3.624  0.00  0.00    +0.006 A 
ATOM     23  C   UNL     1       2.002  -1.381  -3.513  0.00  0.00    -0.018 A 
ATOM     24  C   UNL     1       2.488  -1.720  -2.263  0.00  0.00    +0.006 A 
ATOM     25  C   UNL     1       1.843  -1.270  -1.126  0.00  0.00    +0.004 A 
BRANCH  20  27
ATOM     26  C   UNL     1      -0.019   1.526   0.010  0.00  0.00    +0.012 C 
ATOM     27  C   UNL     1       0.002  -0.004   0.002  0.00  0.00    +0.013 C 
ATOM     28  C   UNL     1      -1.433  -0.534   0.013  0.00  0.00    +0.012 C 
ENDBRANCH  20  27
ENDBRANCH  19  23
BRANCH  19  29
ATOM     29  O   UNL     1       3.134  -3.218  -4.558  0.00  0.00    -0.386 OA
ATOM     30  H   UNL     1       3.746  -3.334  -3.818  0.00  0.00    +0.210 HD
ENDBRANCH  19  29
ENDBRANCH  18  19
ENDBRANCH   1  18
TORSDOF 5
