REMARK  Name = ZINC43090834
REMARK  8 active torsions:
REMARK  status: ('A' for Active; 'I' for Inactive)
REMARK    1  A    between atoms: C_1  and  C_2
REMARK    2  A    between atoms: C_2  and  C_4
REMARK    3  A    between atoms: C_2  and  N_23
REMARK    4  A    between atoms: C_4  and  C_6
REMARK    5  A    between atoms: C_4  and  N_13
REMARK    6  A    between atoms: C_18  and  C_20
REMARK    7  A    between atoms: C_20  and  C_21
REMARK    8  A    between atoms: C_21  and  O_22
REMARK                            x       y       z     vdW  Elec       q    Type
REMARK                         _______ _______ _______ _____ _____    ______ ____
ROOT
ATOM      1  C   UNL     1       1.145  -0.543   0.843  0.00  0.00    +0.073 C 
ENDROOT
BRANCH   1   2
ATOM      2  C   UNL     1       0.331   0.455   0.061  0.00  0.00    -0.018 A 
ATOM      3  C   UNL     1       0.959   1.335  -0.801  0.00  0.00    +0.006 A 
ATOM      4  C   UNL     1       0.213   2.251  -1.518  0.00  0.00    +0.000 A 
ATOM      5  C   UNL     1      -1.162   2.288  -1.374  0.00  0.00    +0.001 A 
ATOM      6  C   UNL     1      -1.790   1.409  -0.512  0.00  0.00    +0.015 A 
ATOM      7  C   UNL     1      -1.044   0.488   0.203  0.00  0.00    +0.022 A 
ATOM      8 BR   UNL     1      -1.904  -0.719   1.377  0.00  0.00    -0.050 Br
ENDBRANCH   1   2
BRANCH   1   9
ATOM      9  N   UNL     1       2.391   0.089   1.298  0.00  0.00    -0.294 NA
ATOM     10  C   UNL     1       2.200   1.528   1.520  0.00  0.00    +0.085 C 
ATOM     11  C   UNL     1       3.546   2.177   1.851  0.00  0.00    +0.015 C 
ATOM     12  C   UNL     1       4.128   1.522   3.106  0.00  0.00    +0.003 C 
ATOM     13  C   UNL     1       4.271   0.016   2.866  0.00  0.00    +0.019 C 
ATOM     14  C   UNL     1       2.905  -0.571   2.506  0.00  0.00    +0.059 C 
BRANCH  14  15
ATOM     15  C   UNL     1       3.047  -2.072   2.246  0.00  0.00    +0.046 C 
BRANCH  15  16
ATOM     16  C   UNL     1       3.669  -2.745   3.470  0.00  0.00    +0.157 C 
BRANCH  16  17
ATOM     17  O   UNL     1       3.889  -4.129   3.193  0.00  0.00    -0.395 OA
ATOM     18  H   UNL     1       4.283  -4.620   3.927  0.00  0.00    +0.209 HD
ENDBRANCH  16  17
ENDBRANCH  15  16
ENDBRANCH  14  15
ENDBRANCH   1   9
BRANCH   1  20
ATOM     19  C   UNL     1       2.294  -1.268  -1.254  0.00  0.00    -0.012 C 
ATOM     20  C   UNL     1       1.478  -1.741  -0.050  0.00  0.00    -0.056 C 
BRANCH  20  21
ATOM     21  N   UNL     1       0.232  -2.364  -0.517  0.00  0.00    +0.381 N 
ATOM     22  H   UNL     1       0.452  -3.154  -1.105  0.00  0.00    -0.090 HD
ATOM     23  H   UNL     1      -0.306  -2.676   0.278  0.00  0.00    -0.090 HD
ATOM     24  H   UNL     1      -0.304  -1.691  -1.043  0.00  0.00    -0.090 HD
ENDBRANCH  20  21
ENDBRANCH   1  20
TORSDOF 7
