REMARK  Name = ZINC54281460
REMARK  7 active torsions:
REMARK  status: ('A' for Active; 'I' for Inactive)
REMARK    1  A    between atoms: C_4  and  C_7
REMARK    2  A    between atoms: C_7  and  C_8
REMARK    3  A    between atoms: C_7  and  C_14
REMARK    4  A    between atoms: C_7  and  O_28
REMARK    5  A    between atoms: N_16  and  N_17
REMARK    6  A    between atoms: C_18  and  C_19
REMARK    7  A    between atoms: C_24  and  O_25
REMARK                            x       y       z     vdW  Elec       q    Type
REMARK                         _______ _______ _______ _____ _____    ______ ____
ROOT
ATOM      1  C   UNL     1       3.019  -0.327  -2.073  0.00  0.00    +0.273 C 
ATOM      2  O   UNL     1       3.026  -1.536  -2.171  0.00  0.00    -0.270 OA
ATOM      3  N   UNL     1       4.034   0.397  -2.585  0.00  0.00    -0.204 N 
ATOM      4  H   UNL     1       4.027   1.364  -2.506  0.00  0.00    +0.177 HD
ENDROOT
BRANCH   3   5
ATOM      5  N   UNL     1       5.097  -0.247  -3.231  0.00  0.00    -0.188 NA
ATOM      6  C   UNL     1       6.129   0.438  -3.622  0.00  0.00    +0.142 C 
BRANCH   6   7
ATOM      7  C   UNL     1       6.286   1.840  -3.198  0.00  0.00    +0.038 A 
ATOM      8  C   UNL     1       5.725   2.278  -1.996  0.00  0.00    +0.028 A 
ATOM      9  C   UNL     1       5.876   3.592  -1.604  0.00  0.00    +0.020 A 
ATOM     10  C   UNL     1       6.582   4.481  -2.399  0.00  0.00    +0.034 A 
ATOM     11  C   UNL     1       7.142   4.059  -3.591  0.00  0.00    +0.061 A 
ATOM     12  C   UNL     1       7.004   2.741  -3.996  0.00  0.00    +0.139 A 
ATOM     13 BR   UNL     1       8.104   5.282  -4.667  0.00  0.00    -0.046 Br
ATOM     14 BR   UNL     1       5.116   4.184   0.023  0.00  0.00    -0.050 Br
BRANCH  12  15
ATOM     15  O   UNL     1       7.558   2.325  -5.164  0.00  0.00    -0.505 OA
ATOM     16  H   UNL     1       7.005   2.485  -5.941  0.00  0.00    +0.292 HD
ENDBRANCH  12  15
ENDBRANCH   6   7
ENDBRANCH   3   5
BRANCH   1  17
ATOM     17  C   UNL     1       1.874   0.365  -1.379  0.00  0.00    +0.194 C 
BRANCH  17  21
ATOM     18  C   UNL     1      -1.013   1.601  -4.275  0.00  0.00    +0.000 A 
ATOM     19  C   UNL     1      -0.368   0.386  -4.415  0.00  0.00    +0.000 A 
ATOM     20  C   UNL     1       0.566  -0.014  -3.478  0.00  0.00    +0.007 A 
ATOM     21  C   UNL     1       0.856   0.801  -2.401  0.00  0.00    -0.003 A 
ATOM     22  C   UNL     1       0.213   2.017  -2.260  0.00  0.00    +0.007 A 
ATOM     23  C   UNL     1      -0.722   2.416  -3.196  0.00  0.00    +0.000 A 
ENDBRANCH  17  21
BRANCH  17  24
ATOM     24  C   UNL     1       1.230  -0.585  -0.402  0.00  0.00    -0.003 A 
ATOM     25  C   UNL     1       1.308  -0.339   0.956  0.00  0.00    +0.007 A 
ATOM     26  C   UNL     1       0.717  -1.210   1.851  0.00  0.00    +0.000 A 
ATOM     27  C   UNL     1       0.049  -2.328   1.389  0.00  0.00    +0.000 A 
ATOM     28  C   UNL     1      -0.030  -2.575   0.031  0.00  0.00    +0.000 A 
ATOM     29  C   UNL     1       0.557  -1.701  -0.865  0.00  0.00    +0.007 A 
ENDBRANCH  17  24
BRANCH  17  30
ATOM     30  O   UNL     1       2.365   1.509  -0.677  0.00  0.00    -0.371 OA
ATOM     31  H   UNL     1       3.026   1.303  -0.001  0.00  0.00    +0.212 HD
ENDBRANCH  17  30
ENDBRANCH   1  17
TORSDOF 7
