REMARK  Name = ZINC08212470
REMARK  8 active torsions:
REMARK  status: ('A' for Active; 'I' for Inactive)
REMARK    1  A    between atoms: C_1  and  C_2
REMARK    2  A    between atoms: C_2  and  O_3
REMARK    3  A    between atoms: O_3  and  C_4
REMARK    4  A    between atoms: C_4  and  C_6
REMARK    5  A    between atoms: C_12  and  C_14
REMARK    6  A    between atoms: C_12  and  C_15
REMARK    7  A    between atoms: C_12  and  N_64
REMARK    8  A    between atoms: N_20  and  C_21
REMARK                            x       y       z     vdW  Elec       q    Type
REMARK                         _______ _______ _______ _____ _____    ______ ____
ROOT
ATOM      1  C   UNL     1      -1.309  -2.050  -0.009  0.00  0.00    +0.207 C 
ATOM      2  O   UNL     1      -0.264  -2.605   0.256  0.00  0.00    -0.277 OA
ATOM      3  N   UNL     1      -2.429  -2.776  -0.198  0.00  0.00    -0.242 N 
ATOM      4  C   UNL     1      -2.387  -4.119  -0.091  0.00  0.00    +0.306 C 
ATOM      5  O   UNL     1      -1.339  -4.675   0.174  0.00  0.00    -0.252 OA
ATOM      6  N   UNL     1      -3.506  -4.845  -0.280  0.00  0.00    -0.294 N 
ATOM      7  H   UNL     1      -3.265  -2.332  -0.410  0.00  0.00    +0.159 HD
ATOM      8  H   UNL     1      -4.342  -4.402  -0.492  0.00  0.00    +0.151 HD
ENDROOT
BRANCH   6   9
ATOM      9  C   UNL     1      -3.461  -6.305  -0.165  0.00  0.00    +0.037 C 
ATOM     10  C   UNL     1      -3.002  -6.691   1.243  0.00  0.00    +0.029 C 
ATOM     11  C   UNL     1      -2.954  -8.216   1.363  0.00  0.00    -0.008 C 
ATOM     12  C   UNL     1      -4.348  -8.792   1.105  0.00  0.00    +0.007 C 
ATOM     13  C   UNL     1      -4.806  -8.405  -0.303  0.00  0.00    -0.008 C 
ATOM     14  C   UNL     1      -4.854  -6.881  -0.424  0.00  0.00    +0.029 C 
ATOM     15  C   UNL     1      -3.823  -8.968  -1.332  0.00  0.00    +0.007 C 
ATOM     16  C   UNL     1      -2.430  -8.392  -1.073  0.00  0.00    -0.008 C 
ATOM     17  C   UNL     1      -1.971  -8.778   0.334  0.00  0.00    +0.007 C 
ATOM     18  C   UNL     1      -2.477  -6.867  -1.194  0.00  0.00    +0.029 C 
ENDBRANCH   6   9
BRANCH   1  19
ATOM     19  C   UNL     1      -1.356  -0.548  -0.128  0.00  0.00    +0.017 C 
ATOM     20  C   UNL     1      -1.115  -0.144  -1.583  0.00  0.00    -0.004 C 
BRANCH  19  26
ATOM     21  C   UNL     1       0.578   0.296   2.991  0.00  0.00    +0.081 C 
ATOM     22  C   UNL     1       1.994   0.065   2.457  0.00  0.00    +0.011 C 
ATOM     23  C   UNL     1       2.067   0.539   1.003  0.00  0.00    -0.018 C 
ATOM     24  C   UNL     1       1.022  -0.211   0.174  0.00  0.00    -0.078 C 
ATOM     25  C   UNL     1      -0.424  -0.447   2.104  0.00  0.00    -0.063 C 
ATOM     26  N   UNL     1      -0.321   0.073   0.724  0.00  0.00    +0.388 N 
ATOM     27  H   UNL     1      -0.466   1.089   0.739  0.00  0.00    -0.081 HD
BRANCH  21  28
ATOM     28  C   UNL     1       0.482  -0.222   4.403  0.00  0.00    +0.308 C 
ATOM     29  O   UNL     1      -0.307  -1.096   4.673  0.00  0.00    -0.251 OA
BRANCH  28  30
ATOM     30  O   UNL     1       1.272   0.288   5.360  0.00  0.00    -0.465 OA
BRANCH  30  32
ATOM     31  C   UNL     1       2.102   0.440   7.645  0.00  0.00    +0.048 C 
ATOM     32  C   UNL     1       1.125  -0.259   6.697  0.00  0.00    +0.229 C 
ENDBRANCH  30  32
ENDBRANCH  28  30
ENDBRANCH  21  28
ENDBRANCH  19  26
ENDBRANCH   1  19
TORSDOF 6
