REMARK  Name = ZINC40825832
REMARK  7 active torsions:
REMARK  status: ('A' for Active; 'I' for Inactive)
REMARK    1  A    between atoms: C_1  and  C_2
REMARK    2  A    between atoms: C_6  and  C_7
REMARK    3  A    between atoms: N_9  and  C_10
REMARK    4  A    between atoms: C_10  and  C_11
REMARK    5  A    between atoms: C_11  and  C_12
REMARK    6  A    between atoms: N_22  and  N_23
REMARK    7  A    between atoms: C_24  and  C_26
REMARK                            x       y       z     vdW  Elec       q    Type
REMARK                         _______ _______ _______ _____ _____    ______ ____
ROOT
ATOM      1  C   UNL     1      -0.018   1.503   0.010  0.00  0.00    +0.048 C 
ATOM      2  C   UNL     1       0.002  -0.004   0.002  0.00  0.00    +0.009 A 
ATOM      3  C   UNL     1       0.008  -0.838  -1.123  0.00  0.00    +0.042 A 
ATOM      4  C   UNL     1       0.026  -2.138  -0.672  0.00  0.00    +0.115 A 
ATOM      5  O   UNL     1       0.034  -2.112   0.658  0.00  0.00    -0.454 OA
ATOM      6  C   UNL     1       0.024  -0.830   1.091  0.00  0.00    +0.193 A 
ATOM      7  C   UNL     1       0.033  -3.327  -1.599  0.00  0.00    +0.075 C 
ATOM      8  C   UNL     1      -0.491  -2.903  -2.974  0.00  0.00    +0.014 C 
ATOM      9  C   UNL     1       0.280  -1.686  -3.494  0.00  0.00    +0.058 C 
ATOM     10  C   UNL     1       0.001  -0.513  -2.566  0.00  0.00    +0.070 C 
ATOM     11  N   UNL     1      -0.228   0.686  -3.008  0.00  0.00    -0.184 NA
ENDROOT
BRANCH   6  12
ATOM     12  C   UNL     1       0.032  -0.399   2.493  0.00  0.00    +0.280 C 
ATOM     13  O   UNL     1       0.019   0.787   2.766  0.00  0.00    -0.267 OA
ATOM     14  N   UNL     1       0.054  -1.317   3.480  0.00  0.00    -0.309 N 
ATOM     15  H   UNL     1       0.065  -2.262   3.263  0.00  0.00    +0.149 HD
BRANCH  14  16
ATOM     16  C   UNL     1       0.062  -0.887   4.880  0.00  0.00    +0.109 C 
BRANCH  16  17
ATOM     17  C   UNL     1       0.088  -2.116   5.792  0.00  0.00    +0.054 C 
BRANCH  17  18
ATOM     18  C   UNL     1       0.096  -1.673   7.232  0.00  0.00    -0.046 A 
ATOM     19  C   UNL     1       1.297  -1.448   7.879  0.00  0.00    +0.004 A 
ATOM     20  C   UNL     1       1.304  -1.043   9.201  0.00  0.00    +0.000 A 
ATOM     21  C   UNL     1       0.111  -0.861   9.875  0.00  0.00    +0.000 A 
ATOM     22  C   UNL     1      -1.089  -1.085   9.227  0.00  0.00    +0.000 A 
ATOM     23  C   UNL     1      -1.097  -1.487   7.904  0.00  0.00    +0.004 A 
ENDBRANCH  17  18
ENDBRANCH  16  17
ENDBRANCH  14  16
ENDBRANCH   6  12
BRANCH  11  24
ATOM     24  N   UNL     1      -0.223   0.938  -4.386  0.00  0.00    -0.201 N 
ATOM     25  C   UNL     1      -0.460   2.182  -4.845  0.00  0.00    +0.282 C 
ATOM     26  O   UNL     1      -0.678   3.087  -4.063  0.00  0.00    -0.267 OA
ATOM     27  H   UNL     1      -0.048   0.216  -5.010  0.00  0.00    +0.178 HD
BRANCH  25  28
ATOM     28  C   UNL     1      -0.454   2.448  -6.303  0.00  0.00    +0.128 A 
ATOM     29  C   UNL     1      -0.698   3.751  -6.763  0.00  0.00    +0.034 A 
ATOM     30  C   UNL     1      -0.695   4.009  -8.103  0.00  0.00    +0.012 A 
ATOM     31  C   UNL     1      -0.445   2.942  -8.986  0.00  0.00    +0.000 A 
ATOM     32  C   UNL     1      -0.426   3.136 -10.377  0.00  0.00    +0.010 A 
ATOM     33  C   UNL     1      -0.180   2.081 -11.201  0.00  0.00    +0.001 A 
ATOM     34  C   UNL     1       0.054   0.807 -10.684  0.00  0.00    +0.002 A 
ATOM     35  C   UNL     1       0.044   0.582  -9.343  0.00  0.00    +0.028 A 
ATOM     36  C   UNL     1      -0.206   1.647  -8.457  0.00  0.00    +0.072 A 
ATOM     37  N   UNL     1      -0.216   1.455  -7.138  0.00  0.00    -0.242 NA
ENDBRANCH  25  28
ENDBRANCH  11  24
TORSDOF 6
