REMARK  Name = ZINC12629242
REMARK  7 active torsions:
REMARK  status: ('A' for Active; 'I' for Inactive)
REMARK    1  A    between atoms: C_4  and  C_34
REMARK    2  A    between atoms: C_5  and  C_7
REMARK    3  A    between atoms: C_7  and  O_8
REMARK    4  A    between atoms: O_8  and  C_9
REMARK    5  A    between atoms: C_12  and  C_16
REMARK    6  A    between atoms: C_25  and  N_29
REMARK    7  A    between atoms: C_26  and  C_27
REMARK                            x       y       z     vdW  Elec       q    Type
REMARK                         _______ _______ _______ _____ _____    ______ ____
ROOT
ATOM      1  C   UNL     1       5.412   2.064   3.889  0.00  0.00    +0.157 A 
ATOM      2  C   UNL     1       6.104   1.536   2.807  0.00  0.00    +0.084 A 
ATOM      3  C   UNL     1       5.543   1.575   1.544  0.00  0.00    +0.028 A 
ATOM      4  C   UNL     1       4.294   2.138   1.358  0.00  0.00    -0.032 A 
ATOM      5  C   UNL     1       3.605   2.670   2.432  0.00  0.00    +0.028 A 
ATOM      6  C   UNL     1       4.159   2.630   3.698  0.00  0.00    +0.084 A 
ATOM      7 CL   UNL     1       3.290   3.291   5.048  0.00  0.00    -0.080 Cl
ATOM      8 CL   UNL     1       7.672   0.829   3.041  0.00  0.00    -0.080 Cl
ENDROOT
BRANCH   4   9
ATOM      9  C   UNL     1       3.685   2.178  -0.020  0.00  0.00    +0.098 C 
ATOM     10  C   UNL     1       2.385   1.419  -0.013  0.00  0.00    +0.011 A 
ATOM     11  C   UNL     1       2.405   0.035  -0.021  0.00  0.00    +0.057 A 
ATOM     12  C   UNL     1       1.220  -0.680  -0.014  0.00  0.00    +0.167 A 
ATOM     13  C   UNL     1       0.002  -0.004   0.002  0.00  0.00    +0.170 A 
ATOM     14  C   UNL     1      -0.017   1.380   0.010  0.00  0.00    +0.096 A 
ATOM     15  C   UNL     1       1.175   2.094   0.002  0.00  0.00    +0.138 A 
ATOM     16  O   UNL     1       1.135   3.450   0.010  0.00  0.00    -0.441 OA
ATOM     17  C   UNL     1       2.211   4.155  -0.379  0.00  0.00    +0.199 C 
ATOM     18  C   UNL     1       3.450   3.608  -0.416  0.00  0.00    +0.098 C 
ATOM     19  O   UNL     1      -1.007  -0.923   0.007  0.00  0.00    -0.452 OA
ATOM     20  C   UNL     1      -0.404  -2.159  -0.418  0.00  0.00    +0.466 C 
ATOM     21  O   UNL     1       0.973  -2.024  -0.018  0.00  0.00    -0.453 OA
BRANCH  17  22
ATOM     22  N   UNL     1       2.050   5.466  -0.750  0.00  0.00    -0.328 N 
ATOM     23  H   UNL     1       2.818   5.988  -1.032  0.00  0.00    +0.145 HD
ATOM     24  H   UNL     1       1.169   5.872  -0.729  0.00  0.00    +0.145 HD
ENDBRANCH  17  22
BRANCH  18  25
ATOM     25  C   UNL     1       4.558   4.410  -0.840  0.00  0.00    +0.101 C 
ATOM     26  N   UNL     1       5.437   5.047  -1.176  0.00  0.00    -0.191 NA
ENDBRANCH  18  25
ENDBRANCH   4   9
BRANCH   1  27
ATOM     27  O   UNL     1       5.961   2.029   5.132  0.00  0.00    -0.484 OA
BRANCH  27  28
ATOM     28  C   UNL     1       6.765   3.145   5.518  0.00  0.00    +0.266 C 
BRANCH  28  33
ATOM     29  C   UNL     1       7.432   1.582   8.891  0.00  0.00    +0.000 A 
ATOM     30  C   UNL     1       8.240   2.532   9.491  0.00  0.00    +0.001 A 
ATOM     31  C   UNL     1       8.577   3.684   8.812  0.00  0.00    +0.019 A 
ATOM     32  C   UNL     1       8.105   3.889   7.514  0.00  0.00    +0.058 A 
ATOM     33  C   UNL     1       7.285   2.929   6.916  0.00  0.00    +0.007 A 
ATOM     34  C   UNL     1       6.956   1.781   7.607  0.00  0.00    +0.008 A 
BRANCH  32  35
ATOM     35  C   UNL     1       8.455   5.080   6.801  0.00  0.00    +0.100 C 
ATOM     36  N   UNL     1       8.732   6.026   6.235  0.00  0.00    -0.191 NA
ENDBRANCH  32  35
ENDBRANCH  28  33
ENDBRANCH  27  28
ENDBRANCH   1  27
TORSDOF 7
