REMARK  Name = ZINC38536072
REMARK  4 active torsions:
REMARK  status: ('A' for Active; 'I' for Inactive)
REMARK    1  A    between atoms: N_9  and  C_10
REMARK    2  A    between atoms: C_10  and  C_11
REMARK    3  A    between atoms: N_19  and  C_20
REMARK    4  A    between atoms: C_20  and  C_21
REMARK                            x       y       z     vdW  Elec       q    Type
REMARK                         _______ _______ _______ _____ _____    ______ ____
ROOT
ATOM      1  C   UNL     1       5.364  -0.386   1.384  0.00  0.00    +0.012 C 
ATOM      2  C   UNL     1       4.708   0.867   1.970  0.00  0.00    +0.024 C 
ATOM      3  C   UNL     1       5.179   1.056   3.415  0.00  0.00    +0.109 C 
ATOM      4  N   UNL     1       6.648   1.079   3.435  0.00  0.00    -0.286 N 
ATOM      5  C   UNL     1       7.380  -0.035   2.816  0.00  0.00    +0.109 C 
ATOM      6  C   UNL     1       6.884  -0.213   1.377  0.00  0.00    +0.024 C 
ATOM      7  C   UNL     1       7.312   2.102   4.009  0.00  0.00    +0.302 C 
ATOM      8  O   UNL     1       6.699   3.062   4.432  0.00  0.00    -0.253 OA
ATOM      9  N   UNL     1       8.655   2.059   4.113  0.00  0.00    -0.295 N 
ATOM     10  H   UNL     1       9.150   1.328   3.712  0.00  0.00    +0.151 HD
ENDROOT
BRANCH   1  11
ATOM     11  C   UNL     1       4.869  -0.598  -0.048  0.00  0.00    +0.127 C 
BRANCH  11  20
ATOM     12  C   UNL     1      -0.027   1.358   0.030  0.00  0.00    +0.002 A 
ATOM     13  C   UNL     1       1.155   2.084   0.021  0.00  0.00    +0.002 A 
ATOM     14  C   UNL     1       2.372   1.437  -0.000  0.00  0.00    +0.028 A 
ATOM     15  C   UNL     1       2.413   0.050  -0.011  0.00  0.00    +0.069 A 
ATOM     16  C   UNL     1       1.216  -0.685  -0.001  0.00  0.00    +0.089 A 
ATOM     17  C   UNL     1      -0.006  -0.008   0.019  0.00  0.00    +0.030 A 
ATOM     18  N   UNL     1       1.558  -1.999  -0.016  0.00  0.00    -0.236 NA
ATOM     19  C   UNL     1       2.853  -2.114  -0.033  0.00  0.00    +0.200 A 
ATOM     20  N   UNL     1       3.432  -0.882  -0.032  0.00  0.00    -0.330 N 
ENDBRANCH  11  20
ENDBRANCH   1  11
BRANCH   9  21
ATOM     21  C   UNL     1       9.367   3.118   4.833  0.00  0.00    +0.148 C 
BRANCH  21  22
ATOM     22  C   UNL     1      10.847   2.837   4.804  0.00  0.00    +0.007 A 
ATOM     23  C   UNL     1      11.774   3.232   3.897  0.00  0.00    +0.013 A 
ATOM     24  C   UNL     1      13.091   2.852   4.075  0.00  0.00    +0.008 A 
ATOM     25  C   UNL     1      13.417   2.096   5.152  0.00  0.00    +0.045 A 
ATOM     26  S   UNL     1      11.837   1.904   5.961  0.00  0.00    -0.100 S 
ENDBRANCH  21  22
ENDBRANCH   9  21
TORSDOF 4
