REMARK  Name = ZINC08940069
REMARK  11 active torsions:
REMARK  status: ('A' for Active; 'I' for Inactive)
REMARK    1  A    between atoms: C_1  and  C_2
REMARK    2  A    between atoms: C_2  and  O_3
REMARK    3  A    between atoms: O_3  and  C_4
REMARK    4  A    between atoms: C_4  and  C_6
REMARK    5  A    between atoms: C_7  and  C_33
REMARK    6  A    between atoms: C_8  and  C_29
REMARK    7  A    between atoms: C_10  and  N_11
REMARK    8  A    between atoms: C_12  and  C_14
REMARK    9  A    between atoms: C_14  and  N_15
REMARK   10  A    between atoms: C_23  and  C_25
REMARK   11  A    between atoms: N_31  and  C_32
REMARK                            x       y       z     vdW  Elec       q    Type
REMARK                         _______ _______ _______ _____ _____    ______ ____
ROOT
ATOM      1  N   UNL     1      -1.222  -2.356   2.494  0.00  0.00    -0.278 N 
ATOM      2  C   UNL     1      -1.240  -3.222   3.527  0.00  0.00    +0.236 C 
ATOM      3  O   UNL     1      -1.289  -4.415   3.317  0.00  0.00    -0.274 OA
ATOM      4  H   UNL     1      -1.183  -1.402   2.662  0.00  0.00    +0.155 HD
ENDROOT
BRANCH   1   9
ATOM      5  C   UNL     1      -1.248  -2.099   0.003  0.00  0.00    +0.091 A 
ATOM      6  C   UNL     1      -1.287  -2.809  -1.188  0.00  0.00    -0.015 A 
ATOM      7  C   UNL     1      -1.339  -4.174  -1.112  0.00  0.00    +0.079 A 
ATOM      8  S   UNL     1      -1.333  -4.470   0.646  0.00  0.00    -0.068 S 
ATOM      9  C   UNL     1      -1.258  -2.828   1.196  0.00  0.00    +0.087 A 
ATOM     10  C   UNL     1      -1.274  -2.102  -2.519  0.00  0.00    +0.046 C 
BRANCH   7  11
ATOM     11  C   UNL     1      -1.387  -5.149  -2.204  0.00  0.00    +0.251 C 
ATOM     12  O   UNL     1      -1.383  -4.769  -3.360  0.00  0.00    -0.270 OA
ATOM     13  N   UNL     1      -1.435  -6.468  -1.927  0.00  0.00    -0.314 N 
ATOM     14  C   UNL     1      -1.482  -7.443  -3.019  0.00  0.00    +0.128 C 
ATOM     15  H   UNL     1      -1.437  -6.770  -1.006  0.00  0.00    +0.149 HD
ENDBRANCH   7  11
BRANCH   5  16
ATOM     16  C   UNL     1      -1.191  -0.632   0.010  0.00  0.00    +0.342 C 
ATOM     17  O   UNL     1      -2.220   0.016   0.023  0.00  0.00    -0.245 OA
BRANCH  16  18
ATOM     18  O   UNL     1       0.002  -0.004   0.002  0.00  0.00    -0.461 OA
BRANCH  18  20
ATOM     19  C   UNL     1       1.418   1.977  -0.001  0.00  0.00    +0.048 C 
ATOM     20  C   UNL     1      -0.018   1.448   0.010  0.00  0.00    +0.229 C 
ENDBRANCH  18  20
ENDBRANCH  16  18
ENDBRANCH   5  16
ENDBRANCH   1   9
BRANCH   2  21
ATOM     21  C   UNL     1      -1.200  -2.707   4.942  0.00  0.00    +0.214 C 
BRANCH  21  22
ATOM     22  N   UNL     1      -1.230  -3.837   5.874  0.00  0.00    -0.215 N 
ATOM     23  C   UNL     1      -2.360  -4.376   6.377  0.00  0.00    +0.247 C 
ATOM     24  O   UNL     1      -3.500  -4.031   6.152  0.00  0.00    -0.273 OA
ATOM     25  C   UNL     1      -1.905  -5.501   7.277  0.00  0.00    +0.115 C 
ATOM     26  C   UNL     1      -2.351  -5.244   8.712  0.00  0.00    +0.035 C 
ATOM     27  C   UNL     1      -1.850  -6.374   9.614  0.00  0.00    +0.003 C 
ATOM     28  C   UNL     1      -2.412  -7.708   9.118  0.00  0.00    +0.000 C 
ATOM     29  C   UNL     1      -1.938  -7.963   7.686  0.00  0.00    +0.006 C 
ATOM     30  C   UNL     1      -2.440  -6.838   6.777  0.00  0.00    +0.018 C 
ATOM     31  C   UNL     1      -1.950  -7.082   5.348  0.00  0.00    +0.010 C 
ATOM     32  N   UNL     1      -0.440  -5.466   7.180  0.00  0.00    -0.285 N 
ATOM     33  C   UNL     1      -0.139  -4.460   6.337  0.00  0.00    +0.310 C 
ATOM     34  O   UNL     1       0.997  -4.152   6.030  0.00  0.00    -0.252 OA
ATOM     35  H   UNL     1       0.187  -6.051   7.633  0.00  0.00    +0.151 HD
ENDBRANCH  21  22
ENDBRANCH   2  21
TORSDOF 7
