REMARK  Name = ZINC12886759
REMARK  11 active torsions:
REMARK  status: ('A' for Active; 'I' for Inactive)
REMARK    1  A    between atoms: C_1  and  C_2
REMARK    2  A    between atoms: C_3  and  C_34
REMARK    3  A    between atoms: C_9  and  O_19
REMARK    4  A    between atoms: C_15  and  C_17
REMARK    5  A    between atoms: C_15  and  C_18
REMARK    6  A    between atoms: O_19  and  C_20
REMARK    7  A    between atoms: C_20  and  C_21
REMARK    8  A    between atoms: N_23  and  C_24
REMARK    9  A    between atoms: C_24  and  C_25
REMARK   10  A    between atoms: C_25  and  C_27
REMARK   11  A    between atoms: C_25  and  O_33
REMARK                            x       y       z     vdW  Elec       q    Type
REMARK                         _______ _______ _______ _____ _____    ______ ____
ROOT
ATOM      1  C   UNL     1       0.419   1.475  -0.050  0.00  0.00    +0.045 C 
ATOM      2  C   UNL     1       0.209  -0.017  -0.026  0.00  0.00    -0.027 A 
ATOM      3  C   UNL     1      -0.096  -0.691  -1.166  0.00  0.00    +0.038 A 
ATOM      4  C   UNL     1      -0.288  -2.086  -1.127  0.00  0.00    +0.340 A 
ATOM      5  O   UNL     1      -0.562  -2.683  -2.153  0.00  0.00    -0.245 OA
ATOM      6  O   UNL     1      -0.174  -2.770   0.025  0.00  0.00    -0.421 OA
ATOM      7  C   UNL     1       0.125  -2.135   1.181  0.00  0.00    +0.149 A 
ATOM      8  C   UNL     1       0.331  -0.745   1.185  0.00  0.00    +0.063 A 
ATOM      9  C   UNL     1       0.650  -0.091   2.388  0.00  0.00    +0.136 A 
ATOM     10  C   UNL     1       0.761  -0.824   3.551  0.00  0.00    +0.092 A 
ATOM     11  C   UNL     1       0.559  -2.205   3.542  0.00  0.00    +0.131 A 
ATOM     12  C   UNL     1       0.232  -2.855   2.364  0.00  0.00    +0.038 A 
ATOM     13  C   UNL     1      -0.004  -4.344   2.326  0.00  0.00    +0.046 C 
ATOM     14  C   UNL     1       0.577  -4.991   3.586  0.00  0.00    +0.052 C 
ATOM     15  C   UNL     1       0.103  -4.185   4.802  0.00  0.00    +0.105 C 
ATOM     16  O   UNL     1       0.686  -2.878   4.715  0.00  0.00    -0.486 OA
ATOM     17  C   UNL     1      -1.424  -4.092   4.797  0.00  0.00    +0.055 C 
ATOM     18  C   UNL     1       0.575  -4.867   6.088  0.00  0.00    +0.055 C 
ATOM     19  C   UNL     1      -0.228   0.053  -2.470  0.00  0.00    +0.051 C 
ENDROOT
BRANCH   9  20
ATOM     20  O   UNL     1       0.847   1.252   2.405  0.00  0.00    -0.482 OA
BRANCH  20  21
ATOM     21  C   UNL     1       1.167   1.844   3.666  0.00  0.00    +0.324 C 
BRANCH  21  22
ATOM     22  C   UNL     1       1.349   3.330   3.490  0.00  0.00    +0.251 C 
ATOM     23  O   UNL     1       1.218   3.832   2.394  0.00  0.00    -0.272 OA
ATOM     24  N   UNL     1       1.659   4.101   4.552  0.00  0.00    -0.310 N 
ATOM     25  H   UNL     1       1.764   3.699   5.428  0.00  0.00    +0.149 HD
BRANCH  24  26
ATOM     26  C   UNL     1       1.836   5.545   4.381  0.00  0.00    +0.140 C 
BRANCH  26  27
ATOM     27  C   UNL     1       2.179   6.179   5.731  0.00  0.00    +0.162 C 
BRANCH  27  28
ATOM     28  C   UNL     1       2.361   7.665   5.556  0.00  0.00    -0.018 A 
ATOM     29  C   UNL     1       1.264   8.505   5.595  0.00  0.00    +0.006 A 
ATOM     30  C   UNL     1       1.431   9.868   5.434  0.00  0.00    +0.000 A 
ATOM     31  C   UNL     1       2.695  10.391   5.234  0.00  0.00    +0.000 A 
ATOM     32  C   UNL     1       3.792   9.550   5.196  0.00  0.00    +0.000 A 
ATOM     33  C   UNL     1       3.626   8.188   5.361  0.00  0.00    +0.006 A 
ENDBRANCH  27  28
BRANCH  27  34
ATOM     34  O   UNL     1       1.117   5.935   6.656  0.00  0.00    -0.386 OA
ATOM     35  H   UNL     1       0.264   6.297   6.379  0.00  0.00    +0.210 HD
ENDBRANCH  27  34
ENDBRANCH  26  27
ENDBRANCH  24  26
ENDBRANCH  21  22
ENDBRANCH  20  21
ENDBRANCH   9  20
TORSDOF 7
