REMARK  Name = ZINC09288200
REMARK  6 active torsions:
REMARK  status: ('A' for Active; 'I' for Inactive)
REMARK    1  A    between atoms: C_1  and  C_2
REMARK    2  A    between atoms: C_2  and  N_49
REMARK    3  A    between atoms: N_5  and  C_8
REMARK    4  A    between atoms: C_9  and  N_24
REMARK    5  A    between atoms: N_13  and  C_14
REMARK    6  A    between atoms: C_17  and  C_20
REMARK                            x       y       z     vdW  Elec       q    Type
REMARK                         _______ _______ _______ _____ _____    ______ ____
ROOT
ATOM      1  C   UNL     1       2.372   0.077  -0.248  0.00  0.00    +0.136 A 
ATOM      2  C   UNL     1       1.152  -0.591  -0.433  0.00  0.00    +0.203 A 
ATOM      3  C   UNL     1      -0.034   0.118  -0.248  0.00  0.00    +0.154 A 
ATOM      4  N   UNL     1       0.011   1.406   0.098  0.00  0.00    -0.195 NA
ATOM      5  C   UNL     1       1.163   2.029   0.271  0.00  0.00    +0.232 A 
ATOM      6  N   UNL     1       1.163   3.328   0.620  0.00  0.00    -0.213 NA
ATOM      7  N   UNL     1       2.353   1.382   0.103  0.00  0.00    -0.310 N 
ATOM      8  H   UNL     1       3.187   1.860   0.235  0.00  0.00    +0.170 HD
ATOM      9  N   UNL     1      -1.249  -0.509  -0.422  0.00  0.00    -0.341 N 
ATOM     10  H   UNL     1      -2.067   0.011  -0.427  0.00  0.00    +0.144 HD
ATOM     11  H   UNL     1      -1.286  -1.472  -0.538  0.00  0.00    +0.144 HD
ENDROOT
BRANCH   1  14
ATOM     12  C   UNL     1       5.305  -1.290  -1.978  0.00  0.00    -0.060 C 
ATOM     13  C   UNL     1       4.019  -0.477  -1.810  0.00  0.00    +0.088 C 
ATOM     14  N   UNL     1       3.557  -0.580  -0.419  0.00  0.00    -0.318 N 
ATOM     15  C   UNL     1       4.577  -0.077   0.511  0.00  0.00    +0.088 C 
ATOM     16  C   UNL     1       5.862  -0.890   0.343  0.00  0.00    -0.060 C 
ATOM     17  N   UNL     1       6.329  -0.760  -1.054  0.00  0.00    +0.382 N 
ATOM     18  H   UNL     1       6.485   0.234  -1.262  0.00  0.00    -0.082 HD
BRANCH  17  20
ATOM     19  C   UNL     1       8.556  -1.126  -0.096  0.00  0.00    -0.017 C 
ATOM     20  C   UNL     1       7.600  -1.493  -1.232  0.00  0.00    -0.082 C 
ENDBRANCH  17  20
ENDBRANCH   1  14
BRANCH   6  21
ATOM     21  C   UNL     1       0.019   3.943   0.888  0.00  0.00    +0.068 A 
ATOM     22  C   UNL     1      -0.704   4.678  -0.157  0.00  0.00    +0.028 A 
ATOM     23  C   UNL     1      -1.879   5.289   0.160  0.00  0.00    +0.005 A 
ATOM     24  C   UNL     1      -2.387   5.235   1.452  0.00  0.00    -0.050 A 
ATOM     25  C   UNL     1      -1.731   4.556   2.471  0.00  0.00    +0.005 A 
ATOM     26  C   UNL     1      -0.554   3.911   2.239  0.00  0.00    +0.028 A 
ATOM     27  C   UNL     1      -3.687   5.933   1.756  0.00  0.00    +0.044 C 
ENDBRANCH   6  21
BRANCH   2  28
ATOM     28  N   UNL     1       1.125  -2.022  -0.817  0.00  0.00    +0.063 N 
ATOM     29  O   UNL     1       0.110  -2.499  -1.506  0.00  0.00    -0.126 OA
ATOM     30  O   UNL     1       2.116  -2.816  -0.469  0.00  0.00    -0.126 OA
ENDBRANCH   2  28
TORSDOF 4
