REMARK  Name = ZINC14467444
REMARK  6 active torsions:
REMARK  status: ('A' for Active; 'I' for Inactive)
REMARK    1  A    between atoms: C_2  and  C_3
REMARK    2  A    between atoms: C_3  and  N_4
REMARK    3  A    between atoms: N_4  and  S_5
REMARK    4  A    between atoms: S_5  and  C_8
REMARK    5  A    between atoms: C_21  and  C_24
REMARK    6  A    between atoms: C_29  and  O_30
REMARK                            x       y       z     vdW  Elec       q    Type
REMARK                         _______ _______ _______ _____ _____    ______ ____
ROOT
ATOM      1  C   UNL     1      -0.071   0.261  -4.700  0.00  0.00    +0.106 A 
ATOM      2  C   UNL     1       1.290   0.028  -4.634  0.00  0.00    +0.030 A 
ATOM      3  C   UNL     1       1.986   0.308  -3.476  0.00  0.00    +0.025 A 
ATOM      4  C   UNL     1       1.325   0.827  -2.368  0.00  0.00    +0.031 A 
ATOM      5  C   UNL     1      -0.050   1.073  -2.447  0.00  0.00    -0.018 A 
ATOM      6  C   UNL     1      -0.737   0.783  -3.606  0.00  0.00    +0.034 A 
ATOM      7  C   UNL     1      -0.707   1.665  -1.262  0.00  0.00    +0.049 C 
ATOM      8  C   UNL     1      -2.150   1.443  -0.990  0.00  0.00    -0.023 C 
ATOM      9  C   UNL     1      -2.339   1.440   0.324  0.00  0.00    -0.030 C 
ATOM     10  C   UNL     1      -0.983   1.630   1.065  0.00  0.00    +0.033 C 
ATOM     11  C   UNL     1      -0.013   1.086   0.008  0.00  0.00    +0.029 C 
ATOM     12  C   UNL     1       1.393   1.659  -0.002  0.00  0.00    +0.109 C 
ATOM     13  N   UNL     1       2.049   1.086  -1.198  0.00  0.00    -0.336 N 
ATOM     14  H   UNL     1       2.998   0.887  -1.171  0.00  0.00    +0.147 HD
ENDROOT
BRANCH  12  15
ATOM     15  C   UNL     1       1.342   3.162  -0.107  0.00  0.00    +0.017 A 
ATOM     16  C   UNL     1       1.452   3.773  -1.341  0.00  0.00    +0.029 A 
ATOM     17  C   UNL     1       1.400   5.152  -1.439  0.00  0.00    +0.043 A 
ATOM     18  C   UNL     1       1.247   5.923  -0.300  0.00  0.00    +0.043 A 
ATOM     19  C   UNL     1       1.141   5.316   0.937  0.00  0.00    +0.084 A 
ATOM     20  C   UNL     1       1.189   3.932   1.036  0.00  0.00    +0.140 A 
ATOM     21 CL   UNL     1       0.949   6.283   2.366  0.00  0.00    -0.080 Cl
ATOM     22 CL   UNL     1       1.533   5.917  -2.991  0.00  0.00    -0.083 Cl
BRANCH  20  23
ATOM     23  O   UNL     1       1.085   3.332   2.252  0.00  0.00    -0.505 OA
ATOM     24  H   UNL     1       1.932   3.195   2.697  0.00  0.00    +0.292 HD
ENDBRANCH  20  23
ENDBRANCH  12  15
BRANCH   1  25
ATOM     25  S   UNL     1      -0.958  -0.109  -6.177  0.00  0.00    +0.059 S 
ATOM     26  O   UNL     1      -2.120   0.709  -6.169  0.00  0.00    -0.153 OA
ATOM     27  O   UNL     1      -0.012  -0.078  -7.237  0.00  0.00    -0.153 OA
BRANCH  25  28
ATOM     28  N   UNL     1      -1.481  -1.676  -6.055  0.00  0.00    -0.186 NA
ATOM     29  H   UNL     1      -1.142  -2.349  -6.665  0.00  0.00    +0.148 HD
BRANCH  28  30
ATOM     30  C   UNL     1      -2.455  -2.045  -5.025  0.00  0.00    +0.132 C 
BRANCH  30  32
ATOM     31  C   UNL     1      -2.985  -4.360  -4.458  0.00  0.00    +0.005 C 
ATOM     32  C   UNL     1      -3.037  -3.397  -5.346  0.00  0.00    -0.018 C 
ENDBRANCH  30  32
ENDBRANCH  28  30
ENDBRANCH  25  28
ENDBRANCH   1  25
TORSDOF 6
