REMARK  Name = ZINC39597680
REMARK  5 active torsions:
REMARK  status: ('A' for Active; 'I' for Inactive)
REMARK    1  A    between atoms: C_4  and  C_7
REMARK    2  A    between atoms: C_11  and  C_20
REMARK    3  A    between atoms: N_22  and  C_23
REMARK    4  A    between atoms: C_23  and  C_24
REMARK    5  A    between atoms: C_24  and  C_25
REMARK                            x       y       z     vdW  Elec       q    Type
REMARK                         _______ _______ _______ _____ _____    ______ ____
ROOT
ATOM      1  C   UNL     1       3.982  -0.732  -0.137  0.00  0.00    +0.247 C 
ATOM      2  O   UNL     1       5.066  -0.202  -0.280  0.00  0.00    -0.270 OA
ATOM      3  N   UNL     1       3.899  -2.071  -0.006  0.00  0.00    -0.296 N 
ATOM      4  C   UNL     1       2.675  -2.904   0.045  0.00  0.00    +0.121 C 
ATOM      5  C   UNL     1       3.027  -4.167  -0.773  0.00  0.00    +0.100 C 
ATOM      6  C   UNL     1       4.562  -4.253  -0.720  0.00  0.00    -0.004 C 
ATOM      7  C   UNL     1       5.012  -3.043   0.112  0.00  0.00    +0.115 C 
ATOM      8  C   UNL     1       5.145  -4.165  -2.127  0.00  0.00    -0.010 C 
ATOM      9  C   UNL     1       6.668  -4.310  -2.053  0.00  0.00    -0.082 C 
ATOM     10  N   UNL     1       7.009  -5.600  -1.440  0.00  0.00    +0.379 N 
ATOM     11  C   UNL     1       6.524  -5.640  -0.055  0.00  0.00    -0.082 C 
ATOM     12  C   UNL     1       4.995  -5.550  -0.044  0.00  0.00    -0.010 C 
ATOM     13  H   UNL     1       6.579  -6.345  -1.967  0.00  0.00    -0.086 HD
ATOM     14  H   UNL     1       8.011  -5.720  -1.448  0.00  0.00    -0.086 HD
ENDROOT
BRANCH   1  18
ATOM     15  C   UNL     1       0.455   1.633  -0.049  0.00  0.00    +0.000 A 
ATOM     16  C   UNL     1       1.604   2.132  -0.636  0.00  0.00    +0.001 A 
ATOM     17  C   UNL     1       2.753   1.369  -0.668  0.00  0.00    +0.013 A 
ATOM     18  C   UNL     1       2.754   0.091  -0.106  0.00  0.00    +0.037 A 
ATOM     19  C   UNL     1       1.591  -0.406   0.485  0.00  0.00    +0.013 A 
ATOM     20  C   UNL     1       0.449   0.367   0.510  0.00  0.00    +0.001 A 
ENDBRANCH   1  18
BRANCH   5  21
ATOM     21  C   UNL     1       2.557  -4.018  -2.197  0.00  0.00    +0.218 C 
ATOM     22  O   UNL     1       2.504  -2.918  -2.706  0.00  0.00    -0.275 OA
ATOM     23  N   UNL     1       2.195  -5.106  -2.904  0.00  0.00    -0.315 N 
ATOM     24  H   UNL     1       2.237  -5.986  -2.497  0.00  0.00    +0.149 HD
BRANCH  23  25
ATOM     25  C   UNL     1       1.738  -4.962  -4.289  0.00  0.00    +0.109 C 
BRANCH  25  26
ATOM     26  C   UNL     1       1.391  -6.339  -4.858  0.00  0.00    +0.056 C 
BRANCH  26  27
ATOM     27  C   UNL     1       0.921  -6.190  -6.282  0.00  0.00    -0.021 A 
ATOM     28  C   UNL     1       1.766  -6.124  -7.476  0.00  0.00    +0.003 A 
ATOM     29  C   UNL     1       3.144  -6.170  -7.694  0.00  0.00    +0.010 A 
ATOM     30  C   UNL     1       3.634  -6.081  -8.966  0.00  0.00    +0.001 A 
ATOM     31  C   UNL     1       2.772  -5.944 -10.045  0.00  0.00    +0.002 A 
ATOM     32  C   UNL     1       1.408  -5.895  -9.854  0.00  0.00    +0.026 A 
ATOM     33  C   UNL     1       0.888  -5.985  -8.567  0.00  0.00    +0.047 A 
ATOM     34  N   UNL     1      -0.392  -5.969  -8.059  0.00  0.00    -0.360 N 
ATOM     35  C   UNL     1      -0.353  -6.098  -6.697  0.00  0.00    +0.087 A 
ATOM     36  H   UNL     1      -1.200  -5.884  -8.587  0.00  0.00    +0.165 HD
ENDBRANCH  26  27
ENDBRANCH  25  26
ENDBRANCH  23  25
ENDBRANCH   5  21
TORSDOF 5
