REMARK  Name = ZINC39658091
REMARK  6 active torsions:
REMARK  status: ('A' for Active; 'I' for Inactive)
REMARK    1  A    between atoms: C_1  and  O_2
REMARK    2  A    between atoms: O_2  and  C_3
REMARK    3  A    between atoms: C_7  and  C_9
REMARK    4  A    between atoms: C_13  and  C_22
REMARK    5  A    between atoms: N_24  and  C_25
REMARK    6  A    between atoms: C_28  and  C_31
REMARK                            x       y       z     vdW  Elec       q    Type
REMARK                         _______ _______ _______ _____ _____    ______ ____
ROOT
ATOM      1  C   UNL     1      -2.487  -3.941   0.096  0.00  0.00    +0.248 C 
ATOM      2  O   UNL     1      -3.585  -4.462   0.123  0.00  0.00    -0.270 OA
ATOM      3  N   UNL     1      -1.385  -4.700  -0.069  0.00  0.00    -0.296 N 
ATOM      4  C   UNL     1       0.032  -4.266  -0.024  0.00  0.00    +0.121 C 
ATOM      5  C   UNL     1       0.767  -5.408   0.713  0.00  0.00    +0.100 C 
ATOM      6  C   UNL     1      -0.121  -6.646   0.503  0.00  0.00    -0.004 C 
ATOM      7  C   UNL     1      -1.316  -6.157  -0.330  0.00  0.00    +0.115 C 
ATOM      8  C   UNL     1      -0.607  -7.182   1.846  0.00  0.00    -0.010 C 
ATOM      9  C   UNL     1      -1.440  -8.445   1.615  0.00  0.00    -0.082 C 
ATOM     10  N   UNL     1      -0.623  -9.454   0.929  0.00  0.00    +0.379 N 
ATOM     11  C   UNL     1      -0.238  -8.966  -0.401  0.00  0.00    -0.082 C 
ATOM     12  C   UNL     1       0.646  -7.725  -0.255  0.00  0.00    -0.010 C 
ATOM     13  H   UNL     1       0.207  -9.638   1.472  0.00  0.00    -0.086 HD
ATOM     14  H   UNL     1      -1.155 -10.306   0.832  0.00  0.00    -0.086 HD
ENDROOT
BRANCH   1  19
ATOM     15  C   UNL     1      -1.277  -0.408  -0.333  0.00  0.00    +0.121 A 
ATOM     16  C   UNL     1      -2.127   0.273   0.529  0.00  0.00    +0.047 A 
ATOM     17  C   UNL     1      -3.088  -0.414   1.246  0.00  0.00    +0.019 A 
ATOM     18  C   UNL     1      -3.210  -1.783   1.109  0.00  0.00    +0.030 A 
ATOM     19  C   UNL     1      -2.360  -2.476   0.245  0.00  0.00    +0.054 A 
ATOM     20  C   UNL     1      -1.394  -1.780  -0.482  0.00  0.00    +0.059 A 
ATOM     21 BR   UNL     1      -4.527  -2.719   2.093  0.00  0.00    -0.050 Br
BRANCH  15  23
ATOM     22  C   UNL     1      -0.269   1.686  -0.833  0.00  0.00    +0.277 C 
ATOM     23  O   UNL     1      -0.333   0.273  -1.035  0.00  0.00    -0.495 OA
ENDBRANCH  15  23
ENDBRANCH   1  19
BRANCH   5  24
ATOM     24  C   UNL     1       2.130  -5.629   0.110  0.00  0.00    +0.218 C 
ATOM     25  O   UNL     1       2.313  -5.417  -1.070  0.00  0.00    -0.275 OA
ATOM     26  N   UNL     1       3.146  -6.062   0.883  0.00  0.00    -0.312 N 
ATOM     27  H   UNL     1       3.000  -6.231   1.827  0.00  0.00    +0.149 HD
BRANCH  26  28
ATOM     28  C   UNL     1       4.472  -6.277   0.297  0.00  0.00    +0.073 C 
ATOM     29  C   UNL     1       4.537  -7.676  -0.318  0.00  0.00    +0.023 C 
ATOM     30  C   UNL     1       5.921  -7.901  -0.930  0.00  0.00    +0.016 C 
ATOM     31  C   UNL     1       6.987  -7.772   0.160  0.00  0.00    +0.102 C 
ATOM     32  C   UNL     1       6.922  -6.373   0.775  0.00  0.00    +0.016 C 
ATOM     33  C   UNL     1       5.538  -6.149   1.387  0.00  0.00    +0.023 C 
BRANCH  31  34
ATOM     34  C   UNL     1       8.351  -7.994  -0.443  0.00  0.00    +0.359 C 
ATOM     35  O   UNL     1       9.325  -7.437   0.034  0.00  0.00    -0.246 OA
ATOM     36  O   UNL     1       8.479  -8.729  -1.407  0.00  0.00    -0.246 OA
ENDBRANCH  31  34
ENDBRANCH  26  28
ENDBRANCH   5  24
TORSDOF 5
