REMARK  Name = ZINC20495130
REMARK  7 active torsions:
REMARK  status: ('A' for Active; 'I' for Inactive)
REMARK    1  A    between atoms: C_5  and  C_7
REMARK    2  A    between atoms: C_7  and  O_8
REMARK    3  A    between atoms: O_8  and  C_9
REMARK    4  A    between atoms: C_12  and  C_15
REMARK    5  A    between atoms: C_18  and  C_29
REMARK    6  A    between atoms: C_24  and  N_28
REMARK    7  A    between atoms: C_25  and  C_26
REMARK                            x       y       z     vdW  Elec       q    Type
REMARK                         _______ _______ _______ _____ _____    ______ ____
ROOT
ATOM      1  C   UNL     1      -0.734  -8.397  -0.028  0.00  0.00    +0.102 C 
ATOM      2  C   UNL     1      -1.643  -8.729  -1.183  0.00  0.00    +0.054 A 
ATOM      3  C   UNL     1      -1.379  -8.693  -2.555  0.00  0.00    +0.100 A 
ATOM      4  N   UNL     1      -2.475  -9.065  -3.189  0.00  0.00    -0.171 NA
ATOM      5  N   UNL     1      -3.464  -9.348  -2.234  0.00  0.00    -0.246 N 
ATOM      6  H   UNL     1      -4.369  -9.644  -2.421  0.00  0.00    +0.192 HD
ATOM      7  C   UNL     1      -2.934  -9.137  -1.011  0.00  0.00    +0.223 A 
ATOM      8  O   UNL     1      -3.501  -9.279   0.213  0.00  0.00    -0.423 OA
ATOM      9  C   UNL     1      -2.683  -9.272   1.285  0.00  0.00    +0.200 C 
ATOM     10  C   UNL     1      -1.389  -8.878   1.242  0.00  0.00    +0.098 C 
ENDROOT
BRANCH   3  11
ATOM     11  C   UNL     1      -0.094  -8.304  -3.188  0.00  0.00    +0.003 A 
ATOM     12  C   UNL     1      -0.090  -7.488  -4.317  0.00  0.00    +0.011 A 
ATOM     13  C   UNL     1       1.107  -7.128  -4.901  0.00  0.00    +0.020 A 
ATOM     14  C   UNL     1       2.303  -7.577  -4.367  0.00  0.00    +0.041 A 
ATOM     15  C   UNL     1       2.304  -8.388  -3.245  0.00  0.00    +0.020 A 
ATOM     16  C   UNL     1       1.112  -8.748  -2.650  0.00  0.00    +0.011 A 
ATOM     17 CL   UNL     1       3.806  -7.122  -5.107  0.00  0.00    -0.084 Cl
ENDBRANCH   3  11
BRANCH   1  21
ATOM     18  C   UNL     1      -0.139  -4.170   0.168  0.00  0.00    +0.121 A 
ATOM     19  C   UNL     1       0.952  -5.022   0.074  0.00  0.00    +0.046 A 
ATOM     20  C   UNL     1       0.757  -6.388   0.011  0.00  0.00    +0.008 A 
ATOM     21  C   UNL     1      -0.524  -6.906   0.041  0.00  0.00    -0.034 A 
ATOM     22  C   UNL     1      -1.613  -6.060   0.134  0.00  0.00    +0.008 A 
ATOM     23  C   UNL     1      -1.423  -4.693   0.203  0.00  0.00    +0.046 A 
BRANCH  18  24
ATOM     24  O   UNL     1       0.051  -2.826   0.230  0.00  0.00    -0.487 OA
BRANCH  24  25
ATOM     25  C   UNL     1       1.400  -2.358   0.189  0.00  0.00    +0.266 C 
BRANCH  25  30
ATOM     26  C   UNL     1       0.235   1.225   0.436  0.00  0.00    +0.000 A 
ATOM     27  C   UNL     1       1.436   1.909   0.414  0.00  0.00    +0.001 A 
ATOM     28  C   UNL     1       2.626   1.213   0.318  0.00  0.00    +0.020 A 
ATOM     29  C   UNL     1       2.615  -0.169   0.245  0.00  0.00    +0.047 A 
ATOM     30  C   UNL     1       1.413  -0.853   0.268  0.00  0.00    +0.008 A 
ATOM     31  C   UNL     1       0.223  -0.156   0.363  0.00  0.00    +0.008 A 
ATOM     32 CL   UNL     1       4.110  -1.044   0.125  0.00  0.00    -0.083 Cl
ENDBRANCH  25  30
ENDBRANCH  24  25
ENDBRANCH  18  24
ENDBRANCH   1  21
BRANCH   9  33
ATOM     33  N   UNL     1      -3.192  -9.690   2.489  0.00  0.00    -0.328 N 
ATOM     34  H   UNL     1      -4.116  -9.978   2.552  0.00  0.00    +0.145 HD
ATOM     35  H   UNL     1      -2.627  -9.696   3.278  0.00  0.00    +0.145 HD
ENDBRANCH   9  33
BRANCH  10  36
ATOM     36  C   UNL     1      -0.615  -8.919   2.446  0.00  0.00    +0.101 C 
ATOM     37  N   UNL     1       0.000  -8.952   3.400  0.00  0.00    -0.191 NA
ENDBRANCH  10  36
TORSDOF 7
