REMARK  Name = ZINC01021460
REMARK  8 active torsions:
REMARK  status: ('A' for Active; 'I' for Inactive)
REMARK    1  A    between atoms: C_1  and  C_2
REMARK    2  A    between atoms: C_5  and  O_9
REMARK    3  A    between atoms: O_9  and  C_10
REMARK    4  A    between atoms: C_10  and  C_11
REMARK    5  A    between atoms: N_13  and  N_14
REMARK    6  A    between atoms: C_15  and  C_16
REMARK    7  A    between atoms: C_15  and  C_17
REMARK    8  A    between atoms: C_22  and  O_23
REMARK                            x       y       z     vdW  Elec       q    Type
REMARK                         _______ _______ _______ _____ _____    ______ ____
ROOT
ATOM      1  C   UNL     1       1.160  -6.259  -0.038  0.00  0.00    +0.270 C 
ATOM      2  O   UNL     1       0.045  -6.737  -0.035  0.00  0.00    -0.270 OA
ATOM      3  N   UNL     1       2.239  -7.066  -0.048  0.00  0.00    -0.204 N 
ATOM      4  H   UNL     1       3.131  -6.684  -0.051  0.00  0.00    +0.177 HD
ENDROOT
BRANCH   3   5
ATOM      5  N   UNL     1       2.074  -8.457  -0.055  0.00  0.00    -0.184 NA
ATOM      6  C   UNL     1       3.113  -9.235  -0.064  0.00  0.00    +0.067 C 
ATOM      7  C   UNL     1       4.498  -8.641  -0.068  0.00  0.00    +0.068 C 
BRANCH   6   8
ATOM      8  C   UNL     1       2.939 -10.698  -0.071  0.00  0.00    +0.039 A 
ATOM      9  C   UNL     1       4.055 -11.538  -0.076  0.00  0.00    +0.013 A 
ATOM     10  C   UNL     1       3.885 -12.907  -0.082  0.00  0.00    +0.001 A 
ATOM     11  C   UNL     1       2.612 -13.452  -0.084  0.00  0.00    +0.004 A 
ATOM     12  C   UNL     1       1.500 -12.632  -0.080  0.00  0.00    +0.046 A 
ATOM     13  C   UNL     1       1.653 -11.255  -0.068  0.00  0.00    +0.126 A 
BRANCH  13  14
ATOM     14  O   UNL     1       0.560 -10.448  -0.058  0.00  0.00    -0.506 OA
ATOM     15  H   UNL     1       0.240 -10.210  -0.939  0.00  0.00    +0.292 HD
ENDBRANCH  13  14
ENDBRANCH   6   8
ENDBRANCH   3   5
BRANCH   1  16
ATOM     16  C   UNL     1       1.338  -4.763  -0.031  0.00  0.00    +0.326 C 
BRANCH  16  17
ATOM     17  O   UNL     1       0.057  -4.130  -0.021  0.00  0.00    -0.480 OA
BRANCH  17  22
ATOM     18  C   UNL     1      -0.018   1.503   0.010  0.00  0.00    +0.044 C 
ATOM     19  C   UNL     1       0.002  -0.004   0.002  0.00  0.00    -0.048 A 
ATOM     20  C   UNL     1       0.006  -0.688  -1.200  0.00  0.00    +0.022 A 
ATOM     21  C   UNL     1       0.024  -2.070  -1.210  0.00  0.00    +0.061 A 
ATOM     22  C   UNL     1       0.039  -2.771  -0.013  0.00  0.00    +0.149 A 
ATOM     23  C   UNL     1       0.036  -2.083   1.192  0.00  0.00    +0.061 A 
ATOM     24  C   UNL     1       0.023  -0.700   1.196  0.00  0.00    +0.022 A 
ATOM     25 BR   UNL     1       0.057  -3.034   2.826  0.00  0.00    -0.046 Br
ATOM     26 BR   UNL     1       0.028  -3.003  -2.855  0.00  0.00    -0.046 Br
ENDBRANCH  17  22
ENDBRANCH  16  17
ENDBRANCH   1  16
TORSDOF 6
