REMARK  Name = ZINC05016184
REMARK  6 active torsions:
REMARK  status: ('A' for Active; 'I' for Inactive)
REMARK    1  A    between atoms: C_1  and  C_2
REMARK    2  A    between atoms: C_2  and  C_3
REMARK    3  A    between atoms: C_3  and  N_4
REMARK    4  A    between atoms: C_10  and  S_11
REMARK    5  A    between atoms: S_11  and  C_12
REMARK    6  A    between atoms: C_12  and  C_13
REMARK                            x       y       z     vdW  Elec       q    Type
REMARK                         _______ _______ _______ _____ _____    ______ ____
ROOT
ATOM      1  C   UNL     1       5.285  -3.337  -1.433  0.00  0.00    +0.234 C 
ATOM      2  O   UNL     1       5.520  -2.178  -1.699  0.00  0.00    -0.274 OA
ATOM      3  N   UNL     1       6.141  -4.305  -1.817  0.00  0.00    -0.237 N 
ATOM      4  C   UNL     1       7.357  -3.942  -2.408  0.00  0.00    +0.055 A 
ATOM      5  C   UNL     1       7.419  -2.862  -3.275  0.00  0.00    +0.025 A 
ATOM      6  C   UNL     1       8.624  -2.510  -3.856  0.00  0.00    +0.002 A 
ATOM      7  C   UNL     1       9.772  -3.229  -3.580  0.00  0.00    +0.001 A 
ATOM      8  C   UNL     1       9.722  -4.310  -2.715  0.00  0.00    +0.017 A 
ATOM      9  C   UNL     1       8.520  -4.666  -2.132  0.00  0.00    +0.035 A 
ATOM     10  S   UNL     1       8.424  -6.039  -1.026  0.00  0.00    -0.086 S 
ATOM     11  C   UNL     1       6.757  -6.580  -1.240  0.00  0.00    +0.035 A 
ATOM     12  C   UNL     1       5.791  -5.645  -1.609  0.00  0.00    +0.055 A 
ATOM     13  C   UNL     1       4.479  -6.060  -1.774  0.00  0.00    +0.025 A 
ATOM     14  C   UNL     1       4.142  -7.386  -1.569  0.00  0.00    +0.002 A 
ATOM     15  C   UNL     1       5.106  -8.305  -1.200  0.00  0.00    +0.001 A 
ATOM     16  C   UNL     1       6.413  -7.905  -1.041  0.00  0.00    +0.017 A 
ENDROOT
BRANCH   1  17
ATOM     17  C   UNL     1       4.035  -3.696  -0.671  0.00  0.00    +0.174 C 
BRANCH  17  18
ATOM     18  S   UNL     1       3.374  -2.215   0.140  0.00  0.00    -0.077 S 
BRANCH  18  25
ATOM     19  N   UNL     1       1.087  -2.022   1.741  0.00  0.00    -0.271 N 
ATOM     20  C   UNL     1       0.102  -2.814   2.209  0.00  0.00    +0.345 A 
ATOM     21  O   UNL     1      -0.826  -2.465   2.917  0.00  0.00    -0.245 OA
ATOM     22  N   UNL     1       0.330  -4.062   1.751  0.00  0.00    -0.226 N 
ATOM     23  H   UNL     1      -0.215  -4.846   1.924  0.00  0.00    +0.194 HD
ATOM     24  N   UNL     1       1.498  -4.018   0.978  0.00  0.00    -0.145 NA
ATOM     25  C   UNL     1       1.935  -2.792   0.977  0.00  0.00    +0.192 A 
BRANCH  19  26
ATOM     26  C   UNL     1       1.229  -0.587   1.997  0.00  0.00    +0.129 C 
BRANCH  26  28
ATOM     27  C   UNL     1       0.632   1.699   1.184  0.00  0.00    +0.005 C 
ATOM     28  C   UNL     1       0.484   0.200   0.917  0.00  0.00    +0.018 C 
ENDBRANCH  26  28
ENDBRANCH  19  26
ENDBRANCH  18  25
ENDBRANCH  17  18
ENDBRANCH   1  17
TORSDOF 5
