REMARK  Name = ZINC24272258
REMARK  13 active torsions:
REMARK  status: ('A' for Active; 'I' for Inactive)
REMARK    1  A    between atoms: C_1  and  C_2
REMARK    2  A    between atoms: C_4  and  C_36
REMARK    3  A    between atoms: C_6  and  O_8
REMARK    4  A    between atoms: O_8  and  C_9
REMARK    5  A    between atoms: C_9  and  C_10
REMARK    6  A    between atoms: C_13  and  S_16
REMARK    7  A    between atoms: N_14  and  N_15
REMARK    8  A    between atoms: S_16  and  C_17
REMARK    9  A    between atoms: C_17  and  C_18
REMARK   10  A    between atoms: N_20  and  C_21
REMARK   11  A    between atoms: C_21  and  C_23
REMARK   12  A    between atoms: C_21  and  C_30
REMARK   13  A    between atoms: C_23  and  C_24
REMARK                            x       y       z     vdW  Elec       q    Type
REMARK                         _______ _______ _______ _____ _____    ______ ____
ROOT
ATOM      1  S   UNL     1       0.002  -0.004   0.002  0.00  0.00    -0.075 S 
ENDROOT
BRANCH   1   5
ATOM      2  C   UNL     1      -0.663   3.840   0.029  0.00  0.00    +0.189 A 
ATOM      3  N   UNL     1       0.639   3.779   0.016  0.00  0.00    -0.128 NA
ATOM      4  N   UNL     1       1.023   2.553   0.006  0.00  0.00    -0.121 NA
ATOM      5  C   UNL     1      -0.022   1.758   0.012  0.00  0.00    +0.209 A 
ATOM      6  N   UNL     1      -1.131   2.555   0.021  0.00  0.00    -0.225 N 
BRANCH   6   7
ATOM      7  N   UNL     1      -2.436   2.152   0.023  0.00  0.00    -0.295 N 
ATOM      8  H   UNL     1      -2.680   1.079   0.016  0.00  0.00    +0.163 HD
ATOM      9  H   UNL     1      -3.242   2.900   0.033  0.00  0.00    +0.163 HD
ENDBRANCH   6   7
BRANCH   2  10
ATOM     10  C   UNL     1      -1.498   5.094   0.044  0.00  0.00    +0.306 C 
BRANCH  10  11
ATOM     11  O   UNL     1      -1.775   5.498  -1.299  0.00  0.00    -0.484 OA
BRANCH  11  17
ATOM     12  C   UNL     1      -4.240   9.218   0.676  0.00  0.00    +0.044 C 
ATOM     13  C   UNL     1      -3.742   8.459  -0.526  0.00  0.00    -0.047 A 
ATOM     14  C   UNL     1      -4.047   8.905  -1.799  0.00  0.00    +0.007 A 
ATOM     15  C   UNL     1      -3.591   8.211  -2.905  0.00  0.00    -0.047 A 
ATOM     16  C   UNL     1      -2.830   7.070  -2.740  0.00  0.00    +0.049 A 
ATOM     17  C   UNL     1      -2.523   6.620  -1.464  0.00  0.00    +0.122 A 
ATOM     18  C   UNL     1      -2.987   7.315  -0.356  0.00  0.00    +0.049 A 
ATOM     19  C   UNL     1      -3.923   8.700  -4.291  0.00  0.00    +0.044 C 
ENDBRANCH  11  17
ENDBRANCH  10  11
ENDBRANCH   2  10
ENDBRANCH   1   5
BRANCH   1  20
ATOM     20  C   UNL     1       1.789  -0.294  -0.016  0.00  0.00    +0.173 C 
BRANCH  20  21
ATOM     21  C   UNL     1       2.057  -1.777  -0.026  0.00  0.00    +0.224 C 
ATOM     22  O   UNL     1       1.131  -2.561  -0.022  0.00  0.00    -0.275 OA
ATOM     23  N   UNL     1       3.325  -2.232  -0.040  0.00  0.00    -0.307 N 
ATOM     24  H   UNL     1       4.165  -1.522  -0.044  0.00  0.00    +0.149 HD
BRANCH  23  25
ATOM     25  C   UNL     1       3.586  -3.674  -0.050  0.00  0.00    +0.107 C 
BRANCH  25  26
ATOM     26  C   UNL     1       3.540  -4.183  -1.468  0.00  0.00    -0.027 A 
ATOM     27  C   UNL     1       4.085  -3.429  -2.491  0.00  0.00    +0.005 A 
ATOM     28  C   UNL     1       4.048  -3.898  -3.791  0.00  0.00    +0.000 A 
ATOM     29  C   UNL     1       3.456  -5.116  -4.069  0.00  0.00    +0.000 A 
ATOM     30  C   UNL     1       2.907  -5.867  -3.047  0.00  0.00    +0.000 A 
ATOM     31  C   UNL     1       2.949  -5.401  -1.747  0.00  0.00    +0.005 A 
ENDBRANCH  25  26
BRANCH  25  32
ATOM     32  C   UNL     1       4.968  -3.946   0.545  0.00  0.00    +0.062 C 
BRANCH  32  33
ATOM     33  C   UNL     1       4.976  -3.550   1.999  0.00  0.00    -0.045 A 
ATOM     34  C   UNL     1       5.333  -2.265   2.363  0.00  0.00    +0.004 A 
ATOM     35  C   UNL     1       5.336  -1.900   3.697  0.00  0.00    +0.000 A 
ATOM     36  C   UNL     1       4.991  -2.823   4.667  0.00  0.00    +0.000 A 
ATOM     37  C   UNL     1       4.639  -4.110   4.303  0.00  0.00    +0.000 A 
ATOM     38  C   UNL     1       4.631  -4.473   2.969  0.00  0.00    +0.004 A 
ENDBRANCH  32  33
ENDBRANCH  25  32
ENDBRANCH  23  25
ENDBRANCH  20  21
ENDBRANCH   1  20
TORSDOF 11
