REMARK  Name = ZINC64713313
REMARK  8 active torsions:
REMARK  status: ('A' for Active; 'I' for Inactive)
REMARK    1  A    between atoms: C_1  and  C_2
REMARK    2  A    between atoms: C_4  and  S_9
REMARK    3  A    between atoms: C_5  and  C_8
REMARK    4  A    between atoms: S_9  and  N_12
REMARK    5  A    between atoms: N_12  and  C_13
REMARK    6  A    between atoms: C_13  and  C_14
REMARK    7  A    between atoms: C_14  and  C_16
REMARK    8  A    between atoms: C_14  and  C_21
REMARK                            x       y       z     vdW  Elec       q    Type
REMARK                         _______ _______ _______ _____ _____    ______ ____
ROOT
ATOM      1  C   UNL     1       2.239   3.101  -3.955  0.00  0.00    +0.069 C 
ENDROOT
BRANCH   1   2
ATOM      2  C   UNL     1       3.663   3.580  -3.846  0.00  0.00    -0.032 C 
ATOM      3  C   UNL     1       4.095   4.721  -3.261  0.00  0.00    -0.000 A 
ATOM      4  C   UNL     1       3.394   5.816  -2.580  0.00  0.00    +0.010 A 
ATOM      5  C   UNL     1       4.114   6.849  -2.087  0.00  0.00    +0.001 A 
ATOM      6  C   UNL     1       5.509   6.901  -2.211  0.00  0.00    +0.002 A 
ATOM      7  C   UNL     1       6.223   5.933  -2.823  0.00  0.00    +0.026 A 
ATOM      8  C   UNL     1       5.569   4.799  -3.378  0.00  0.00    +0.043 A 
ATOM      9  N   UNL     1       6.030   3.747  -4.011  0.00  0.00    -0.380 N 
ATOM     10  C   UNL     1       4.901   2.879  -4.361  0.00  0.00    +0.145 C 
ATOM     11  H   UNL     1       6.963   3.571  -4.210  0.00  0.00    +0.160 HD
ENDBRANCH   1   2
BRANCH   1  12
ATOM     12  C   UNL     1       1.871   2.947  -5.409  0.00  0.00    -0.002 A 
ATOM     13  C   UNL     1       0.894   3.571  -6.112  0.00  0.00    +0.012 A 
ATOM     14  C   UNL     1       0.738   3.270  -7.452  0.00  0.00    +0.008 A 
ATOM     15  C   UNL     1       1.566   2.362  -8.024  0.00  0.00    +0.045 A 
ATOM     16  S   UNL     1       2.613   1.904  -6.652  0.00  0.00    -0.101 S 
ENDBRANCH   1  12
BRANCH   1  17
ATOM     17  C   UNL     1       2.099   1.751  -3.249  0.00  0.00    +0.119 C 
BRANCH  17  18
ATOM     18  N   UNL     1       0.692   1.342  -3.251  0.00  0.00    -0.189 NA
ATOM     19  H   UNL     1      -0.001   1.988  -3.461  0.00  0.00    +0.148 HD
BRANCH  18  20
ATOM     20  S   UNL     1       0.284  -0.224  -2.897  0.00  0.00    +0.059 S 
ATOM     21  O   UNL     1       1.123  -1.052  -3.691  0.00  0.00    -0.153 OA
ATOM     22  O   UNL     1      -1.134  -0.297  -2.954  0.00  0.00    -0.153 OA
BRANCH  20  25
ATOM     23  C   UNL     1      -0.019   1.526   0.010  0.00  0.00    +0.047 C 
ATOM     24  C   UNL     1       0.002  -0.004   0.002  0.00  0.00    +0.196 C 
ATOM     25  C   UNL     1       0.735  -0.512  -1.218  0.00  0.00    +0.134 C 
ATOM     26  C   UNL     1       1.772  -1.208  -0.801  0.00  0.00    +0.061 C 
ATOM     27  N   UNL     1       1.832  -1.235   0.581  0.00  0.00    -0.268 N 
ATOM     28  O   UNL     1       0.748  -0.498   1.124  0.00  0.00    -0.265 OA
ATOM     29  C   UNL     1       2.763  -1.888  -1.710  0.00  0.00    +0.067 C 
ATOM     30  H   UNL     1       2.513  -1.690   1.100  0.00  0.00    +0.194 HD
ENDBRANCH  20  25
ENDBRANCH  18  20
ENDBRANCH  17  18
ENDBRANCH   1  17
TORSDOF 6
