REMARK  Name = ZINC39674672
REMARK  7 active torsions:
REMARK  status: ('A' for Active; 'I' for Inactive)
REMARK    1  A    between atoms: C_1  and  C_2
REMARK    2  A    between atoms: C_4  and  C_14
REMARK    3  A    between atoms: C_7  and  C_12
REMARK    4  A    between atoms: C_14  and  C_15
REMARK    5  A    between atoms: C_15  and  N_16
REMARK    6  A    between atoms: C_17  and  C_19
REMARK    7  A    between atoms: C_30  and  C_32
REMARK                            x       y       z     vdW  Elec       q    Type
REMARK                         _______ _______ _______ _____ _____    ______ ____
ROOT
ATOM      1  C   UNL     1      -7.133  -0.798  -1.786  0.00  0.00    +0.100 C 
ATOM      2  C   UNL     1      -7.603   0.632  -2.135  0.00  0.00    +0.121 C 
ATOM      3  N   UNL     1      -9.054   0.494  -2.403  0.00  0.00    -0.296 N 
ATOM      4  C   UNL     1      -9.527  -0.474  -1.386  0.00  0.00    +0.115 C 
ATOM      5  C   UNL     1      -8.399  -1.521  -1.294  0.00  0.00    -0.004 C 
ATOM      6  C   UNL     1      -8.219  -1.977   0.151  0.00  0.00    -0.010 C 
ATOM      7  C   UNL     1      -9.467  -2.743   0.599  0.00  0.00    -0.082 C 
ATOM      8  N   UNL     1      -9.673  -3.902  -0.279  0.00  0.00    +0.379 N 
ATOM      9  C   UNL     1      -9.938  -3.450  -1.651  0.00  0.00    -0.082 C 
ATOM     10  C   UNL     1      -8.710  -2.713  -2.193  0.00  0.00    -0.010 C 
ATOM     11  C   UNL     1      -9.779   1.110  -3.358  0.00  0.00    +0.247 C 
ATOM     12  O   UNL     1      -9.224   1.783  -4.204  0.00  0.00    -0.270 OA
ATOM     13  H   UNL     1      -8.846  -4.480  -0.271  0.00  0.00    -0.086 HD
ATOM     14  H   UNL     1     -10.460  -4.439   0.054  0.00  0.00    -0.086 HD
ENDROOT
BRANCH  11  15
ATOM     15  C   UNL     1     -11.251   0.968  -3.375  0.00  0.00    +0.042 A 
ATOM     16  C   UNL     1     -11.931   0.586  -2.219  0.00  0.00    +0.051 A 
ATOM     17  C   UNL     1     -13.307   0.454  -2.241  0.00  0.00    +0.127 A 
ATOM     18  C   UNL     1     -14.010   0.700  -3.408  0.00  0.00    +0.076 A 
ATOM     19  C   UNL     1     -13.340   1.080  -4.560  0.00  0.00    +0.127 A 
ATOM     20  C   UNL     1     -11.965   1.220  -4.547  0.00  0.00    +0.051 A 
ATOM     21  F   UNL     1     -14.032   1.319  -5.695  0.00  0.00    -0.205 F 
ATOM     22  F   UNL     1     -13.967   0.084  -1.121  0.00  0.00    -0.205 F 
ENDBRANCH  11  15
BRANCH   1  24
ATOM     23  N   UNL     1      -5.140  -1.708  -0.638  0.00  0.00    -0.315 N 
ATOM     24  C   UNL     1      -6.095  -0.758  -0.695  0.00  0.00    +0.218 C 
ATOM     25  O   UNL     1      -6.117   0.129   0.132  0.00  0.00    -0.275 OA
ATOM     26  H   UNL     1      -5.122  -2.417  -1.299  0.00  0.00    +0.149 HD
BRANCH  23  27
ATOM     27  C   UNL     1      -4.130  -1.669   0.423  0.00  0.00    +0.108 C 
BRANCH  27  28
ATOM     28  C   UNL     1      -3.173  -2.851   0.259  0.00  0.00    +0.052 C 
BRANCH  28  31
ATOM     29  C   UNL     1      -0.073  -3.792   0.346  0.00  0.00    +0.035 C 
ATOM     30  C   UNL     1      -1.000  -3.788   1.562  0.00  0.00    +0.103 C 
ATOM     31  C   UNL     1      -2.134  -2.811   1.350  0.00  0.00    -0.037 C 
ATOM     32  C   UNL     1      -2.026  -1.890   2.341  0.00  0.00    +0.000 A 
ATOM     33  C   UNL     1      -2.801  -0.742   2.656  0.00  0.00    +0.028 A 
ATOM     34  C   UNL     1      -2.469   0.039   3.738  0.00  0.00    +0.052 A 
ATOM     35  C   UNL     1      -1.326  -0.286   4.585  0.00  0.00    +0.021 A 
ATOM     36  C   UNL     1      -0.555  -1.364   4.335  0.00  0.00    +0.027 A 
ATOM     37  C   UNL     1      -0.864  -2.230   3.192  0.00  0.00    +0.043 A 
ATOM     38  N   UNL     1      -0.277  -3.317   2.748  0.00  0.00    -0.378 N 
ATOM     39  H   UNL     1       0.505  -3.737   3.138  0.00  0.00    +0.160 HD
BRANCH  34  40
ATOM     40  C   UNL     1      -3.261   1.193   4.041  0.00  0.00    +0.099 C 
ATOM     41  N   UNL     1      -3.889   2.108   4.281  0.00  0.00    -0.191 NA
ENDBRANCH  34  40
ENDBRANCH  28  31
ENDBRANCH  27  28
ENDBRANCH  23  27
ENDBRANCH   1  24
TORSDOF 6
