REMARK  Name = ZINC39654094
REMARK  10 active torsions:
REMARK  status: ('A' for Active; 'I' for Inactive)
REMARK    1  A    between atoms: C_1  and  C_2
REMARK    2  A    between atoms: C_2  and  O_3
REMARK    3  A    between atoms: O_3  and  C_4
REMARK    4  A    between atoms: C_7  and  C_10
REMARK    5  A    between atoms: C_10  and  C_11
REMARK    6  A    between atoms: C_11  and  N_12
REMARK    7  A    between atoms: C_13  and  C_15
REMARK    8  A    between atoms: C_26  and  C_28
REMARK    9  A    between atoms: C_29  and  C_34
REMARK   10  A    between atoms: C_32  and  C_33
REMARK                            x       y       z     vdW  Elec       q    Type
REMARK                         _______ _______ _______ _____ _____    ______ ____
ROOT
ATOM      1  C   UNL     1      -0.834 -10.175  -3.638  0.00  0.00    +0.100 C 
ATOM      2  C   UNL     1      -0.726 -10.876  -2.265  0.00  0.00    +0.121 C 
ATOM      3  N   UNL     1      -2.115 -11.275  -1.939  0.00  0.00    -0.296 N 
ATOM      4  C   UNL     1      -2.682 -11.729  -3.232  0.00  0.00    +0.115 C 
ATOM      5  C   UNL     1      -2.116 -10.741  -4.271  0.00  0.00    -0.004 C 
ATOM      6  C   UNL     1      -1.788 -11.470  -5.570  0.00  0.00    -0.010 C 
ATOM      7  C   UNL     1      -3.085 -11.973  -6.210  0.00  0.00    -0.082 C 
ATOM      8  N   UNL     1      -3.974 -10.835  -6.476  0.00  0.00    +0.379 N 
ATOM      9  C   UNL     1      -4.360 -10.196  -5.212  0.00  0.00    -0.082 C 
ATOM     10  C   UNL     1      -3.117  -9.618  -4.529  0.00  0.00    -0.010 C 
ATOM     11  C   UNL     1      -2.725 -11.236  -0.738  0.00  0.00    +0.252 C 
ATOM     12  O   UNL     1      -3.880 -11.602  -0.631  0.00  0.00    -0.270 OA
ATOM     13  H   UNL     1      -3.496 -10.165  -7.058  0.00  0.00    -0.086 HD
ATOM     14  H   UNL     1      -4.801 -11.162  -6.952  0.00  0.00    -0.086 HD
ENDROOT
BRANCH  11  15
ATOM     15  C   UNL     1      -1.994 -10.749   0.445  0.00  0.00    +0.101 A 
ATOM     16  C   UNL     1      -1.933  -9.368   0.926  0.00  0.00    +0.093 A 
ATOM     17  N   UNL     1      -1.187  -9.366   1.991  0.00  0.00    -0.083 NA
ATOM     18  O   UNL     1      -0.748 -10.686   2.240  0.00  0.00    -0.359 OA
ATOM     19  C   UNL     1      -1.247 -11.500   1.306  0.00  0.00    +0.147 A 
ATOM     20  C   UNL     1      -1.021 -12.988   1.217  0.00  0.00    +0.090 C 
ATOM     21  C   UNL     1      -2.608  -8.173   0.304  0.00  0.00    +0.070 C 
ENDBRANCH  11  15
BRANCH   1  23
ATOM     22  N   UNL     1      -0.558  -7.853  -4.444  0.00  0.00    -0.315 N 
ATOM     23  C   UNL     1      -0.951  -8.684  -3.458  0.00  0.00    +0.218 C 
ATOM     24  O   UNL     1      -1.399  -8.231  -2.426  0.00  0.00    -0.275 OA
ATOM     25  H   UNL     1      -0.199  -8.215  -5.269  0.00  0.00    +0.149 HD
BRANCH  22  26
ATOM     26  C   UNL     1      -0.672  -6.403  -4.269  0.00  0.00    +0.109 C 
BRANCH  26  27
ATOM     27  C   UNL     1      -0.161  -5.695  -5.526  0.00  0.00    +0.054 C 
BRANCH  27  31
ATOM     28  C   UNL     1      -0.493  -1.466  -5.015  0.00  0.00    +0.121 A 
ATOM     29  C   UNL     1       0.667  -2.123  -4.631  0.00  0.00    +0.046 A 
ATOM     30  C   UNL     1       0.771  -3.490  -4.797  0.00  0.00    +0.007 A 
ATOM     31  C   UNL     1      -0.278  -4.204  -5.345  0.00  0.00    -0.046 A 
ATOM     32  C   UNL     1      -1.435  -3.551  -5.729  0.00  0.00    +0.007 A 
ATOM     33  C   UNL     1      -1.547  -2.185  -5.560  0.00  0.00    +0.046 A 
BRANCH  28  34
ATOM     34  O   UNL     1      -0.599  -0.120  -4.853  0.00  0.00    -0.492 OA
BRANCH  34  36
ATOM     35  C   UNL     1       0.222   2.051  -4.181  0.00  0.00    +0.048 C 
ATOM     36  C   UNL     1       0.525   0.555  -4.286  0.00  0.00    +0.225 C 
ENDBRANCH  34  36
ENDBRANCH  28  34
ENDBRANCH  27  31
ENDBRANCH  26  27
ENDBRANCH  22  26
ENDBRANCH   1  23
TORSDOF 7
