REMARK  Name = ZINC38486706
REMARK  7 active torsions:
REMARK  status: ('A' for Active; 'I' for Inactive)
REMARK    1  A    between atoms: C_1  and  C_2
REMARK    2  A    between atoms: C_2  and  O_3
REMARK    3  A    between atoms: O_3  and  C_4
REMARK    4  A    between atoms: C_7  and  C_10
REMARK    5  A    between atoms: C_13  and  C_15
REMARK    6  A    between atoms: C_16  and  N_27
REMARK    7  A    between atoms: N_17  and  C_20
REMARK                            x       y       z     vdW  Elec       q    Type
REMARK                         _______ _______ _______ _____ _____    ______ ____
ROOT
ATOM      1  C   UNL     1       0.222  -9.233  -0.189  0.00  0.00    +0.159 A 
ATOM      2  C   UNL     1       0.364 -10.595  -0.391  0.00  0.00    +0.150 A 
ATOM      3  N   UNL     1      -0.280 -11.205   0.645  0.00  0.00    -0.197 N 
ATOM      4  N   UNL     1      -0.798 -10.184   1.453  0.00  0.00    -0.058 NA
ATOM      5  N   UNL     1      -0.482  -9.047   0.940  0.00  0.00    -0.125 NA
ENDROOT
BRANCH   3   6
ATOM      6  C   UNL     1      -0.399 -12.586   0.861  0.00  0.00    +0.083 A 
ATOM      7  C   UNL     1       0.722 -13.402   0.784  0.00  0.00    +0.029 A 
ATOM      8  C   UNL     1       0.601 -14.761   0.996  0.00  0.00    +0.002 A 
ATOM      9  C   UNL     1      -0.634 -15.310   1.286  0.00  0.00    +0.001 A 
ATOM     10  C   UNL     1      -1.753 -14.501   1.363  0.00  0.00    +0.017 A 
ATOM     11  C   UNL     1      -1.638 -13.139   1.157  0.00  0.00    +0.043 A 
ATOM     12 BR   UNL     1      -3.167 -12.032   1.271  0.00  0.00    -0.048 Br
ENDBRANCH   3   6
BRANCH   1  16
ATOM     13  C   UNL     1       1.211  -6.037  -1.815  0.00  0.00    +0.079 A 
ATOM     14  C   UNL     1       1.882  -6.560  -2.887  0.00  0.00    +0.075 A 
ATOM     15  S   UNL     1       1.698  -8.311  -2.572  0.00  0.00    -0.073 S 
ATOM     16  C   UNL     1       0.756  -8.168  -1.060  0.00  0.00    +0.132 A 
ATOM     17  N   UNL     1       0.670  -6.853  -0.926  0.00  0.00    -0.237 NA
BRANCH  13  21
ATOM     18  C   UNL     1       0.886  -1.823  -1.335  0.00  0.00    +0.121 A 
ATOM     19  C   UNL     1       0.314  -2.673  -0.399  0.00  0.00    +0.046 A 
ATOM     20  C   UNL     1       0.418  -4.040  -0.551  0.00  0.00    +0.013 A 
ATOM     21  C   UNL     1       1.097  -4.568  -1.648  0.00  0.00    +0.001 A 
ATOM     22  C   UNL     1       1.671  -3.712  -2.587  0.00  0.00    +0.013 A 
ATOM     23  C   UNL     1       1.559  -2.346  -2.431  0.00  0.00    +0.046 A 
BRANCH  18  24
ATOM     24  O   UNL     1       0.783  -0.477  -1.181  0.00  0.00    -0.492 OA
BRANCH  24  26
ATOM     25  C   UNL     1       0.065   1.523  -0.029  0.00  0.00    +0.048 C 
ATOM     26  C   UNL     1       0.077  -0.007  -0.031  0.00  0.00    +0.225 C 
ENDBRANCH  24  26
ENDBRANCH  18  24
ENDBRANCH  13  21
ENDBRANCH   1  16
BRANCH   2  27
ATOM     27  N   UNL     1       1.028 -11.215  -1.438  0.00  0.00    -0.341 N 
ATOM     28  H   UNL     1       1.384 -10.685  -2.169  0.00  0.00    +0.144 HD
ATOM     29  H   UNL     1       1.136 -12.179  -1.441  0.00  0.00    +0.144 HD
ENDBRANCH   2  27
TORSDOF 6
