REMARK  Name = ZINC20203028
REMARK  5 active torsions:
REMARK  status: ('A' for Active; 'I' for Inactive)
REMARK    1  A    between atoms: C_3  and  C_17
REMARK    2  A    between atoms: C_6  and  C_7
REMARK    3  A    between atoms: C_7  and  N_8
REMARK    4  A    between atoms: C_12  and  C_14
REMARK    5  A    between atoms: C_23  and  C_25
REMARK                            x       y       z     vdW  Elec       q    Type
REMARK                         _______ _______ _______ _____ _____    ______ ____
ROOT
ATOM      1  C   UNL     1       5.931   2.357  -0.042  0.00  0.00    +0.002 A 
ATOM      2  C   UNL     1       4.777   1.602  -0.035  0.00  0.00    +0.012 A 
ATOM      3  C   UNL     1       3.532   2.235  -0.020  0.00  0.00    +0.017 A 
ATOM      4  C   UNL     1       3.465   3.629  -0.017  0.00  0.00    +0.012 A 
ATOM      5  C   UNL     1       4.627   4.372  -0.019  0.00  0.00    +0.002 A 
ATOM      6  C   UNL     1       5.857   3.739  -0.034  0.00  0.00    -0.064 A 
ENDROOT
BRANCH   3   7
ATOM      7  C   UNL     1       2.292   1.432  -0.012  0.00  0.00    +0.141 A 
ATOM      8  N   UNL     1       2.375   0.072  -0.020  0.00  0.00    -0.307 N 
ATOM      9  H   UNL     1       3.359  -0.419  -0.032  0.00  0.00    +0.170 HD
ATOM     10  C   UNL     1       1.245  -0.668  -0.013  0.00  0.00    +0.252 A 
ATOM     11  O   UNL     1       1.299  -1.886  -0.021  0.00  0.00    -0.268 OA
ATOM     12  C   UNL     1       0.002  -0.004   0.002  0.00  0.00    +0.093 A 
ATOM     13  C   UNL     1      -0.016   1.360   0.009  0.00  0.00    +0.052 A 
ATOM     14  N   UNL     1       1.126   2.044   0.002  0.00  0.00    -0.234 NA
BRANCH  13  15
ATOM     15  C   UNL     1      -1.333   2.094   0.020  0.00  0.00    +0.042 C 
ATOM     16  C   UNL     1      -1.432   2.984  -1.223  0.00  0.00    +0.038 C 
ATOM     17  C   UNL     1      -2.735   3.786  -1.163  0.00  0.00    +0.160 C 
ATOM     18  O   UNL     1      -2.767   4.555   0.041  0.00  0.00    -0.380 OA
ATOM     19  C   UNL     1      -2.725   3.771   1.235  0.00  0.00    +0.160 C 
ATOM     20  C   UNL     1      -1.421   2.970   1.273  0.00  0.00    +0.038 C 
ENDBRANCH  13  15
ENDBRANCH   3   7
BRANCH   6  21
ATOM     21  C   UNL     1       7.123   4.558  -0.043  0.00  0.00    -0.042 C 
BRANCH  21  22
ATOM     22  N   UNL     1       7.520   4.830  -1.430  0.00  0.00    +0.390 N 
ATOM     23  C   UNL     1       6.581   5.775  -2.074  0.00  0.00    -0.077 C 
ATOM     24  C   UNL     1       6.482   5.372  -3.557  0.00  0.00    -0.020 C 
ATOM     25  C   UNL     1       7.392   4.131  -3.701  0.00  0.00    -0.008 C 
ATOM     26  C   UNL     1       7.475   3.593  -2.250  0.00  0.00    +0.019 C 
ATOM     27  H   UNL     1       8.536   5.247  -1.374  0.00  0.00    -0.080 HD
BRANCH  26  28
ATOM     28  C   UNL     1       8.729   2.780  -2.055  0.00  0.00    +0.197 C 
ATOM     29  O   UNL     1       9.597   3.175  -1.306  0.00  0.00    -0.278 OA
ATOM     30  N   UNL     1       8.885   1.614  -2.714  0.00  0.00    -0.331 N 
ATOM     31  H   UNL     1       9.801   1.021  -2.571  0.00  0.00    +0.145 HD
ATOM     32  H   UNL     1       8.098   1.256  -3.393  0.00  0.00    +0.145 HD
ENDBRANCH  26  28
ENDBRANCH  21  22
ENDBRANCH   6  21
TORSDOF 5
