REMARK  Name = ZINC62929890
REMARK  11 active torsions:
REMARK  status: ('A' for Active; 'I' for Inactive)
REMARK    1  A    between atoms: C_1  and  C_2
REMARK    2  A    between atoms: C_6  and  C_8
REMARK    3  A    between atoms: C_8  and  C_9
REMARK    4  A    between atoms: C_8  and  C_10
REMARK    5  A    between atoms: C_8  and  C_11
REMARK    6  A    between atoms: C_11  and  N_12
REMARK    7  A    between atoms: C_13  and  C_15
REMARK    8  A    between atoms: C_15  and  C_16
REMARK    9  A    between atoms: C_16  and  C_17
REMARK   10  A    between atoms: C_16  and  N_24
REMARK   11  A    between atoms: C_22  and  C_23
REMARK                            x       y       z     vdW  Elec       q    Type
REMARK                         _______ _______ _______ _____ _____    ______ ____
ROOT
ATOM      1  C   UNL     1       0.336  -7.208   4.758  0.00  0.00    +0.123 C 
ENDROOT
BRANCH   1   3
ATOM      2  N   UNL     1       0.552  -5.110   3.467  0.00  0.00    -0.314 N 
ATOM      3  C   UNL     1       0.399  -6.449   3.458  0.00  0.00    +0.215 C 
ATOM      4  O   UNL     1       0.313  -7.043   2.404  0.00  0.00    -0.276 OA
ATOM      5  H   UNL     1       0.621  -4.635   4.309  0.00  0.00    +0.149 HD
BRANCH   2   6
ATOM      6  C   UNL     1       0.613  -4.372   2.203  0.00  0.00    +0.115 C 
BRANCH   6   7
ATOM      7  C   UNL     1       0.788  -2.879   2.491  0.00  0.00    +0.006 C 
ATOM      8  C   UNL     1       2.084  -2.660   3.274  0.00  0.00    +0.017 C 
ATOM      9  C   UNL     1      -0.398  -2.378   3.318  0.00  0.00    +0.017 C 
BRANCH   7  15
ATOM     10  C   UNL     1       1.232   1.448   0.017  0.00  0.00    +0.044 C 
ATOM     11  C   UNL     1       1.063  -0.050   0.007  0.00  0.00    -0.050 A 
ATOM     12  C   UNL     1       0.966  -0.727  -1.194  0.00  0.00    +0.003 A 
ATOM     13  C   UNL     1       0.810  -2.100  -1.203  0.00  0.00    +0.001 A 
ATOM     14  C   UNL     1       0.753  -2.797  -0.010  0.00  0.00    +0.004 A 
ATOM     15  C   UNL     1       0.851  -2.120   1.191  0.00  0.00    -0.040 A 
ATOM     16  C   UNL     1       1.010  -0.747   1.200  0.00  0.00    +0.007 A 
ENDBRANCH   7  15
ENDBRANCH   6   7
ENDBRANCH   2   6
ENDBRANCH   1   3
BRANCH   1  17
ATOM     17  C   UNL     1       0.162  -8.700   4.470  0.00  0.00    +0.114 C 
BRANCH  17  18
ATOM     18  C   UNL     1      -0.025  -9.445   5.767  0.00  0.00    -0.024 A 
ATOM     19  C   UNL     1       0.267  -8.824   6.968  0.00  0.00    +0.006 A 
ATOM     20  C   UNL     1       0.096  -9.507   8.157  0.00  0.00    +0.000 A 
ATOM     21  C   UNL     1      -0.367 -10.810   8.146  0.00  0.00    +0.000 A 
ATOM     22  C   UNL     1      -0.659 -11.430   6.946  0.00  0.00    +0.004 A 
ATOM     23  C   UNL     1      -0.492 -10.745   5.756  0.00  0.00    -0.045 A 
ATOM     24  C   UNL     1      -0.815 -11.419   4.448  0.00  0.00    +0.044 C 
ENDBRANCH  17  18
BRANCH  17  25
ATOM     25  N   UNL     1       1.352  -9.207   3.782  0.00  0.00    -0.292 N 
ATOM     26  C   UNL     1       2.548  -9.187   4.403  0.00  0.00    +0.298 C 
ATOM     27  O   UNL     1       2.625  -8.834   5.564  0.00  0.00    -0.253 OA
ATOM     28  N   UNL     1       3.659  -9.557   3.736  0.00  0.00    -0.313 N 
ATOM     29  H   UNL     1       1.279  -9.558   2.881  0.00  0.00    +0.151 HD
ATOM     30  H   UNL     1       3.598  -9.839   2.810  0.00  0.00    +0.146 HD
ATOM     31  H   UNL     1       4.520  -9.542   4.182  0.00  0.00    +0.146 HD
ENDBRANCH  17  25
ENDBRANCH   1  17
TORSDOF 7
