REMARK  Name = ZINC52550532
REMARK  15 active torsions:
REMARK  status: ('A' for Active; 'I' for Inactive)
REMARK    1  A    between atoms: C_1  and  C_2
REMARK    2  A    between atoms: C_2  and  C_3
REMARK    3  A    between atoms: C_3  and  N_4
REMARK    4  A    between atoms: N_7  and  S_10
REMARK    5  A    between atoms: S_10  and  C_13
REMARK    6  A    between atoms: C_15  and  C_26
REMARK    7  A    between atoms: C_16  and  O_19
REMARK    8  A    between atoms: O_19  and  C_20
REMARK    9  A    between atoms: C_20  and  C_22
REMARK   10  A    between atoms: C_20  and  C_23
REMARK   11  A    between atoms: C_23  and  O_24
REMARK   12  A    between atoms: O_24  and  C_25
REMARK   13  A    between atoms: N_32  and  C_39
REMARK   14  A    between atoms: C_33  and  C_37
REMARK   15  A    between atoms: C_37  and  C_38
REMARK                            x       y       z     vdW  Elec       q    Type
REMARK                         _______ _______ _______ _____ _____    ______ ____
ROOT
ATOM      1  C   UNL     1      -3.098  -4.838   2.846  0.00  0.00    +0.124 A 
ATOM      2  C   UNL     1      -2.555  -4.564   4.089  0.00  0.00    +0.046 A 
ATOM      3  C   UNL     1      -3.377  -3.985   5.061  0.00  0.00    +0.080 A 
ATOM      4  C   UNL     1      -4.713  -3.705   4.737  0.00  0.00    +0.226 A 
ATOM      5  N   UNL     1      -5.183  -3.987   3.534  0.00  0.00    -0.219 NA
ATOM      6  C   UNL     1      -4.423  -4.528   2.600  0.00  0.00    +0.143 A 
ENDROOT
BRANCH   3   7
ATOM      7  C   UNL     1      -2.848  -3.672   6.405  0.00  0.00    +0.158 C 
ATOM      8  N   UNL     1      -3.662  -3.130   7.294  0.00  0.00    -0.155 NA
ATOM      9  C   UNL     1      -3.236  -2.826   8.528  0.00  0.00    +0.291 C 
ATOM     10  O   UNL     1      -3.987  -2.325   9.350  0.00  0.00    -0.266 OA
ATOM     11  C   UNL     1      -1.827  -3.119   8.857  0.00  0.00    +0.168 C 
ATOM     12  N   UNL     1      -1.096  -2.957   9.939  0.00  0.00    -0.177 NA
ATOM     13  N   UNL     1       0.122  -3.348   9.827  0.00  0.00    -0.249 N 
ATOM     14  C   UNL     1       0.320  -3.876   8.465  0.00  0.00    +0.143 C 
ATOM     15  C   UNL     1      -1.039  -3.701   7.832  0.00  0.00    +0.097 C 
ATOM     16  N   UNL     1      -1.569  -3.957   6.669  0.00  0.00    -0.230 NA
ATOM     17  C   UNL     1       1.142  -3.280  10.876  0.00  0.00    +0.152 C 
BRANCH  14  18
ATOM     18  C   UNL     1       0.715  -5.354   8.509  0.00  0.00    +0.027 C 
ATOM     19  C   UNL     1       1.049  -5.835   7.096  0.00  0.00    +0.006 C 
ENDBRANCH  14  18
ENDBRANCH   3   7
BRANCH   1  20
ATOM     20  S   UNL     1      -2.108  -5.567   1.585  0.00  0.00    +0.062 S 
ATOM     21  O   UNL     1      -3.002  -6.215   0.690  0.00  0.00    -0.153 OA
ATOM     22  O   UNL     1      -1.056  -6.259   2.243  0.00  0.00    -0.153 OA
BRANCH  20  26
ATOM     23  N   UNL     1      -0.723  -1.735  -0.043  0.00  0.00    +0.381 N 
ATOM     24  C   UNL     1      -0.211  -2.263   1.228  0.00  0.00    -0.061 C 
ATOM     25  C   UNL     1      -0.097  -3.788   1.137  0.00  0.00    +0.091 C 
ATOM     26  N   UNL     1      -1.404  -4.331   0.738  0.00  0.00    -0.180 NA
ATOM     27  C   UNL     1      -2.068  -3.744  -0.436  0.00  0.00    +0.091 C 
ATOM     28  C   UNL     1      -2.090  -2.221  -0.272  0.00  0.00    -0.061 C 
ATOM     29  H   UNL     1      -0.127  -2.043  -0.797  0.00  0.00    -0.082 HD
BRANCH  23  30
ATOM     30  C   UNL     1      -0.729  -0.267   0.005  0.00  0.00    -0.079 C 
BRANCH  30  32
ATOM     31  C   UNL     1       0.703   1.774   0.169  0.00  0.00    +0.002 C 
ATOM     32  C   UNL     1       0.709   0.245   0.118  0.00  0.00    -0.022 C 
ENDBRANCH  30  32
ENDBRANCH  23  30
ENDBRANCH  20  26
ENDBRANCH   1  20
BRANCH   4  33
ATOM     33  O   UNL     1      -5.527  -3.144   5.663  0.00  0.00    -0.471 OA
BRANCH  33  34
ATOM     34  C   UNL     1      -6.876  -2.885   5.270  0.00  0.00    +0.198 C 
ATOM     35  C   UNL     1      -7.743  -4.105   5.586  0.00  0.00    +0.054 C 
BRANCH  34  36
ATOM     36  C   UNL     1      -7.406  -1.670   6.034  0.00  0.00    +0.203 C 
BRANCH  36  37
ATOM     37  O   UNL     1      -7.471  -1.977   7.429  0.00  0.00    -0.379 OA
ATOM     38  C   UNL     1      -7.956  -0.903   8.238  0.00  0.00    +0.194 C 
ENDBRANCH  36  37
ENDBRANCH  34  36
ENDBRANCH  33  34
ENDBRANCH   4  33
TORSDOF 10
