REMARK  Name = ZINC39687241
REMARK  8 active torsions:
REMARK  status: ('A' for Active; 'I' for Inactive)
REMARK    1  A    between atoms: C_1  and  C_2
REMARK    2  A    between atoms: C_2  and  C_3
REMARK    3  A    between atoms: C_2  and  C_4
REMARK    4  A    between atoms: C_8  and  C_17
REMARK    5  A    between atoms: N_19  and  C_20
REMARK    6  A    between atoms: C_20  and  C_22
REMARK    7  A    between atoms: C_20  and  C_29
REMARK    8  A    between atoms: C_22  and  C_23
REMARK                            x       y       z     vdW  Elec       q    Type
REMARK                         _______ _______ _______ _____ _____    ______ ____
ROOT
ATOM      1  C   UNL     1      -0.474  -3.522   2.765  0.00  0.00    +0.219 C 
ATOM      2  O   UNL     1      -1.014  -3.370   3.840  0.00  0.00    -0.275 OA
ATOM      3  N   UNL     1       0.871  -3.527   2.681  0.00  0.00    -0.303 N 
ATOM      4  H   UNL     1       1.303  -3.648   1.821  0.00  0.00    +0.149 HD
ENDROOT
BRANCH   1   9
ATOM      5  C   UNL     1       1.316  -4.704  -0.767  0.00  0.00    +0.218 C 
ATOM      6  O   UNL     1       1.980  -4.022  -1.518  0.00  0.00    -0.275 OA
ATOM      7  N   UNL     1       0.129  -4.251  -0.317  0.00  0.00    -0.300 N 
ATOM      8  C   UNL     1      -0.765  -4.884   0.681  0.00  0.00    +0.121 C 
ATOM      9  C   UNL     1      -1.307  -3.706   1.522  0.00  0.00    +0.100 C 
ATOM     10  C   UNL     1      -1.182  -2.479   0.604  0.00  0.00    -0.004 C 
ATOM     11  C   UNL     1      -0.574  -3.005  -0.704  0.00  0.00    +0.115 C 
ATOM     12  C   UNL     1      -0.254  -1.442   1.231  0.00  0.00    -0.010 C 
ATOM     13  C   UNL     1      -0.191  -0.208   0.328  0.00  0.00    -0.082 C 
ATOM     14  N   UNL     1      -1.539   0.349   0.163  0.00  0.00    +0.379 N 
ATOM     15  C   UNL     1      -2.401  -0.620  -0.525  0.00  0.00    -0.082 C 
ATOM     16  C   UNL     1      -2.557  -1.872   0.343  0.00  0.00    -0.010 C 
ATOM     17  H   UNL     1      -1.928   0.559   1.069  0.00  0.00    -0.086 HD
ATOM     18  H   UNL     1      -1.487   1.197  -0.383  0.00  0.00    -0.086 HD
BRANCH   5  20
ATOM     19  C   UNL     1       1.360  -7.116  -1.343  0.00  0.00    +0.017 C 
ATOM     20  C   UNL     1       1.818  -6.059  -0.337  0.00  0.00    +0.069 C 
ATOM     21  C   UNL     1       3.346  -6.040  -0.276  0.00  0.00    +0.017 C 
ENDBRANCH   5  20
ENDBRANCH   1   9
BRANCH   3  22
ATOM     22  C   UNL     1       1.681  -3.348   3.889  0.00  0.00    +0.163 C 
BRANCH  22  23
ATOM     23  C   UNL     1       3.029  -2.788   3.512  0.00  0.00    +0.236 C 
ATOM     24  O   UNL     1       3.487  -3.002   2.410  0.00  0.00    -0.274 OA
ATOM     25  N   UNL     1       3.723  -2.049   4.399  0.00  0.00    -0.300 N 
ATOM     26  C   UNL     1       3.239  -1.882   5.776  0.00  0.00    +0.108 C 
ATOM     27  C   UNL     1       4.355  -2.286   6.744  0.00  0.00    +0.019 C 
ATOM     28  C   UNL     1       5.619  -1.486   6.421  0.00  0.00    +0.003 C 
ATOM     29  C   UNL     1       6.077  -1.805   4.996  0.00  0.00    +0.019 C 
ATOM     30  C   UNL     1       4.983  -1.401   4.010  0.00  0.00    +0.108 C 
ENDBRANCH  22  23
BRANCH  22  31
ATOM     31  C   UNL     1       1.866  -4.699   4.583  0.00  0.00    +0.067 C 
BRANCH  31  32
ATOM     32  C   UNL     1       0.531  -5.201   5.069  0.00  0.00    -0.045 A 
ATOM     33  C   UNL     1       0.086  -4.867   6.334  0.00  0.00    +0.004 A 
ATOM     34  C   UNL     1      -1.139  -5.328   6.779  0.00  0.00    +0.000 A 
ATOM     35  C   UNL     1      -1.919  -6.123   5.959  0.00  0.00    +0.000 A 
ATOM     36  C   UNL     1      -1.473  -6.456   4.694  0.00  0.00    +0.000 A 
ATOM     37  C   UNL     1      -0.250  -5.992   4.247  0.00  0.00    +0.004 A 
ENDBRANCH  31  32
ENDBRANCH  22  31
ENDBRANCH   3  22
TORSDOF 6
