REMARK  Name = ZINC02296243
REMARK  9 active torsions:
REMARK  status: ('A' for Active; 'I' for Inactive)
REMARK    1  A    between atoms: C_1  and  C_2
REMARK    2  A    between atoms: C_6  and  C_9
REMARK    3  A    between atoms: C_7  and  O_8
REMARK    4  A    between atoms: N_10  and  N_11
REMARK    5  A    between atoms: C_12  and  O_14
REMARK    6  A    between atoms: O_14  and  C_15
REMARK    7  A    between atoms: C_15  and  C_16
REMARK    8  A    between atoms: C_15  and  C_17
REMARK    9  A    between atoms: C_15  and  C_18
REMARK                            x       y       z     vdW  Elec       q    Type
REMARK                         _______ _______ _______ _____ _____    ______ ____
ROOT
ATOM      1  C   UNL     1       1.172   3.562   0.010  0.00  0.00    +0.142 C 
ATOM      2  N   UNL     1       2.290   4.220   0.003  0.00  0.00    -0.185 NA
ENDROOT
BRANCH   1   8
ATOM      3  C   UNL     1       3.709  -0.743  -0.036  0.00  0.00    +0.047 C 
ATOM      4  C   UNL     1       2.403   0.009  -0.020  0.00  0.00    -0.007 A 
ATOM      5  C   UNL     1       1.207  -0.685  -0.013  0.00  0.00    +0.021 A 
ATOM      6  C   UNL     1       0.002  -0.004   0.002  0.00  0.00    +0.014 A 
ATOM      7  C   UNL     1      -0.017   1.376   0.010  0.00  0.00    +0.027 A 
ATOM      8  C   UNL     1       1.184   2.088   0.002  0.00  0.00    +0.037 A 
ATOM      9  C   UNL     1       2.402   1.394  -0.014  0.00  0.00    +0.128 A 
ATOM     10  I   UNL     1      -1.800  -1.072   0.013  0.00  0.00    -0.044 I 
BRANCH   9  11
ATOM     11  O   UNL     1       3.576   2.076  -0.022  0.00  0.00    -0.506 OA
ATOM     12  H   UNL     1       3.907   2.278  -0.908  0.00  0.00    +0.292 HD
ENDBRANCH   9  11
ENDBRANCH   1   8
BRANCH   2  13
ATOM     13  N   UNL     1       2.278   5.621   0.011  0.00  0.00    -0.172 N 
ATOM     14  C   UNL     1       3.440   6.305   0.003  0.00  0.00    +0.420 C 
ATOM     15  O   UNL     1       3.429   7.520   0.010  0.00  0.00    -0.225 OA
ATOM     16  H   UNL     1       1.434   6.099   0.021  0.00  0.00    +0.181 HD
BRANCH  14  17
ATOM     17  O   UNL     1       4.612   5.641  -0.012  0.00  0.00    -0.444 OA
BRANCH  17  18
ATOM     18  C   UNL     1       5.823   6.443  -0.019  0.00  0.00    +0.107 C 
ATOM     19  C   UNL     1       5.862   7.319   1.235  0.00  0.00    +0.055 C 
ATOM     20  C   UNL     1       7.044   5.521  -0.035  0.00  0.00    +0.055 C 
ATOM     21  C   UNL     1       5.838   7.332  -1.264  0.00  0.00    +0.055 C 
ENDBRANCH  17  18
ENDBRANCH  14  17
ENDBRANCH   2  13
TORSDOF 5
