REMARK  Name = ZINC35745828
REMARK  13 active torsions:
REMARK  status: ('A' for Active; 'I' for Inactive)
REMARK    1  A    between atoms: C_1  and  C_2
REMARK    2  A    between atoms: C_7  and  C_8
REMARK    3  A    between atoms: C_17  and  C_19
REMARK    4  A    between atoms: C_19  and  N_20
REMARK    5  A    between atoms: N_20  and  C_21
REMARK    6  A    between atoms: N_20  and  C_30
REMARK    7  A    between atoms: C_21  and  C_22
REMARK    8  A    between atoms: C_22  and  C_24
REMARK    9  A    between atoms: C_22  and  O_29
REMARK   10  A    between atoms: C_24  and  O_25
REMARK   11  A    between atoms: O_25  and  C_26
REMARK   12  A    between atoms: C_26  and  C_27
REMARK   13  A    between atoms: C_26  and  C_28
REMARK                            x       y       z     vdW  Elec       q    Type
REMARK                         _______ _______ _______ _____ _____    ______ ____
ROOT
ATOM      1  C   UNL     1       0.394   3.277   0.924  0.00  0.00    +0.004 A 
ATOM      2  C   UNL     1       1.519   3.757   1.507  0.00  0.00    +0.056 A 
ATOM      3  S   UNL     1       0.971   4.228   3.137  0.00  0.00    -0.076 S 
ATOM      4  C   UNL     1      -0.739   3.774   2.999  0.00  0.00    +0.116 A 
ATOM      5  C   UNL     1      -0.846   3.273   1.691  0.00  0.00    +0.080 A 
ATOM      6  C   UNL     1      -2.150   2.829   1.302  0.00  0.00    +0.260 A 
ATOM      7  O   UNL     1      -2.342   2.374   0.188  0.00  0.00    -0.267 OA
ATOM      8  N   UNL     1      -3.161   2.920   2.186  0.00  0.00    -0.312 N 
ATOM      9  H   UNL     1      -4.047   2.621   1.929  0.00  0.00    +0.170 HD
ATOM     10  C   UNL     1      -2.965   3.423   3.432  0.00  0.00    +0.094 A 
ATOM     11  N   UNL     1      -1.785   3.829   3.819  0.00  0.00    -0.229 NA
ENDROOT
BRANCH   1  18
ATOM     12  C   UNL     1      -1.099   4.660  -1.132  0.00  0.00    +0.044 C 
ATOM     13  C   UNL     1      -0.294   3.431  -1.467  0.00  0.00    -0.043 A 
ATOM     14  C   UNL     1      -0.260   2.959  -2.764  0.00  0.00    +0.004 A 
ATOM     15  C   UNL     1       0.479   1.831  -3.072  0.00  0.00    +0.000 A 
ATOM     16  C   UNL     1       1.187   1.169  -2.085  0.00  0.00    +0.001 A 
ATOM     17  C   UNL     1       1.159   1.631  -0.785  0.00  0.00    +0.009 A 
ATOM     18  C   UNL     1       0.422   2.772  -0.469  0.00  0.00    -0.014 A 
ENDBRANCH   1  18
BRANCH  10  19
ATOM     19  C   UNL     1      -4.127   3.507   4.388  0.00  0.00    -0.003 C 
BRANCH  19  20
ATOM     20  N   UNL     1      -3.641   3.905   5.716  0.00  0.00    +0.388 N 
ATOM     21  H   UNL     1      -2.884   4.564   5.613  0.00  0.00    -0.081 HD
BRANCH  20  22
ATOM     22  C   UNL     1      -3.163   2.719   6.439  0.00  0.00    -0.068 C 
ATOM     23  C   UNL     1      -4.316   1.728   6.612  0.00  0.00    -0.015 C 
ATOM     24  C   UNL     1      -3.818   0.492   7.365  0.00  0.00    -0.002 C 
ATOM     25  C   UNL     1      -2.692  -0.170   6.569  0.00  0.00    -0.000 C 
ATOM     26  C   UNL     1      -1.538   0.821   6.395  0.00  0.00    -0.002 C 
ATOM     27  C   UNL     1      -2.036   2.056   5.643  0.00  0.00    -0.015 C 
ENDBRANCH  20  22
BRANCH  20  28
ATOM     28  C   UNL     1      -4.735   4.530   6.471  0.00  0.00    -0.044 C 
BRANCH  28  29
ATOM     29  C   UNL     1      -4.204   5.038   7.813  0.00  0.00    +0.124 C 
BRANCH  29  30
ATOM     30  O   UNL     1      -3.160   5.987   7.584  0.00  0.00    -0.391 OA
ATOM     31  H   UNL     1      -3.438   6.761   7.075  0.00  0.00    +0.210 HD
ENDBRANCH  29  30
BRANCH  29  32
ATOM     32  C   UNL     1      -5.339   5.706   8.591  0.00  0.00    +0.189 C 
BRANCH  32  33
ATOM     33  O   UNL     1      -4.873   6.076   9.890  0.00  0.00    -0.375 OA
BRANCH  33  34
ATOM     34  C   UNL     1      -5.862   6.712  10.703  0.00  0.00    +0.112 C 
ATOM     35  C   UNL     1      -6.620   5.653  11.505  0.00  0.00    +0.037 C 
ATOM     36  C   UNL     1      -5.180   7.688  11.664  0.00  0.00    +0.037 C 
ENDBRANCH  33  34
ENDBRANCH  32  33
ENDBRANCH  29  32
ENDBRANCH  28  29
ENDBRANCH  20  28
ENDBRANCH  19  20
ENDBRANCH  10  19
TORSDOF 10
