REMARK  Name = ZINC09726936
REMARK  4 active torsions:
REMARK  status: ('A' for Active; 'I' for Inactive)
REMARK    1  A    between atoms: C_7  and  C_11
REMARK    2  A    between atoms: C_17  and  C_19
REMARK    3  A    between atoms: C_19  and  C_20
REMARK    4  A    between atoms: C_20  and  N_21
REMARK                            x       y       z     vdW  Elec       q    Type
REMARK                         _______ _______ _______ _____ _____    ______ ____
ROOT
ATOM      1  C   UNL     1      -4.875  11.652  -3.349  0.00  0.00    +0.082 A 
ATOM      2  C   UNL     1      -5.179  12.003  -2.063  0.00  0.00    +0.077 A 
ATOM      3  S   UNL     1      -4.167  10.844  -1.155  0.00  0.00    -0.060 S 
ATOM      4  C   UNL     1      -3.455  10.041  -2.519  0.00  0.00    +0.165 A 
ATOM      5  N   UNL     1      -4.010  10.667  -3.537  0.00  0.00    -0.225 NA
ATOM      6  N   UNL     1      -2.538   8.997  -2.534  0.00  0.00    -0.265 N 
ATOM      7  C   UNL     1      -2.082   8.484  -1.374  0.00  0.00    +0.220 C 
ATOM      8  O   UNL     1      -2.473   8.933  -0.317  0.00  0.00    -0.275 OA
ATOM      9  H   UNL     1      -2.225   8.638  -3.379  0.00  0.00    +0.157 HD
ENDROOT
BRANCH   1  16
ATOM     10  C   UNL     1      -4.465  11.168  -7.984  0.00  0.00    +0.001 A 
ATOM     11  C   UNL     1      -5.255  12.066  -8.689  0.00  0.00    +0.002 A 
ATOM     12  C   UNL     1      -6.051  12.973  -8.024  0.00  0.00    +0.026 A 
ATOM     13  C   UNL     1      -6.064  12.992  -6.633  0.00  0.00    +0.047 A 
ATOM     14  C   UNL     1      -5.257  12.084  -5.925  0.00  0.00    +0.009 A 
ATOM     15  C   UNL     1      -4.463  11.171  -6.617  0.00  0.00    +0.010 A 
ATOM     16  C   UNL     1      -5.497  12.354  -4.499  0.00  0.00    +0.026 A 
ATOM     17  C   UNL     1      -6.389  13.371  -4.439  0.00  0.00    +0.093 A 
ATOM     18  N   UNL     1      -6.734  13.758  -5.705  0.00  0.00    -0.360 N 
ATOM     19  H   UNL     1      -7.358  14.469  -5.918  0.00  0.00    +0.165 HD
ENDBRANCH   1  16
BRANCH   7  20
ATOM     20  C   UNL     1      -1.087   7.353  -1.390  0.00  0.00    +0.118 C 
BRANCH  20  21
ATOM     21  C   UNL     1      -0.737   6.961   0.047  0.00  0.00    +0.138 C 
BRANCH  21  22
ATOM     22  N   UNL     1       0.231   5.861   0.031  0.00  0.00    -0.274 N 
ATOM     23  C   UNL     1      -0.069   4.498   0.027  0.00  0.00    +0.090 A 
ATOM     24  C   UNL     1      -1.258   3.786   0.034  0.00  0.00    +0.031 A 
ATOM     25  C   UNL     1      -1.232   2.405   0.021  0.00  0.00    +0.022 A 
ATOM     26  C   UNL     1      -0.021   1.732   0.012  0.00  0.00    +0.045 A 
ATOM     27  C   UNL     1       1.168   2.436   0.004  0.00  0.00    +0.068 A 
ATOM     28  C   UNL     1       1.150   3.822   0.012  0.00  0.00    +0.158 A 
ATOM     29  O   UNL     1       2.130   4.759   0.007  0.00  0.00    -0.407 OA
ATOM     30  C   UNL     1       1.573   5.980   0.019  0.00  0.00    +0.421 A 
ATOM     31  O   UNL     1       2.185   7.031   0.020  0.00  0.00    -0.223 OA
ATOM     32 CL   UNL     1       0.002  -0.004   0.002  0.00  0.00    -0.083 Cl
ENDBRANCH  21  22
ENDBRANCH  20  21
ENDBRANCH   7  20
TORSDOF 4
