REMARK  Name = ZINC49580468
REMARK  7 active torsions:
REMARK  status: ('A' for Active; 'I' for Inactive)
REMARK    1  A    between atoms: C_5  and  O_8
REMARK    2  A    between atoms: O_8  and  C_9
REMARK    3  A    between atoms: C_9  and  C_10
REMARK    4  A    between atoms: C_10  and  C_11
REMARK    5  A    between atoms: C_11  and  C_12
REMARK    6  A    between atoms: C_12  and  C_13
REMARK    7  A    between atoms: N_14  and  O_15
REMARK                            x       y       z     vdW  Elec       q    Type
REMARK                         _______ _______ _______ _____ _____    ______ ____
ROOT
ATOM      1  C   UNL     1       0.944  -2.699   1.293  0.00  0.00    +0.229 C 
ENDROOT
BRANCH   1   2
ATOM      2  O   UNL     1       0.911  -2.028   0.032  0.00  0.00    -0.490 OA
BRANCH   2   7
ATOM      3  C   UNL     1      -0.656   1.257   0.051  0.00  0.00    +0.034 A 
ATOM      4  C   UNL     1       0.460   2.074   0.102  0.00  0.00    +0.020 A 
ATOM      5  C   UNL     1       1.726   1.518   0.129  0.00  0.00    +0.034 A 
ATOM      6  C   UNL     1       1.880   0.144   0.106  0.00  0.00    +0.062 A 
ATOM      7  C   UNL     1       0.762  -0.677   0.055  0.00  0.00    +0.148 A 
ATOM      8  C   UNL     1      -0.507  -0.117   0.028  0.00  0.00    +0.062 A 
ATOM      9 BR   UNL     1      -2.032  -1.232  -0.041  0.00  0.00    -0.046 Br
ATOM     10 BR   UNL     1       3.611  -0.615   0.142  0.00  0.00    -0.046 Br
ATOM     11 BR   UNL     1       0.253   3.954   0.133  0.00  0.00    -0.050 Br
ENDBRANCH   2   7
ENDBRANCH   1   2
BRANCH   1  12
ATOM     12  C   UNL     1       1.116  -4.202   1.067  0.00  0.00    +0.041 C 
BRANCH  12  13
ATOM     13  C   UNL     1       1.151  -4.920   2.418  0.00  0.00    +0.011 C 
BRANCH  13  14
ATOM     14  C   UNL     1       1.323  -6.424   2.191  0.00  0.00    +0.075 C 
BRANCH  14  15
ATOM     15  C   UNL     1       1.472  -7.118   3.521  0.00  0.00    +0.132 C 
ATOM     16  N   UNL     1       0.482  -7.782   4.018  0.00  0.00    -0.077 NA
ATOM     17  N   UNL     1       2.665  -7.044   4.205  0.00  0.00    -0.344 N 
ATOM     18  H   UNL     1       3.409  -6.545   3.832  0.00  0.00    +0.144 HD
ATOM     19  H   UNL     1       2.761  -7.491   5.061  0.00  0.00    +0.144 HD
BRANCH  16  20
ATOM     20  O   UNL     1      -0.705  -7.952   3.265  0.00  0.00    -0.408 OA
ATOM     21  H   UNL     1      -1.389  -8.462   3.720  0.00  0.00    +0.328 HD
ENDBRANCH  16  20
ENDBRANCH  14  15
ENDBRANCH  13  14
ENDBRANCH  12  13
ENDBRANCH   1  12
TORSDOF 7
