REMARK  Name = ZINC36206730
REMARK  17 active torsions:
REMARK  status: ('A' for Active; 'I' for Inactive)
REMARK    1  A    between atoms: C_1  and  C_2
REMARK    2  A    between atoms: C_2  and  C_3
REMARK    3  A    between atoms: C_9  and  C_18
REMARK    4  A    between atoms: C_13  and  C_14
REMARK    5  A    between atoms: C_14  and  O_16
REMARK    6  A    between atoms: O_16  and  C_17
REMARK    7  A    between atoms: C_18  and  N_19
REMARK    8  A    between atoms: N_19  and  C_20
REMARK    9  A    between atoms: N_19  and  C_33
REMARK   10  A    between atoms: C_20  and  C_21
REMARK   11  A    between atoms: C_21  and  C_23
REMARK   12  A    between atoms: C_21  and  O_32
REMARK   13  A    between atoms: C_23  and  O_24
REMARK   14  A    between atoms: O_24  and  C_25
REMARK   15  A    between atoms: C_25  and  C_26
REMARK   16  A    between atoms: C_33  and  C_34
REMARK   17  A    between atoms: C_33  and  C_35
REMARK                            x       y       z     vdW  Elec       q    Type
REMARK                         _______ _______ _______ _____ _____    ______ ____
ROOT
ATOM      1  C   UNL     1      -1.792  -2.007  -6.282  0.00  0.00    -0.003 C 
ENDROOT
BRANCH   1   8
ATOM      2  C   UNL     1      -0.566  -4.028  -1.149  0.00  0.00    -0.012 A 
ATOM      3  C   UNL     1      -1.003  -3.493  -2.363  0.00  0.00    +0.076 A 
ATOM      4  C   UNL     1      -2.311  -2.886  -2.701  0.00  0.00    +0.260 A 
ATOM      5  O   UNL     1      -3.193  -2.797  -1.866  0.00  0.00    -0.267 OA
ATOM      6  N   UNL     1      -2.499  -2.435  -3.957  0.00  0.00    -0.312 N 
ATOM      7  H   UNL     1      -3.350  -2.034  -4.195  0.00  0.00    +0.170 HD
ATOM      8  C   UNL     1      -1.524  -2.529  -4.894  0.00  0.00    +0.094 A 
ATOM      9  N   UNL     1      -0.361  -3.058  -4.629  0.00  0.00    -0.229 NA
ATOM     10  C   UNL     1      -0.071  -3.533  -3.425  0.00  0.00    +0.116 A 
ATOM     11  S   UNL     1       1.350  -4.303  -2.691  0.00  0.00    -0.062 S 
ATOM     12  C   UNL     1       0.695  -4.539  -1.048  0.00  0.00    +0.102 A 
BRANCH   2  14
ATOM     13  C   UNL     1      -1.298  -2.739   0.839  0.00  0.00    +0.009 C 
ATOM     14  C   UNL     1      -1.483  -4.035   0.047  0.00  0.00    +0.034 C 
ENDBRANCH   2  14
BRANCH  12  15
ATOM     15  C   UNL     1       1.348  -5.136   0.120  0.00  0.00    +0.346 C 
ATOM     16  O   UNL     1       0.748  -5.221   1.174  0.00  0.00    -0.244 OA
BRANCH  15  17
ATOM     17  O   UNL     1       2.615  -5.590   0.025  0.00  0.00    -0.464 OA
ATOM     18  C   UNL     1       3.189  -6.160   1.203  0.00  0.00    +0.280 C 
ENDBRANCH  15  17
ENDBRANCH  12  15
ENDBRANCH   1   8
BRANCH   1  19
ATOM     19  N   UNL     1      -0.551  -2.047  -7.068  0.00  0.00    +0.388 N 
ATOM     20  H   UNL     1      -0.014  -2.861  -6.807  0.00  0.00    -0.081 HD
BRANCH  19  21
ATOM     21  C   UNL     1       0.236  -0.836  -6.803  0.00  0.00    -0.074 C 
ATOM     22  C   UNL     1      -0.584   0.398  -7.184  0.00  0.00    -0.014 C 
ATOM     23  C   UNL     1       0.591  -0.773  -5.316  0.00  0.00    -0.014 C 
ENDBRANCH  19  21
BRANCH  19  24
ATOM     24  C   UNL     1      -0.879  -2.115  -8.498  0.00  0.00    -0.044 C 
BRANCH  24  25
ATOM     25  C   UNL     1       0.405  -2.304  -9.308  0.00  0.00    +0.124 C 
BRANCH  25  26
ATOM     26  O   UNL     1       1.021  -3.541  -8.943  0.00  0.00    -0.391 OA
ATOM     27  H   UNL     1       0.467  -4.318  -9.102  0.00  0.00    +0.210 HD
ENDBRANCH  25  26
BRANCH  25  28
ATOM     28  C   UNL     1       0.069  -2.322 -10.801  0.00  0.00    +0.189 C 
BRANCH  28  29
ATOM     29  O   UNL     1       1.278  -2.381 -11.560  0.00  0.00    -0.373 OA
BRANCH  29  30
ATOM     30  C   UNL     1       1.075  -2.402 -12.975  0.00  0.00    +0.195 C 
BRANCH  30  31
ATOM     31  C   UNL     1       2.409  -2.465 -13.672  0.00  0.00    -0.022 A 
ATOM     32  C   UNL     1       3.067  -1.297 -14.012  0.00  0.00    +0.006 A 
ATOM     33  C   UNL     1       4.291  -1.355 -14.652  0.00  0.00    +0.000 A 
ATOM     34  C   UNL     1       4.857  -2.579 -14.953  0.00  0.00    +0.000 A 
ATOM     35  C   UNL     1       4.200  -3.747 -14.612  0.00  0.00    +0.000 A 
ATOM     36  C   UNL     1       2.978  -3.690 -13.968  0.00  0.00    +0.006 A 
ENDBRANCH  30  31
ENDBRANCH  29  30
ENDBRANCH  28  29
ENDBRANCH  25  28
ENDBRANCH  24  25
ENDBRANCH  19  24
ENDBRANCH   1  19
TORSDOF 13
