REMARK  Name = ZINC16213901
REMARK  7 active torsions:
REMARK  status: ('A' for Active; 'I' for Inactive)
REMARK    1  A    between atoms: C_3  and  C_6
REMARK    2  A    between atoms: C_6  and  C_7
REMARK    3  A    between atoms: C_10  and  S_18
REMARK    4  A    between atoms: N_11  and  C_12
REMARK    5  A    between atoms: S_18  and  C_19
REMARK    6  A    between atoms: C_19  and  C_20
REMARK    7  A    between atoms: N_26  and  C_27
REMARK                            x       y       z     vdW  Elec       q    Type
REMARK                         _______ _______ _______ _____ _____    ______ ____
ROOT
ATOM      1  C   UNL     1      -2.543   4.470  -5.804  0.00  0.00    +0.153 C 
ENDROOT
BRANCH   1   2
ATOM      2  C   UNL     1      -2.521   5.229  -7.105  0.00  0.00    +0.146 A 
ATOM      3  N   UNL     1      -3.239   6.331  -7.238  0.00  0.00    -0.199 NA
ATOM      4  C   UNL     1      -3.218   7.007  -8.384  0.00  0.00    +0.217 A 
ATOM      5  N   UNL     1      -2.482   6.568  -9.399  0.00  0.00    -0.181 NA
ATOM      6  C   UNL     1      -1.765   5.458  -9.264  0.00  0.00    +0.224 A 
ATOM      7  N   UNL     1      -1.787   4.790  -8.112  0.00  0.00    -0.198 NA
ATOM      8  N   UNL     1      -0.998   4.997 -10.316  0.00  0.00    -0.284 N 
ATOM      9  N   UNL     1      -3.964   8.160  -8.520  0.00  0.00    -0.327 N 
ATOM     10  H   UNL     1      -0.413   4.233 -10.192  0.00  0.00    +0.155 HD
ATOM     11  H   UNL     1      -3.951   8.650  -9.356  0.00  0.00    +0.145 HD
ATOM     12  H   UNL     1      -4.502   8.480  -7.778  0.00  0.00    +0.145 HD
BRANCH   8  13
ATOM     13  C   UNL     1      -1.064   5.633 -11.561  0.00  0.00    +0.034 A 
ATOM     14  C   UNL     1      -2.259   6.193 -11.993  0.00  0.00    +0.026 A 
ATOM     15  C   UNL     1      -2.320   6.826 -13.219  0.00  0.00    +0.040 A 
ATOM     16  C   UNL     1      -1.194   6.891 -14.023  0.00  0.00    +0.124 A 
ATOM     17  C   UNL     1      -0.003   6.328 -13.596  0.00  0.00    +0.040 A 
ATOM     18  C   UNL     1       0.064   5.700 -12.368  0.00  0.00    +0.026 A 
ATOM     19  F   UNL     1      -1.258   7.505 -15.225  0.00  0.00    -0.205 F 
ENDBRANCH   8  13
ENDBRANCH   1   2
BRANCH   1  20
ATOM     20  S   UNL     1      -1.230   5.088  -4.722  0.00  0.00    -0.078 S 
BRANCH  20  24
ATOM     21  C   UNL     1      -1.310   3.106  -1.363  0.00  0.00    +0.139 A 
ATOM     22  N   UNL     1      -2.289   2.566  -2.032  0.00  0.00    -0.133 NA
ATOM     23  N   UNL     1      -2.394   3.122  -3.186  0.00  0.00    -0.122 NA
ATOM     24  C   UNL     1      -1.480   4.055  -3.317  0.00  0.00    +0.192 A 
ATOM     25  N   UNL     1      -0.762   4.077  -2.155  0.00  0.00    -0.303 N 
BRANCH  25  26
ATOM     26  C   UNL     1       0.363   4.956  -1.827  0.00  0.00    +0.091 C 
ATOM     27  C   UNL     1      -0.097   6.414  -1.881  0.00  0.00    +0.025 C 
ATOM     28  C   UNL     1       1.078   7.332  -1.538  0.00  0.00    +0.002 C 
ATOM     29  C   UNL     1       2.207   7.116  -2.548  0.00  0.00    +0.000 C 
ATOM     30  C   UNL     1       2.666   5.657  -2.494  0.00  0.00    +0.002 C 
ATOM     31  C   UNL     1       1.491   4.739  -2.837  0.00  0.00    +0.025 C 
ENDBRANCH  25  26
BRANCH  21  32
ATOM     32  C   UNL     1      -0.867   2.733   0.028  0.00  0.00    +0.118 C 
BRANCH  32  35
ATOM     33  C   UNL     1       2.299   0.628  -0.210  0.00  0.00    +0.008 A 
ATOM     34  C   UNL     1       1.527   1.772  -0.145  0.00  0.00    +0.011 A 
ATOM     35  C   UNL     1       0.180   1.652  -0.051  0.00  0.00    -0.003 A 
ATOM     36  S   UNL     1      -0.033  -0.121  -0.052  0.00  0.00    -0.101 S 
ATOM     37  C   UNL     1       1.687  -0.581  -0.178  0.00  0.00    +0.045 A 
ENDBRANCH  32  35
ENDBRANCH  21  32
ENDBRANCH  20  24
ENDBRANCH   1  20
TORSDOF 7
