REMARK  Name = ZINC21520347
REMARK  3 active torsions:
REMARK  status: ('A' for Active; 'I' for Inactive)
REMARK    1  A    between atoms: C_1  and  C_2
REMARK    2  A    between atoms: C_7  and  N_12
REMARK    3  A    between atoms: C_9  and  C_11
REMARK                            x       y       z     vdW  Elec       q    Type
REMARK                         _______ _______ _______ _____ _____    ______ ____
ROOT
ATOM      1  N   UNL     1      -0.704   1.998   1.216  0.00  0.00    -0.325 N 
ATOM      2  C   UNL     1      -2.091   2.112   1.228  0.00  0.00    +0.142 A 
ATOM      3  C   UNL     1      -2.831   1.778   0.094  0.00  0.00    +0.048 A 
ATOM      4  C   UNL     1      -4.209   1.909   0.157  0.00  0.00    +0.045 A 
ATOM      5  C   UNL     1      -4.768   2.365   1.344  0.00  0.00    +0.152 A 
ATOM      6  N   UNL     1      -3.990   2.659   2.368  0.00  0.00    -0.136 NA
ATOM      7  N   UNL     1      -2.714   2.534   2.318  0.00  0.00    -0.133 NA
ATOM      8 CL   UNL     1      -6.489   2.549   1.479  0.00  0.00    -0.060 Cl
ATOM      9  H   UNL     1      -0.123   2.263   2.111  0.00  0.00    +0.148 HD
ENDROOT
BRANCH   1  15
ATOM     10  C   UNL     1       3.568   2.091  -1.270  0.00  0.00    +0.008 C 
ATOM     11  C   UNL     1       2.133   1.562  -1.259  0.00  0.00    -0.009 C 
ATOM     12  C   UNL     1       2.154   0.032  -1.268  0.00  0.00    +0.003 C 
ATOM     13  C   UNL     1       0.718  -0.497  -1.257  0.00  0.00    +0.002 C 
ATOM     14  C   UNL     1       0.002  -0.004   0.002  0.00  0.00    +0.022 C 
ATOM     15  C   UNL     1      -0.019   1.526   0.010  0.00  0.00    +0.075 C 
ATOM     16  C   UNL     1       1.417   2.055  -0.000  0.00  0.00    +0.009 C 
ATOM     17  C   UNL     1       1.396   3.585   0.008  0.00  0.00    +0.009 C 
ENDBRANCH   1  15
TORSDOF 1
