REMARK  Name = ZINC14156789
REMARK  9 active torsions:
REMARK  status: ('A' for Active; 'I' for Inactive)
REMARK    1  A    between atoms: C_1  and  C_2
REMARK    2  A    between atoms: C_5  and  N_9
REMARK    3  A    between atoms: C_6  and  C_8
REMARK    4  A    between atoms: N_9  and  C_10
REMARK    5  A    between atoms: C_10  and  N_12
REMARK    6  A    between atoms: N_14  and  C_15
REMARK    7  A    between atoms: C_15  and  C_16
REMARK    8  A    between atoms: C_26  and  C_31
REMARK    9  A    between atoms: C_28  and  C_30
REMARK                            x       y       z     vdW  Elec       q    Type
REMARK                         _______ _______ _______ _____ _____    ______ ____
ROOT
ATOM      1  N   UNL     1       1.729  -1.931   3.145  0.00  0.00    -0.159 NA
ATOM      2  C   UNL     1       1.083  -1.357   2.146  0.00  0.00    +0.196 C 
ATOM      3  N   UNL     1       0.408  -0.188   2.351  0.00  0.00    -0.353 N 
ATOM      4  N   UNL     1       1.090  -1.934   0.904  0.00  0.00    -0.297 N 
ATOM      5  C   UNL     1       1.460  -1.187  -0.206  0.00  0.00    +0.231 A 
ATOM      6  N   UNL     1       1.675   0.113  -0.069  0.00  0.00    -0.217 NA
ATOM      7  C   UNL     1       2.034   0.852  -1.105  0.00  0.00    +0.044 A 
ATOM      8  C   UNL     1       2.173   0.253  -2.347  0.00  0.00    +0.046 A 
ATOM      9  C   UNL     1       1.935  -1.108  -2.456  0.00  0.00    +0.044 A 
ATOM     10  N   UNL     1       1.584  -1.790  -1.379  0.00  0.00    -0.217 NA
ATOM     11  C   UNL     1       2.074  -1.802  -3.787  0.00  0.00    +0.066 C 
ATOM     12  C   UNL     1       2.284   2.329  -0.938  0.00  0.00    +0.066 C 
ATOM     13  H   UNL     1       0.472   0.320   3.325  0.00  0.00    +0.163 HD
ATOM     14  H   UNL     1       0.803  -2.989   0.787  0.00  0.00    +0.171 HD
ENDROOT
BRANCH   1  15
ATOM     15  C   UNL     1       2.323  -3.120   2.965  0.00  0.00    +0.161 C 
ATOM     16  S   UNL     1       3.639  -3.264   1.879  0.00  0.00    -0.016 S 
BRANCH  15  17
ATOM     17  N   UNL     1       1.883  -4.201   3.639  0.00  0.00    -0.295 N 
ATOM     18  H   UNL     1       0.993  -4.125   4.280  0.00  0.00    +0.154 HD
BRANCH  17  23
ATOM     19  C   UNL     1       4.628  -9.143   3.168  0.00  0.00    +0.044 C 
ATOM     20  C   UNL     1       3.898  -7.830   3.293  0.00  0.00    -0.050 A 
ATOM     21  C   UNL     1       3.544  -7.127   2.156  0.00  0.00    +0.005 A 
ATOM     22  C   UNL     1       2.876  -5.924   2.267  0.00  0.00    +0.024 A 
ATOM     23  C   UNL     1       2.560  -5.420   3.523  0.00  0.00    +0.036 A 
ATOM     24  C   UNL     1       2.922  -6.126   4.662  0.00  0.00    -0.029 A 
ATOM     25  C   UNL     1       3.585  -7.332   4.544  0.00  0.00    +0.008 A 
ATOM     26  C   UNL     1       2.587  -5.580   6.026  0.00  0.00    +0.045 C 
ENDBRANCH  17  23
ENDBRANCH  15  17
ENDBRANCH   1  15
BRANCH   3  27
ATOM     27  C   UNL     1      -0.402   0.389   1.275  0.00  0.00    +0.152 C 
BRANCH  27  28
ATOM     28  C   UNL     1      -1.852   0.393   1.685  0.00  0.00    -0.010 A 
ATOM     29  C   UNL     1      -2.706  -0.587   1.214  0.00  0.00    +0.007 A 
ATOM     30  C   UNL     1      -4.036  -0.586   1.593  0.00  0.00    +0.000 A 
ATOM     31  C   UNL     1      -4.514   0.401   2.436  0.00  0.00    +0.001 A 
ATOM     32  C   UNL     1      -3.662   1.384   2.903  0.00  0.00    +0.020 A 
ATOM     33  C   UNL     1      -2.330   1.380   2.527  0.00  0.00    +0.046 A 
ATOM     34 CL   UNL     1      -1.260   2.615   3.113  0.00  0.00    -0.083 Cl
ENDBRANCH  27  28
ENDBRANCH   3  27
TORSDOF 5
