REMARK  Name = ZINC39606835
REMARK  9 active torsions:
REMARK  status: ('A' for Active; 'I' for Inactive)
REMARK    1  A    between atoms: C_1  and  C_2
REMARK    2  A    between atoms: C_9  and  C_14
REMARK    3  A    between atoms: C_14  and  O_16
REMARK    4  A    between atoms: O_16  and  C_17
REMARK    5  A    between atoms: C_17  and  C_19
REMARK    6  A    between atoms: C_17  and  C_20
REMARK    7  A    between atoms: N_22  and  C_23
REMARK    8  A    between atoms: C_28  and  O_29
REMARK    9  A    between atoms: O_29  and  C_30
REMARK                            x       y       z     vdW  Elec       q    Type
REMARK                         _______ _______ _______ _____ _____    ______ ____
ROOT
ATOM      1  O   UNL     1       7.532   0.649   0.933  0.00  0.00    -0.449 OA
ENDROOT
BRANCH   1   2
ATOM      2  C   UNL     1       6.627   0.373  -0.027  0.00  0.00    +0.340 C 
ATOM      3  O   UNL     1       6.969   0.339  -1.192  0.00  0.00    -0.245 OA
BRANCH   2  11
ATOM      4  C   UNL     1      -0.021   1.451  -0.020  0.00  0.00    +0.029 C 
ATOM      5  C   UNL     1       0.009  -0.079  -0.021  0.00  0.00    +0.134 C 
ATOM      6  C   UNL     1       0.725  -0.569  -1.250  0.00  0.00    +0.230 C 
ATOM      7  O   UNL     1       0.060  -0.855  -2.224  0.00  0.00    -0.274 OA
ATOM      8  N   UNL     1       2.045  -0.705  -1.328  0.00  0.00    -0.284 N 
ATOM      9  C   UNL     1       2.965  -0.417  -0.323  0.00  0.00    +0.048 A 
ATOM     10  C   UNL     1       4.286  -0.172  -0.660  0.00  0.00    +0.039 A 
ATOM     11  C   UNL     1       5.223   0.114   0.337  0.00  0.00    +0.061 A 
ATOM     12  C   UNL     1       4.831   0.153   1.679  0.00  0.00    +0.016 A 
ATOM     13  C   UNL     1       3.517  -0.089   2.014  0.00  0.00    +0.017 A 
ATOM     14  C   UNL     1       2.586  -0.371   1.024  0.00  0.00    +0.030 A 
ATOM     15  S   UNL     1       0.895  -0.671   1.452  0.00  0.00    -0.111 S 
ATOM     16  H   UNL     1       2.403  -1.037  -2.167  0.00  0.00    +0.155 HD
ENDBRANCH   2  11
ENDBRANCH   1   2
BRANCH   1  17
ATOM     17  C   UNL     1       8.875   0.890   0.509  0.00  0.00    +0.259 C 
ATOM     18  C   UNL     1       9.061   2.383   0.230  0.00  0.00    +0.062 C 
BRANCH  17  19
ATOM     19  C   UNL     1       9.829   0.459   1.593  0.00  0.00    +0.258 C 
ATOM     20  O   UNL     1       9.401  -0.009   2.626  0.00  0.00    -0.271 OA
ATOM     21  N   UNL     1      11.158   0.594   1.413  0.00  0.00    -0.279 N 
ATOM     22  H   UNL     1      11.503   0.907   0.562  0.00  0.00    +0.155 HD
BRANCH  21  23
ATOM     23  C   UNL     1      12.041   0.280   2.455  0.00  0.00    +0.077 A 
ATOM     24  C   UNL     1      11.749  -0.760   3.325  0.00  0.00    +0.047 A 
ATOM     25  C   UNL     1      12.623  -1.067   4.352  0.00  0.00    +0.043 A 
ATOM     26  C   UNL     1      13.788  -0.339   4.514  0.00  0.00    +0.024 A 
ATOM     27  C   UNL     1      14.084   0.699   3.651  0.00  0.00    +0.049 A 
ATOM     28  C   UNL     1      13.217   1.009   2.616  0.00  0.00    +0.141 A 
ATOM     29 CL   UNL     1      12.256  -2.370   5.440  0.00  0.00    -0.083 Cl
BRANCH  28  30
ATOM     30  O   UNL     1      13.511   2.026   1.762  0.00  0.00    -0.493 OA
ATOM     31  C   UNL     1      14.734   2.730   1.988  0.00  0.00    +0.277 C 
ENDBRANCH  28  30
ENDBRANCH  21  23
ENDBRANCH  17  19
ENDBRANCH   1  17
TORSDOF 6
