REMARK  Name = ZINC01033836
REMARK  4 active torsions:
REMARK  status: ('A' for Active; 'I' for Inactive)
REMARK    1  A    between atoms: C_3  and  N_9
REMARK    2  A    between atoms: C_18  and  C_20
REMARK    3  A    between atoms: C_20  and  C_21
REMARK    4  A    between atoms: N_23  and  C_24
REMARK                            x       y       z     vdW  Elec       q    Type
REMARK                         _______ _______ _______ _____ _____    ______ ____
ROOT
ATOM      1  N   UNL     1       4.551   2.478  -0.521  0.00  0.00    -0.267 N 
ATOM      2  C   UNL     1       4.201   3.776  -0.425  0.00  0.00    +0.307 C 
ATOM      3  O   UNL     1       3.032   4.098  -0.511  0.00  0.00    -0.252 OA
ATOM      4  N   UNL     1       5.147   4.716  -0.233  0.00  0.00    -0.272 N 
ATOM      5  C   UNL     1       6.580   4.377  -0.253  0.00  0.00    +0.129 C 
ATOM      6  C   UNL     1       7.239   5.151  -1.395  0.00  0.00    +0.123 C 
ATOM      7  N   UNL     1       6.824   6.548  -1.380  0.00  0.00    -0.312 N 
ATOM      8  C   UNL     1       5.713   7.001  -0.798  0.00  0.00    +0.234 C 
ATOM      9  O   UNL     1       5.434   8.175  -0.920  0.00  0.00    -0.274 OA
ATOM     10  C   UNL     1       4.791   6.124  -0.003  0.00  0.00    +0.172 C 
ATOM     11  H   UNL     1       5.475   2.213  -0.388  0.00  0.00    +0.156 HD
ATOM     12  H   UNL     1       7.397   7.193  -1.824  0.00  0.00    +0.149 HD
ENDROOT
BRANCH   1  15
ATOM     13  C   UNL     1       1.307   0.752  -0.712  0.00  0.00    +0.040 A 
ATOM     14  C   UNL     1       2.263   1.707  -0.423  0.00  0.00    +0.029 A 
ATOM     15  C   UNL     1       3.580   1.510  -0.813  0.00  0.00    +0.070 A 
ATOM     16  C   UNL     1       3.935   0.350  -1.494  0.00  0.00    +0.147 A 
ATOM     17  C   UNL     1       2.975  -0.602  -1.781  0.00  0.00    +0.078 A 
ATOM     18  C   UNL     1       1.661  -0.402  -1.390  0.00  0.00    +0.126 A 
ATOM     19  F   UNL     1       0.724  -1.334  -1.671  0.00  0.00    -0.205 F 
ATOM     20  F   UNL     1       5.216   0.156  -1.876  0.00  0.00    -0.203 F 
ENDBRANCH   1  15
BRANCH  10  21
ATOM     21  C   UNL     1       3.347   6.366  -0.445  0.00  0.00    +0.128 C 
BRANCH  21  22
ATOM     22  C   UNL     1       2.404   5.862   0.617  0.00  0.00    +0.219 C 
ATOM     23  O   UNL     1       2.845   5.386   1.642  0.00  0.00    -0.275 OA
ATOM     24  N   UNL     1       1.072   5.940   0.428  0.00  0.00    -0.284 N 
ATOM     25  H   UNL     1       0.720   6.247  -0.422  0.00  0.00    +0.155 HD
BRANCH  24  26
ATOM     26  C   UNL     1       0.197   5.579   1.459  0.00  0.00    +0.053 A 
ATOM     27  C   UNL     1       0.615   5.643   2.781  0.00  0.00    +0.044 A 
ATOM     28  C   UNL     1      -0.252   5.286   3.797  0.00  0.00    +0.043 A 
ATOM     29  C   UNL     1      -1.535   4.865   3.497  0.00  0.00    +0.021 A 
ATOM     30  C   UNL     1      -1.955   4.800   2.182  0.00  0.00    +0.023 A 
ATOM     31  C   UNL     1      -1.095   5.161   1.162  0.00  0.00    +0.062 A 
ATOM     32 CL   UNL     1      -1.624   5.085  -0.490  0.00  0.00    -0.082 Cl
ATOM     33 CL   UNL     1       0.271   5.365   5.451  0.00  0.00    -0.083 Cl
ENDBRANCH  24  26
ENDBRANCH  21  22
ENDBRANCH  10  21
TORSDOF 4
