REMARK  Name = ZINC39946067
REMARK  6 active torsions:
REMARK  status: ('A' for Active; 'I' for Inactive)
REMARK    1  A    between atoms: C_4  and  N_7
REMARK    2  A    between atoms: C_8  and  C_10
REMARK    3  A    between atoms: C_10  and  S_11
REMARK    4  A    between atoms: S_11  and  C_12
REMARK    5  A    between atoms: C_16  and  C_24
REMARK    6  A    between atoms: N_17  and  C_18
REMARK                            x       y       z     vdW  Elec       q    Type
REMARK                         _______ _______ _______ _____ _____    ______ ____
ROOT
ATOM      1  C   UNL     1       6.147  -4.715   0.379  0.00  0.00    +0.241 C 
ATOM      2  N   UNL     1       7.055  -4.499   1.517  0.00  0.00    -0.237 N 
ATOM      3  N   UNL     1       8.346  -4.406   0.984  0.00  0.00    -0.169 NA
ATOM      4  C   UNL     1       8.333  -4.537  -0.317  0.00  0.00    +0.151 C 
ATOM      5  N   UNL     1       7.032  -4.734  -0.797  0.00  0.00    -0.254 N 
ATOM      6  H   UNL     1       6.807  -4.433   2.453  0.00  0.00    +0.171 HD
ENDROOT
BRANCH   4   7
ATOM      7  C   UNL     1       9.477  -4.489  -1.128  0.00  0.00    +0.022 C 
ATOM      8  C   UNL     1      10.793  -4.271  -0.719  0.00  0.00    +0.006 A 
ATOM      9  C   UNL     1      11.372  -4.044   0.548  0.00  0.00    +0.010 A 
ATOM     10  C   UNL     1      12.713  -3.860   0.652  0.00  0.00    +0.001 A 
ATOM     11  C   UNL     1      13.545  -3.889  -0.470  0.00  0.00    +0.002 A 
ATOM     12  C   UNL     1      13.056  -4.103  -1.717  0.00  0.00    +0.026 A 
ATOM     13  C   UNL     1      11.665  -4.303  -1.904  0.00  0.00    +0.043 A 
ATOM     14  N   UNL     1      10.955  -4.526  -2.993  0.00  0.00    -0.380 N 
ATOM     15  C   UNL     1       9.542  -4.669  -2.629  0.00  0.00    +0.152 C 
ATOM     16  H   UNL     1      11.312  -4.590  -3.893  0.00  0.00    +0.160 HD
ENDBRANCH   4   7
BRANCH   5  17
ATOM     17  C   UNL     1       6.649  -4.911  -2.129  0.00  0.00    +0.038 A 
ATOM     18  C   UNL     1       6.527  -6.192  -2.653  0.00  0.00    +0.023 A 
ATOM     19  C   UNL     1       6.147  -6.364  -3.970  0.00  0.00    +0.002 A 
ATOM     20  C   UNL     1       5.888  -5.263  -4.766  0.00  0.00    +0.000 A 
ATOM     21  C   UNL     1       6.009  -3.987  -4.247  0.00  0.00    +0.002 A 
ATOM     22  C   UNL     1       6.383  -3.808  -2.930  0.00  0.00    +0.023 A 
ENDBRANCH   5  17
BRANCH   1  23
ATOM     23  S   UNL     1       4.953  -3.354   0.252  0.00  0.00    -0.108 S 
BRANCH  23  24
ATOM     24  C   UNL     1       5.990  -1.872   0.113  0.00  0.00    +0.168 C 
BRANCH  24  26
ATOM     25  N   UNL     1       5.667   0.569  -0.115  0.00  0.00    -0.285 N 
ATOM     26  C   UNL     1       5.111  -0.653  -0.000  0.00  0.00    +0.227 C 
ATOM     27  O   UNL     1       3.904  -0.772   0.011  0.00  0.00    -0.275 OA
ATOM     28  H   UNL     1       6.629   0.660  -0.192  0.00  0.00    +0.155 HD
BRANCH  25  32
ATOM     29  C   UNL     1       3.249   3.962  -0.135  0.00  0.00    +0.000 A 
ATOM     30  C   UNL     1       2.897   2.869   0.636  0.00  0.00    +0.002 A 
ATOM     31  C   UNL     1       3.697   1.743   0.645  0.00  0.00    +0.023 A 
ATOM     32  C   UNL     1       4.854   1.709  -0.122  0.00  0.00    +0.033 A 
ATOM     33  C   UNL     1       5.204   2.808  -0.895  0.00  0.00    +0.023 A 
ATOM     34  C   UNL     1       4.401   3.931  -0.899  0.00  0.00    +0.002 A 
ENDBRANCH  25  32
ENDBRANCH  24  26
ENDBRANCH  23  24
ENDBRANCH   1  23
TORSDOF 6
