REMARK  Name = ZINC12813242
REMARK  6 active torsions:
REMARK  status: ('A' for Active; 'I' for Inactive)
REMARK    1  A    between atoms: C_1  and  C_2
REMARK    2  A    between atoms: C_2  and  C_4
REMARK    3  A    between atoms: C_2  and  S_20
REMARK    4  A    between atoms: N_9  and  C_10
REMARK    5  A    between atoms: S_20  and  C_21
REMARK    6  A    between atoms: N_31  and  C_32
REMARK                            x       y       z     vdW  Elec       q    Type
REMARK                         _______ _______ _______ _____ _____    ______ ____
ROOT
ATOM      1  C   UNL     1       4.867   1.480  -1.342  0.00  0.00    +0.029 C 
ATOM      2  C   UNL     1       5.036   0.694  -0.040  0.00  0.00    +0.137 C 
ENDROOT
BRANCH   2   3
ATOM      3  C   UNL     1       6.455   0.201   0.068  0.00  0.00    +0.233 C 
ATOM      4  O   UNL     1       6.739  -0.918  -0.304  0.00  0.00    -0.274 OA
ATOM      5  N   UNL     1       7.410   1.002   0.580  0.00  0.00    -0.239 N 
ATOM      6  C   UNL     1       8.680   0.561   0.677  0.00  0.00    +0.306 C 
ATOM      7  O   UNL     1       8.964  -0.560   0.303  0.00  0.00    -0.252 OA
ATOM      8  N   UNL     1       9.635   1.363   1.189  0.00  0.00    -0.294 N 
ATOM      9  H   UNL     1       7.184   1.897   0.878  0.00  0.00    +0.159 HD
ATOM     10  H   UNL     1       9.408   2.257   1.487  0.00  0.00    +0.151 HD
BRANCH   8  11
ATOM     11  C   UNL     1      11.015   0.883   1.294  0.00  0.00    +0.037 C 
ATOM     12  C   UNL     1      11.056  -0.358   2.188  0.00  0.00    +0.029 C 
ATOM     13  C   UNL     1      12.498  -0.859   2.298  0.00  0.00    -0.008 C 
ATOM     14  C   UNL     1      13.374   0.237   2.907  0.00  0.00    +0.007 C 
ATOM     15  C   UNL     1      13.332   1.478   2.014  0.00  0.00    -0.008 C 
ATOM     16  C   UNL     1      11.891   1.980   1.903  0.00  0.00    +0.029 C 
ATOM     17  C   UNL     1      13.856   1.122   0.621  0.00  0.00    +0.007 C 
ATOM     18  C   UNL     1      12.980   0.025   0.012  0.00  0.00    -0.008 C 
ATOM     19  C   UNL     1      13.022  -1.216   0.906  0.00  0.00    +0.007 C 
ATOM     20  C   UNL     1      11.539   0.526  -0.098  0.00  0.00    +0.029 C 
ENDBRANCH   8  11
ENDBRANCH   2   3
BRANCH   2  21
ATOM     21  S   UNL     1       3.904  -0.718  -0.037  0.00  0.00    -0.075 S 
BRANCH  21  22
ATOM     22  C   UNL     1       2.358   0.128  -0.019  0.00  0.00    +0.173 A 
ATOM     23  N   UNL     1       2.364   1.438  -0.012  0.00  0.00    -0.223 NA
ATOM     24  C   UNL     1       1.219   2.150   0.002  0.00  0.00    +0.079 A 
ATOM     25  C   UNL     1       1.224   3.548   0.010  0.00  0.00    +0.028 A 
ATOM     26  C   UNL     1       0.040   4.229   0.025  0.00  0.00    +0.002 A 
ATOM     27  C   UNL     1      -1.173   3.552   0.033  0.00  0.00    +0.001 A 
ATOM     28  C   UNL     1      -1.211   2.185   0.031  0.00  0.00    +0.015 A 
ATOM     29  C   UNL     1      -0.018   1.465   0.010  0.00  0.00    +0.065 A 
ATOM     30  C   UNL     1       0.002  -0.004   0.002  0.00  0.00    +0.263 A 
ATOM     31  O   UNL     1      -1.030  -0.650   0.008  0.00  0.00    -0.267 OA
ATOM     32  N   UNL     1       1.211  -0.613  -0.013  0.00  0.00    -0.284 N 
BRANCH  32  33
ATOM     33  C   UNL     1       1.289  -2.075  -0.021  0.00  0.00    +0.093 C 
ATOM     34  C   UNL     1       0.537  -2.638  -1.245  0.00  0.00    +0.025 C 
ATOM     35  C   UNL     1      -0.130  -3.933  -0.718  0.00  0.00    +0.002 C 
ATOM     36  C   UNL     1      -0.560  -3.538   0.717  0.00  0.00    +0.002 C 
ATOM     37  C   UNL     1       0.592  -2.648   1.226  0.00  0.00    +0.025 C 
ENDBRANCH  32  33
ENDBRANCH  21  22
ENDBRANCH   2  21
TORSDOF 5
