REMARK  Name = ZINC36818788
REMARK  8 active torsions:
REMARK  status: ('A' for Active; 'I' for Inactive)
REMARK    1  A    between atoms: C_1  and  C_2
REMARK    2  A    between atoms: C_5  and  C_8
REMARK    3  A    between atoms: C_8  and  C_30
REMARK    4  A    between atoms: N_11  and  C_15
REMARK    5  A    between atoms: C_15  and  C_16
REMARK    6  A    between atoms: N_18  and  C_19
REMARK    7  A    between atoms: C_19  and  C_21
REMARK    8  A    between atoms: C_19  and  C_22
REMARK                            x       y       z     vdW  Elec       q    Type
REMARK                         _______ _______ _______ _____ _____    ______ ____
ROOT
ATOM      1  C   UNL     1      -0.845  -4.455   0.885  0.00  0.00    +0.135 C 
ATOM      2  C   UNL     1       0.101  -5.008   1.932  0.00  0.00    +0.251 C 
ATOM      3  O   UNL     1      -0.072  -5.037   3.132  0.00  0.00    -0.272 OA
ATOM      4  N   UNL     1       1.173  -5.460   1.253  0.00  0.00    -0.215 N 
ATOM      5  C   UNL     1       1.037  -5.272  -0.065  0.00  0.00    +0.310 C 
ATOM      6  O   UNL     1       1.874  -5.599  -0.883  0.00  0.00    -0.252 OA
ATOM      7  N   UNL     1      -0.129  -4.682  -0.382  0.00  0.00    -0.281 N 
ATOM      8  C   UNL     1      -2.172  -5.217   0.897  0.00  0.00    +0.047 C 
ATOM      9  H   UNL     1      -0.438  -4.450  -1.272  0.00  0.00    +0.152 HD
ENDROOT
BRANCH   1  14
ATOM     10  C   UNL     1      -1.746   1.190   1.732  0.00  0.00    +0.044 C 
ATOM     11  C   UNL     1      -1.511  -0.282   1.511  0.00  0.00    -0.050 A 
ATOM     12  C   UNL     1      -1.477  -0.792   0.226  0.00  0.00    +0.004 A 
ATOM     13  C   UNL     1      -1.262  -2.142   0.024  0.00  0.00    +0.006 A 
ATOM     14  C   UNL     1      -1.079  -2.983   1.106  0.00  0.00    -0.015 A 
ATOM     15  C   UNL     1      -1.113  -2.473   2.390  0.00  0.00    +0.006 A 
ATOM     16  C   UNL     1      -1.324  -1.122   2.593  0.00  0.00    +0.004 A 
ENDBRANCH   1  14
BRANCH   4  17
ATOM     17  C   UNL     1       2.343  -6.080   1.880  0.00  0.00    +0.213 C 
BRANCH  17  18
ATOM     18  C   UNL     1       2.131  -7.569   1.976  0.00  0.00    +0.231 C 
ATOM     19  O   UNL     1       1.103  -8.064   1.563  0.00  0.00    -0.274 OA
ATOM     20  N   UNL     1       3.082  -8.352   2.523  0.00  0.00    -0.307 N 
ATOM     21  H   UNL     1       3.904  -7.956   2.854  0.00  0.00    +0.149 HD
BRANCH  20  22
ATOM     22  C   UNL     1       2.876  -9.799   2.617  0.00  0.00    +0.102 C 
ATOM     23  C   UNL     1       3.347 -10.466   1.323  0.00  0.00    +0.033 C 
BRANCH  22  24
ATOM     24  C   UNL     1       3.665 -10.344   3.780  0.00  0.00    -0.009 A 
ATOM     25  C   UNL     1       4.811  -9.696   4.202  0.00  0.00    +0.008 A 
ATOM     26  C   UNL     1       5.534 -10.196   5.268  0.00  0.00    +0.020 A 
ATOM     27  C   UNL     1       5.112 -11.345   5.914  0.00  0.00    +0.042 A 
ATOM     28  C   UNL     1       3.966 -11.993   5.492  0.00  0.00    +0.040 A 
ATOM     29  C   UNL     1       3.239 -11.490   4.428  0.00  0.00    +0.047 A 
ATOM     30 CL   UNL     1       1.796 -12.300   3.901  0.00  0.00    -0.083 Cl
ATOM     31 CL   UNL     1       6.022 -11.972   7.253  0.00  0.00    -0.083 Cl
ENDBRANCH  22  24
ENDBRANCH  20  22
ENDBRANCH  17  18
ENDBRANCH   4  17
TORSDOF 5
