REMARK  Name = ZINC12374609
REMARK  5 active torsions:
REMARK  status: ('A' for Active; 'I' for Inactive)
REMARK    1  A    between atoms: C_3  and  S_22
REMARK    2  A    between atoms: C_6  and  N_7
REMARK    3  A    between atoms: N_7  and  S_8
REMARK    4  A    between atoms: S_8  and  C_11
REMARK    5  A    between atoms: S_22  and  N_25
REMARK                            x       y       z     vdW  Elec       q    Type
REMARK                         _______ _______ _______ _____ _____    ______ ____
ROOT
ATOM      1  C   UNL     1      -1.260   2.048   0.044  0.00  0.00    +0.026 A 
ATOM      2  C   UNL     1      -1.299   3.429   0.031  0.00  0.00    +0.030 A 
ATOM      3  C   UNL     1      -0.125   4.154  -0.049  0.00  0.00    +0.109 A 
ATOM      4  C   UNL     1       1.093   3.501  -0.112  0.00  0.00    +0.030 A 
ATOM      5  C   UNL     1       1.139   2.121  -0.096  0.00  0.00    +0.026 A 
ATOM      6  C   UNL     1      -0.039   1.389  -0.015  0.00  0.00    +0.048 A 
ENDROOT
BRANCH   3   7
ATOM      7  S   UNL     1      -0.180   5.915  -0.070  0.00  0.00    +0.074 S 
ATOM      8  O   UNL     1      -1.402   6.291   0.549  0.00  0.00    -0.150 OA
ATOM      9  O   UNL     1       1.083   6.367   0.400  0.00  0.00    -0.150 OA
BRANCH   7  10
ATOM     10  N   UNL     1      -0.289   6.382  -1.655  0.00  0.00    -0.194 N 
ATOM     11  C   UNL     1      -1.415   6.058  -2.397  0.00  0.00    +0.177 A 
ATOM     12  N   UNL     1      -2.488   5.387  -2.025  0.00  0.00    -0.232 NA
ATOM     13  C   UNL     1      -3.481   5.168  -2.865  0.00  0.00    +0.120 A 
ATOM     14  C   UNL     1      -3.373   5.639  -4.130  0.00  0.00    +0.068 A 
ATOM     15  S   UNL     1      -1.771   6.426  -4.057  0.00  0.00    -0.059 S 
ATOM     16  H   UNL     1       0.434   6.883  -2.065  0.00  0.00    +0.176 HD
ENDBRANCH   7  10
ENDBRANCH   3   7
BRANCH   6  17
ATOM     17  N   UNL     1       0.005  -0.007   0.002  0.00  0.00    -0.216 N 
ATOM     18  H   UNL     1       0.564  -0.482  -0.632  0.00  0.00    +0.174 HD
BRANCH  17  19
ATOM     19  S   UNL     1      -0.898  -0.850   1.105  0.00  0.00    +0.072 S 
ATOM     20  O   UNL     1      -2.231  -0.372   0.989  0.00  0.00    -0.150 OA
ATOM     21  O   UNL     1      -0.563  -2.222   0.940  0.00  0.00    -0.150 OA
BRANCH  19  22
ATOM     22  C   UNL     1      -0.333  -0.383   2.707  0.00  0.00    +0.110 A 
ATOM     23  C   UNL     1       0.756  -1.018   3.279  0.00  0.00    +0.031 A 
ATOM     24  C   UNL     1       1.214  -0.664   4.526  0.00  0.00    +0.029 A 
ATOM     25  C   UNL     1       0.582   0.350   5.265  0.00  0.00    +0.056 A 
ATOM     26  C   UNL     1      -0.521   0.970   4.660  0.00  0.00    +0.042 A 
ATOM     27  C   UNL     1      -0.976   0.619   3.412  0.00  0.00    +0.046 A 
ATOM     28  S   UNL     1      -1.030   2.162   5.874  0.00  0.00    -0.027 S 
ATOM     29  C   UNL     1       0.210   1.801   7.107  0.00  0.00    +0.289 A 
ATOM     30  O   UNL     1       0.373   2.317   8.197  0.00  0.00    -0.260 OA
ATOM     31  N   UNL     1       0.919   0.814   6.526  0.00  0.00    -0.316 N 
ATOM     32  H   UNL     1       1.673   0.424   6.995  0.00  0.00    +0.169 HD
ENDBRANCH  19  22
ENDBRANCH  17  19
ENDBRANCH   6  17
TORSDOF 5
