REMARK  Name = ZINC38050675
REMARK  5 active torsions:
REMARK  status: ('A' for Active; 'I' for Inactive)
REMARK    1  A    between atoms: C_3  and  N_14
REMARK    2  A    between atoms: C_4  and  C_10
REMARK    3  A    between atoms: C_6  and  N_7
REMARK    4  A    between atoms: N_14  and  C_15
REMARK    5  A    between atoms: C_21  and  N_23
REMARK                            x       y       z     vdW  Elec       q    Type
REMARK                         _______ _______ _______ _____ _____    ______ ____
ROOT
ATOM      1  C   UNL     1      -0.017   1.378   0.010  0.00  0.00    +0.034 A 
ATOM      2  C   UNL     1       1.169   2.087   0.002  0.00  0.00    +0.026 A 
ATOM      3  C   UNL     1       2.381   1.409  -0.013  0.00  0.00    +0.039 A 
ATOM      4  C   UNL     1       2.396   0.020  -0.021  0.00  0.00    +0.078 A 
ATOM      5  C   UNL     1       1.207  -0.682  -0.013  0.00  0.00    +0.047 A 
ATOM      6  C   UNL     1       0.002  -0.004   0.002  0.00  0.00    +0.127 A 
ENDROOT
BRANCH   4   7
ATOM      7  C   UNL     1       3.709  -0.720  -0.038  0.00  0.00    +0.419 C 
ATOM      8  F   UNL     1       3.468  -2.098  -0.043  0.00  0.00    -0.166 F 
ATOM      9  F   UNL     1       4.428  -0.369  -1.185  0.00  0.00    -0.166 F 
ATOM     10  F   UNL     1       4.450  -0.381   1.099  0.00  0.00    -0.166 F 
ENDBRANCH   4   7
BRANCH   6  11
ATOM     11  N   UNL     1      -1.270  -0.760   0.010  0.00  0.00    +0.056 N 
ATOM     12  O   UNL     1      -2.325  -0.168   0.023  0.00  0.00    -0.126 OA
ATOM     13  O   UNL     1      -1.256  -1.969   0.004  0.00  0.00    -0.126 OA
ENDBRANCH   6  11
BRANCH   3  14
ATOM     14  N   UNL     1       3.582   2.122  -0.021  0.00  0.00    -0.342 N 
ATOM     15  H   UNL     1       4.428   1.647  -0.032  0.00  0.00    +0.146 HD
BRANCH  14  16
ATOM     16  C   UNL     1       3.564   3.587  -0.014  0.00  0.00    +0.056 C 
ATOM     17  C   UNL     1       3.446   4.088   1.427  0.00  0.00    +0.020 C 
ATOM     18  C   UNL     1       3.427   5.618   1.435  0.00  0.00    +0.002 C 
ATOM     19  C   UNL     1       4.722   6.147   0.815  0.00  0.00    -0.001 C 
ATOM     20  C   UNL     1       4.840   5.646  -0.625  0.00  0.00    -0.014 C 
ATOM     21  C   UNL     1       4.859   4.116  -0.633  0.00  0.00    -0.055 C 
BRANCH  21  22
ATOM     22  N   UNL     1       4.972   3.635  -2.017  0.00  0.00    +0.381 N 
ATOM     23  H   UNL     1       4.184   3.964  -2.553  0.00  0.00    -0.090 HD
ATOM     24  H   UNL     1       5.826   3.984  -2.425  0.00  0.00    -0.090 HD
ATOM     25  H   UNL     1       4.985   2.626  -2.022  0.00  0.00    -0.090 HD
ENDBRANCH  21  22
ENDBRANCH  14  16
ENDBRANCH   3  14
TORSDOF 5
