REMARK  Name = ZINC49937939
REMARK  8 active torsions:
REMARK  status: ('A' for Active; 'I' for Inactive)
REMARK    1  A    between atoms: C_1  and  O_2
REMARK    2  A    between atoms: O_2  and  C_3
REMARK    3  A    between atoms: C_6  and  C_9
REMARK    4  A    between atoms: C_20  and  C_22
REMARK    5  A    between atoms: C_25  and  O_28
REMARK    6  A    between atoms: O_28  and  C_29
REMARK    7  A    between atoms: C_34  and  S_36
REMARK    8  A    between atoms: S_36  and  C_37
REMARK                            x       y       z     vdW  Elec       q    Type
REMARK                         _______ _______ _______ _____ _____    ______ ____
ROOT
ATOM      1  C   UNL     1      -5.251  -2.652   0.205  0.00  0.00    +0.154 C 
ATOM      2  C   UNL     1      -5.126  -3.575   1.431  0.00  0.00    +0.113 C 
ATOM      3  C   UNL     1      -5.109  -5.065   1.125  0.00  0.00    +0.065 C 
ATOM      4  C   UNL     1      -4.667  -5.954   2.205  0.00  0.00    +0.039 A 
ATOM      5  C   UNL     1      -4.929  -7.323   2.177  0.00  0.00    +0.013 A 
ATOM      6  C   UNL     1      -4.487  -8.123   3.209  0.00  0.00    +0.001 A 
ATOM      7  C   UNL     1      -3.785  -7.569   4.268  0.00  0.00    +0.004 A 
ATOM      8  C   UNL     1      -3.522  -6.213   4.308  0.00  0.00    +0.046 A 
ATOM      9  C   UNL     1      -3.961  -5.388   3.283  0.00  0.00    +0.130 A 
ATOM     10  O   UNL     1      -3.717  -4.057   3.329  0.00  0.00    -0.483 OA
ATOM     11  C   UNL     1      -3.797  -3.288   2.127  0.00  0.00    +0.215 C 
ATOM     12  N   UNL     1      -5.410  -5.484  -0.059  0.00  0.00    -0.215 NA
ATOM     13  C   UNL     1      -5.654  -4.678  -1.122  0.00  0.00    +0.250 A 
ATOM     14  N   UNL     1      -5.564  -3.330  -1.063  0.00  0.00    -0.220 N 
ATOM     15  N   UNL     1      -5.830  -2.846  -2.350  0.00  0.00    -0.141 NA
ATOM     16  C   UNL     1      -6.092  -3.892  -3.101  0.00  0.00    +0.210 A 
ATOM     17  N   UNL     1      -5.997  -4.990  -2.368  0.00  0.00    -0.184 NA
ENDROOT
BRANCH   1  21
ATOM     18  C   UNL     1      -1.560  -0.552  -0.274  0.00  0.00    +0.120 A 
ATOM     19  C   UNL     1      -1.597  -1.932  -0.410  0.00  0.00    +0.046 A 
ATOM     20  C   UNL     1      -2.791  -2.609  -0.254  0.00  0.00    +0.009 A 
ATOM     21  C   UNL     1      -3.950  -1.911   0.036  0.00  0.00    -0.022 A 
ATOM     22  C   UNL     1      -3.916  -0.536   0.172  0.00  0.00    +0.009 A 
ATOM     23  C   UNL     1      -2.723   0.145   0.023  0.00  0.00    +0.046 A 
BRANCH  18  25
ATOM     24  C   UNL     1       0.770  -0.666  -0.731  0.00  0.00    +0.277 C 
ATOM     25  O   UNL     1      -0.387   0.116  -0.426  0.00  0.00    -0.495 OA
ENDBRANCH  18  25
ENDBRANCH   1  21
BRANCH  11  26
ATOM     26  C   UNL     1      -3.711  -1.821   2.462  0.00  0.00    -0.006 A 
ATOM     27  C   UNL     1      -4.866  -1.095   2.684  0.00  0.00    +0.011 A 
ATOM     28  C   UNL     1      -4.790   0.250   2.990  0.00  0.00    +0.046 A 
ATOM     29  C   UNL     1      -3.553   0.872   3.076  0.00  0.00    +0.120 A 
ATOM     30  C   UNL     1      -2.395   0.141   2.854  0.00  0.00    +0.046 A 
ATOM     31  C   UNL     1      -2.476  -1.205   2.553  0.00  0.00    +0.011 A 
BRANCH  29  32
ATOM     32  O   UNL     1      -3.475   2.195   3.377  0.00  0.00    -0.495 OA
ATOM     33  C   UNL     1      -2.168   2.768   3.448  0.00  0.00    +0.277 C 
ENDBRANCH  29  32
ENDBRANCH  11  26
BRANCH  16  34
ATOM     34  S   UNL     1      -6.508  -3.841  -4.812  0.00  0.00    -0.088 S 
ATOM     35  C   UNL     1      -6.746  -5.583  -5.258  0.00  0.00    +0.093 C 
ENDBRANCH  16  34
TORSDOF 5
