REMARK  Name = ZINC16579882
REMARK  5 active torsions:
REMARK  status: ('A' for Active; 'I' for Inactive)
REMARK    1  A    between atoms: C_1  and  C_2
REMARK    2  A    between atoms: C_2  and  C_23
REMARK    3  A    between atoms: N_5  and  C_9
REMARK    4  A    between atoms: C_9  and  C_10
REMARK    5  A    between atoms: C_10  and  C_12
REMARK                            x       y       z     vdW  Elec       q    Type
REMARK                         _______ _______ _______ _____ _____    ______ ____
ROOT
ATOM      1  C   UNL     1       7.252   8.332  -2.898  0.00  0.00    +0.047 C 
ATOM      2  C   UNL     1       6.287   9.200  -2.086  0.00  0.00    +0.135 C 
ATOM      3  C   UNL     1       4.877   8.650  -2.169  0.00  0.00    +0.251 C 
ATOM      4  O   UNL     1       4.198   8.522  -3.165  0.00  0.00    -0.272 OA
ATOM      5  N   UNL     1       4.535   8.334  -0.904  0.00  0.00    -0.216 N 
ATOM      6  C   UNL     1       5.520   8.610  -0.042  0.00  0.00    +0.310 C 
ATOM      7  O   UNL     1       5.445   8.415   1.155  0.00  0.00    -0.252 OA
ATOM      8  N   UNL     1       6.606   9.122  -0.650  0.00  0.00    -0.281 N 
ATOM      9  H   UNL     1       7.435   9.392  -0.225  0.00  0.00    +0.152 HD
ENDROOT
BRANCH   2  10
ATOM     10  C   UNL     1       6.329  10.627  -2.566  0.00  0.00    -0.014 A 
ATOM     11  C   UNL     1       7.261  11.505  -2.043  0.00  0.00    +0.008 A 
ATOM     12  C   UNL     1       7.300  12.815  -2.482  0.00  0.00    +0.022 A 
ATOM     13  C   UNL     1       6.406  13.249  -3.445  0.00  0.00    +0.059 A 
ATOM     14  C   UNL     1       5.473  12.370  -3.968  0.00  0.00    +0.060 A 
ATOM     15  C   UNL     1       5.439  11.058  -3.531  0.00  0.00    +0.027 A 
ATOM     16 CL   UNL     1       4.350  12.913  -5.176  0.00  0.00    -0.082 Cl
ATOM     17 CL   UNL     1       6.454  14.894  -3.996  0.00  0.00    -0.082 Cl
ENDBRANCH   2  10
BRANCH   5  18
ATOM     18  C   UNL     1       3.240   7.765  -0.520  0.00  0.00    +0.197 C 
BRANCH  18  19
ATOM     19  C   UNL     1       3.317   6.261  -0.574  0.00  0.00    +0.181 C 
ATOM     20  O   UNL     1       4.351   5.718  -0.901  0.00  0.00    -0.290 OA
BRANCH  19  21
ATOM     21  C   UNL     1       2.139   5.453  -0.230  0.00  0.00    +0.021 A 
ATOM     22  C   UNL     1       0.945   6.079   0.148  0.00  0.00    +0.015 A 
ATOM     23  C   UNL     1      -0.160   5.321   0.469  0.00  0.00    +0.048 A 
ATOM     24  C   UNL     1      -0.092   3.936   0.419  0.00  0.00    +0.142 A 
ATOM     25  C   UNL     1       1.097   3.304   0.044  0.00  0.00    +0.076 A 
ATOM     26  C   UNL     1       2.208   4.055  -0.280  0.00  0.00    +0.038 A 
ATOM     27  N   UNL     1       1.145   1.903   0.001  0.00  0.00    -0.280 N 
ATOM     28  C   UNL     1      -0.014   1.209   0.009  0.00  0.00    +0.255 C 
ATOM     29  O   UNL     1       0.002  -0.004   0.002  0.00  0.00    -0.272 OA
ATOM     30  C   UNL     1      -1.328   1.948   0.019  0.00  0.00    +0.325 C 
ATOM     31  O   UNL     1      -1.177   3.181   0.732  0.00  0.00    -0.481 OA
ATOM     32  H   UNL     1       1.996   1.440  -0.033  0.00  0.00    +0.155 HD
ENDBRANCH  19  21
ENDBRANCH  18  19
ENDBRANCH   5  18
TORSDOF 4
