REMARK  Name = ZINC51096223
REMARK  5 active torsions:
REMARK  status: ('A' for Active; 'I' for Inactive)
REMARK    1  A    between atoms: C_1  and  C_2
REMARK    2  A    between atoms: C_7  and  N_12
REMARK    3  A    between atoms: C_9  and  C_11
REMARK    4  A    between atoms: C_13  and  C_15
REMARK    5  A    between atoms: N_21  and  N_22
REMARK                            x       y       z     vdW  Elec       q    Type
REMARK                         _______ _______ _______ _____ _____    ______ ____
ROOT
ATOM      1  N   UNL     1       1.471  -2.526   2.420  0.00  0.00    -0.308 N 
ATOM      2  C   UNL     1       1.207  -3.754   2.907  0.00  0.00    +0.246 C 
ATOM      3  O   UNL     1       0.380  -4.460   2.362  0.00  0.00    -0.270 OA
ATOM      4  H   UNL     1       2.131  -1.963   2.855  0.00  0.00    +0.149 HD
ENDROOT
BRANCH   2   5
ATOM      5  C   UNL     1       1.920  -4.243   4.103  0.00  0.00    +0.056 A 
ATOM      6  C   UNL     1       1.657  -5.523   4.615  0.00  0.00    +0.038 A 
ATOM      7  C   UNL     1       2.343  -5.936   5.726  0.00  0.00    +0.083 A 
ATOM      8  C   UNL     1       3.276  -5.079   6.311  0.00  0.00    +0.151 A 
ATOM      9  N   UNL     1       3.505  -3.875   5.806  0.00  0.00    -0.237 NA
ATOM     10  C   UNL     1       2.871  -3.442   4.736  0.00  0.00    +0.126 A 
ATOM     11  N   UNL     1       3.972  -5.492   7.435  0.00  0.00    -0.266 N 
ATOM     12 CL   UNL     1       2.054  -7.509   6.401  0.00  0.00    -0.080 Cl
ATOM     13  H   UNL     1       3.809  -6.372   7.810  0.00  0.00    +0.167 HD
BRANCH  11  14
ATOM     14  N   UNL     1       4.887  -4.661   8.015  0.00  0.00    -0.255 NA
ATOM     15  H   UNL     1       5.312  -5.096   8.821  0.00  0.00    +0.140 HD
ATOM     16  H   UNL     1       5.588  -4.373   7.349  0.00  0.00    +0.140 HD
ENDBRANCH  11  14
ENDBRANCH   2   5
BRANCH   1  22
ATOM     17  C   UNL     1      -0.019   1.526   0.010  0.00  0.00    +0.008 C 
ATOM     18  C   UNL     1       0.002  -0.004   0.002  0.00  0.00    -0.009 C 
ATOM     19  C   UNL     1       0.718  -0.497  -1.257  0.00  0.00    +0.003 C 
ATOM     20  C   UNL     1       0.739  -2.027  -1.265  0.00  0.00    +0.002 C 
ATOM     21  C   UNL     1       1.479  -2.534  -0.026  0.00  0.00    +0.022 C 
ATOM     22  C   UNL     1       0.763  -2.041   1.233  0.00  0.00    +0.076 C 
ATOM     23  C   UNL     1       0.742  -0.511   1.242  0.00  0.00    +0.009 C 
ATOM     24  C   UNL     1       0.026  -0.018   2.500  0.00  0.00    +0.009 C 
ENDBRANCH   1  22
TORSDOF 3
