REMARK  Name = ZINC45725083
REMARK  9 active torsions:
REMARK  status: ('A' for Active; 'I' for Inactive)
REMARK    1  A    between atoms: C_1  and  C_2
REMARK    2  A    between atoms: C_5  and  C_8
REMARK    3  A    between atoms: C_8  and  S_9
REMARK    4  A    between atoms: S_9  and  C_10
REMARK    5  A    between atoms: C_10  and  C_11
REMARK    6  A    between atoms: C_11  and  N_12
REMARK    7  A    between atoms: N_15  and  C_16
REMARK    8  A    between atoms: C_21  and  C_22
REMARK    9  A    between atoms: C_22  and  C_23
REMARK                            x       y       z     vdW  Elec       q    Type
REMARK                         _______ _______ _______ _____ _____    ______ ____
ROOT
ATOM      1  N   UNL     1       2.902  -8.753  -0.078  0.00  0.00    -0.298 N 
ATOM      2  C   UNL     1       4.010  -9.521  -0.076  0.00  0.00    +0.304 C 
ATOM      3  O   UNL     1       5.109  -9.001  -0.071  0.00  0.00    -0.253 OA
ATOM      4  N   UNL     1       3.899 -10.864  -0.079  0.00  0.00    -0.269 N 
ATOM      5  H   UNL     1       2.025  -9.167  -0.082  0.00  0.00    +0.150 HD
ATOM      6  H   UNL     1       3.025 -11.278   0.000  0.00  0.00    +0.156 HD
ENDROOT
BRANCH   4   7
ATOM      7  C   UNL     1       5.044 -11.660  -0.195  0.00  0.00    +0.038 A 
ATOM      8  C   UNL     1       6.184 -11.154  -0.804  0.00  0.00    +0.023 A 
ATOM      9  C   UNL     1       7.313 -11.942  -0.917  0.00  0.00    +0.002 A 
ATOM     10  C   UNL     1       7.307 -13.234  -0.424  0.00  0.00    +0.000 A 
ATOM     11  C   UNL     1       6.173 -13.741   0.183  0.00  0.00    +0.006 A 
ATOM     12  C   UNL     1       5.043 -12.956   0.304  0.00  0.00    -0.017 A 
BRANCH  12  13
ATOM     13  C   UNL     1       3.810 -13.507   0.971  0.00  0.00    +0.132 C 
BRANCH  13  14
ATOM     14  C   UNL     1       2.879 -14.064  -0.075  0.00  0.00    +0.215 C 
ATOM     15  O   UNL     1       3.187 -14.018  -1.247  0.00  0.00    -0.276 OA
ATOM     16  N   UNL     1       1.704 -14.614   0.292  0.00  0.00    -0.329 N 
ATOM     17  H   UNL     1       1.458 -14.650   1.230  0.00  0.00    +0.145 HD
ATOM     18  H   UNL     1       1.105 -14.972  -0.381  0.00  0.00    +0.145 HD
ENDBRANCH  13  14
ENDBRANCH  12  13
ENDBRANCH   4   7
BRANCH   1  19
ATOM     19  C   UNL     1       3.022  -7.293  -0.075  0.00  0.00    +0.116 C 
BRANCH  19  20
ATOM     20  C   UNL     1       1.627  -6.666  -0.079  0.00  0.00    +0.088 C 
BRANCH  20  21
ATOM     21  S   UNL     1       1.776  -4.858  -0.075  0.00  0.00    -0.155 S 
BRANCH  21  22
ATOM     22  C   UNL     1       0.058  -4.276  -0.080  0.00  0.00    +0.104 C 
BRANCH  22  27
ATOM     23  C   UNL     1      -0.022   1.502  -0.070  0.00  0.00    +0.044 C 
ATOM     24  C   UNL     1      -0.001  -0.005  -0.073  0.00  0.00    -0.050 A 
ATOM     25  C   UNL     1       0.014  -0.694  -1.271  0.00  0.00    +0.003 A 
ATOM     26  C   UNL     1       0.033  -2.076  -1.273  0.00  0.00    +0.005 A 
ATOM     27  C   UNL     1       0.038  -2.769  -0.077  0.00  0.00    -0.038 A 
ATOM     28  C   UNL     1       0.024  -2.080   1.121  0.00  0.00    +0.005 A 
ATOM     29  C   UNL     1       0.009  -0.698   1.123  0.00  0.00    +0.003 A 
ENDBRANCH  22  27
ENDBRANCH  21  22
ENDBRANCH  20  21
ENDBRANCH  19  20
ENDBRANCH   1  19
TORSDOF 8
