REMARK  Name = ZINC41010177
REMARK  4 active torsions:
REMARK  status: ('A' for Active; 'I' for Inactive)
REMARK    1  A    between atoms: C_2  and  C_12
REMARK    2  A    between atoms: C_14  and  C_17
REMARK    3  A    between atoms: C_17  and  N_18
REMARK    4  A    between atoms: N_18  and  C_19
REMARK                            x       y       z     vdW  Elec       q    Type
REMARK                         _______ _______ _______ _____ _____    ______ ____
ROOT
ATOM      1  C   UNL     1       1.165   3.572   0.010  0.00  0.00    +0.109 A 
ATOM      2  N   UNL     1       2.180   4.425  -0.001  0.00  0.00    -0.246 NA
ATOM      3  C   UNL     1       1.979   5.722   0.009  0.00  0.00    +0.032 A 
ATOM      4  C   UNL     1       0.712   6.211   0.030  0.00  0.00    +0.068 A 
ATOM      5  S   UNL     1      -0.229   4.690   0.029  0.00  0.00    -0.075 S 
ENDROOT
BRANCH   1   7
ATOM      6  C   UNL     1      -0.017   1.380   0.010  0.00  0.00    +0.060 A 
ATOM      7  C   UNL     1       1.183   2.094   0.002  0.00  0.00    +0.012 A 
ATOM      8  C   UNL     1       2.398   1.408  -0.014  0.00  0.00    +0.029 A 
ATOM      9  C   UNL     1       2.410   0.028  -0.023  0.00  0.00    +0.064 A 
ATOM     10  C   UNL     1       1.217  -0.682  -0.016  0.00  0.00    +0.176 A 
ATOM     11  C   UNL     1       0.002  -0.004   0.002  0.00  0.00    +0.164 A 
ATOM     12  O   UNL     1      -1.176  -0.686   0.017  0.00  0.00    -0.485 OA
ATOM     13  C   UNL     1      -1.127  -2.064  -0.367  0.00  0.00    +0.270 C 
ATOM     14  C   UNL     1       0.054  -2.723   0.358  0.00  0.00    +0.270 C 
ATOM     15  O   UNL     1       1.253  -2.043  -0.030  0.00  0.00    -0.484 OA
ATOM     16 BR   UNL     1       4.059  -0.899  -0.045  0.00  0.00    -0.046 Br
ENDBRANCH   1   7
BRANCH   3  17
ATOM     17  C   UNL     1       3.153   6.668  -0.003  0.00  0.00    -0.025 C 
BRANCH  17  18
ATOM     18  N   UNL     1       3.630   6.873   1.371  0.00  0.00    +0.385 N 
ATOM     19  H   UNL     1       2.887   7.266   1.929  0.00  0.00    -0.085 HD
ATOM     20  H   UNL     1       3.914   5.989   1.764  0.00  0.00    -0.085 HD
BRANCH  18  21
ATOM     21  C   UNL     1       4.774   7.795   1.359  0.00  0.00    -0.071 C 
ATOM     22  C   UNL     1       6.124   7.252   1.832  0.00  0.00    -0.017 C 
ATOM     23  C   UNL     1       5.343   8.231   2.711  0.00  0.00    -0.017 C 
ENDBRANCH  18  21
ENDBRANCH  17  18
ENDBRANCH   3  17
TORSDOF 4
