REMARK  Name = ZINC20927355
REMARK  9 active torsions:
REMARK  status: ('A' for Active; 'I' for Inactive)
REMARK    1  A    between atoms: C_1  and  O_2
REMARK    2  A    between atoms: O_2  and  C_3
REMARK    3  A    between atoms: C_8  and  N_9
REMARK    4  A    between atoms: N_9  and  S_10
REMARK    5  A    between atoms: S_10  and  C_13
REMARK    6  A    between atoms: C_15  and  N_31
REMARK    7  A    between atoms: C_18  and  N_19
REMARK    8  A    between atoms: N_19  and  N_20
REMARK    9  A    between atoms: N_20  and  C_21
REMARK                            x       y       z     vdW  Elec       q    Type
REMARK                         _______ _______ _______ _____ _____    ______ ____
ROOT
ATOM      1  C   UNL     1      -0.247  -3.675  -2.625  0.00  0.00    +0.133 A 
ATOM      2  C   UNL     1       0.726  -4.022  -3.542  0.00  0.00    +0.063 A 
ATOM      3  C   UNL     1       0.601  -3.638  -4.864  0.00  0.00    +0.128 A 
ATOM      4  C   UNL     1      -0.499  -2.906  -5.274  0.00  0.00    +0.035 A 
ATOM      5  C   UNL     1      -1.476  -2.556  -4.362  0.00  0.00    +0.028 A 
ATOM      6  C   UNL     1      -1.355  -2.945  -3.034  0.00  0.00    +0.071 A 
ENDROOT
BRANCH   1   7
ATOM      7  S   UNL     1      -0.086  -4.166  -0.940  0.00  0.00    +0.074 S 
ATOM      8  O   UNL     1       1.163  -4.835  -0.830  0.00  0.00    -0.150 OA
ATOM      9  O   UNL     1      -1.314  -4.780  -0.577  0.00  0.00    -0.150 OA
BRANCH   7  10
ATOM     10  N   UNL     1       0.037  -2.783  -0.038  0.00  0.00    -0.213 N 
ATOM     11  H   UNL     1      -0.679  -2.533   0.567  0.00  0.00    +0.174 HD
BRANCH  10  17
ATOM     12  C   UNL     1       1.669  -1.309   0.972  0.00  0.00    +0.142 A 
ATOM     13  C   UNL     1       2.798  -0.515   0.859  0.00  0.00    +0.047 A 
ATOM     14  C   UNL     1       3.428  -0.378  -0.365  0.00  0.00    +0.004 A 
ATOM     15  C   UNL     1       2.933  -1.032  -1.478  0.00  0.00    +0.002 A 
ATOM     16  C   UNL     1       1.807  -1.827  -1.373  0.00  0.00    +0.028 A 
ATOM     17  C   UNL     1       1.174  -1.974  -0.147  0.00  0.00    +0.090 A 
BRANCH  12  19
ATOM     18  C   UNL     1       1.612  -0.734   3.279  0.00  0.00    +0.277 C 
ATOM     19  O   UNL     1       1.049  -1.445   2.175  0.00  0.00    -0.493 OA
ENDBRANCH  12  19
ENDBRANCH  10  17
ENDBRANCH   7  10
ENDBRANCH   1   7
BRANCH   3  20
ATOM     20  N   UNL     1       1.646  -4.011  -5.844  0.00  0.00    +0.056 N 
ATOM     21  O   UNL     1       2.608  -4.651  -5.488  0.00  0.00    -0.126 OA
ATOM     22  O   UNL     1       1.537  -3.676  -7.001  0.00  0.00    -0.126 OA
ENDBRANCH   3  20
BRANCH   6  23
ATOM     23  N   UNL     1      -2.344  -2.598  -2.110  0.00  0.00    -0.265 N 
ATOM     24  H   UNL     1      -2.292  -2.924  -1.198  0.00  0.00    +0.170 HD
BRANCH  23  25
ATOM     25  N   UNL     1      -3.411  -1.778  -2.501  0.00  0.00    -0.261 N 
ATOM     26  H   UNL     1      -3.372  -0.822  -2.342  0.00  0.00    +0.170 HD
BRANCH  25  27
ATOM     27  C   UNL     1      -4.481  -2.314  -3.094  0.00  0.00    +0.116 C 
ATOM     28  C   UNL     1      -4.751  -3.687  -3.308  0.00  0.00    +0.024 A 
ATOM     29  C   UNL     1      -4.052  -4.861  -3.002  0.00  0.00    +0.012 A 
ATOM     30  C   UNL     1      -4.587  -6.086  -3.348  0.00  0.00    +0.001 A 
ATOM     31  C   UNL     1      -5.809  -6.157  -3.996  0.00  0.00    +0.002 A 
ATOM     32  C   UNL     1      -6.517  -5.008  -4.308  0.00  0.00    +0.024 A 
ATOM     33  C   UNL     1      -6.004  -3.758  -3.971  0.00  0.00    +0.043 A 
ATOM     34  N   UNL     1      -6.490  -2.498  -4.161  0.00  0.00    -0.280 N 
ATOM     35  C   UNL     1      -5.666  -1.589  -3.672  0.00  0.00    +0.264 C 
ATOM     36  O   UNL     1      -5.834  -0.383  -3.689  0.00  0.00    -0.268 OA
ATOM     37  H   UNL     1      -7.333  -2.296  -4.595  0.00  0.00    +0.155 HD
ENDBRANCH  25  27
ENDBRANCH  23  25
ENDBRANCH   6  23
TORSDOF 8
