REMARK  Name = ZINC36237509
REMARK  8 active torsions:
REMARK  status: ('A' for Active; 'I' for Inactive)
REMARK    1  A    between atoms: C_1  and  C_2
REMARK    2  A    between atoms: C_5  and  O_9
REMARK    3  A    between atoms: O_9  and  C_10
REMARK    4  A    between atoms: C_10  and  C_11
REMARK    5  A    between atoms: N_13  and  N_14
REMARK    6  A    between atoms: C_15  and  C_16
REMARK    7  A    between atoms: C_18  and  O_24
REMARK    8  A    between atoms: C_19  and  O_23
REMARK                            x       y       z     vdW  Elec       q    Type
REMARK                         _______ _______ _______ _____ _____    ______ ____
ROOT
ATOM      1  C   UNL     1      -0.551  -6.323  -1.105  0.00  0.00    +0.270 C 
ATOM      2  O   UNL     1      -0.057  -6.667  -0.052  0.00  0.00    -0.270 OA
ATOM      3  N   UNL     1      -0.590  -7.181  -2.144  0.00  0.00    -0.204 N 
ATOM      4  H   UNL     1      -0.985  -6.905  -2.986  0.00  0.00    +0.177 HD
ENDROOT
BRANCH   3   5
ATOM      5  N   UNL     1      -0.060  -8.470  -2.008  0.00  0.00    -0.188 NA
ATOM      6  C   UNL     1       0.010  -9.256  -3.039  0.00  0.00    +0.138 C 
BRANCH   6   7
ATOM      7  C   UNL     1      -0.005  -8.689  -4.399  0.00  0.00    -0.001 A 
ATOM      8  C   UNL     1       0.192  -7.318  -4.589  0.00  0.00    +0.058 A 
ATOM      9  C   UNL     1       0.177  -6.792  -5.867  0.00  0.00    +0.160 A 
ATOM     10  C   UNL     1      -0.034  -7.626  -6.963  0.00  0.00    +0.173 A 
ATOM     11  C   UNL     1      -0.229  -8.987  -6.775  0.00  0.00    +0.063 A 
ATOM     12  C   UNL     1      -0.210  -9.521  -5.502  0.00  0.00    +0.028 A 
ATOM     13 BR   UNL     1      -0.515 -10.114  -8.267  0.00  0.00    -0.046 Br
BRANCH  10  14
ATOM     14  O   UNL     1      -0.048  -7.106  -8.218  0.00  0.00    -0.503 OA
ATOM     15  H   UNL     1       0.818  -7.089  -8.648  0.00  0.00    +0.292 HD
ENDBRANCH  10  14
BRANCH   9  16
ATOM     16  O   UNL     1       0.369  -5.458  -6.055  0.00  0.00    -0.503 OA
ATOM     17  H   UNL     1       1.295  -5.207  -6.174  0.00  0.00    +0.292 HD
ENDBRANCH   9  16
ENDBRANCH   6   7
ENDBRANCH   3   5
BRANCH   1  18
ATOM     18  C   UNL     1      -1.121  -4.936  -1.252  0.00  0.00    +0.326 C 
BRANCH  18  19
ATOM     19  O   UNL     1      -0.962  -4.223  -0.024  0.00  0.00    -0.482 OA
BRANCH  19  24
ATOM     20  C   UNL     1      -2.892   1.067   0.131  0.00  0.00    +0.044 C 
ATOM     21  C   UNL     1      -2.375  -0.348   0.090  0.00  0.00    -0.049 A 
ATOM     22  C   UNL     1      -2.497  -1.093  -1.068  0.00  0.00    +0.007 A 
ATOM     23  C   UNL     1      -2.024  -2.391  -1.109  0.00  0.00    +0.047 A 
ATOM     24  C   UNL     1      -1.427  -2.946   0.014  0.00  0.00    +0.135 A 
ATOM     25  C   UNL     1      -1.306  -2.196   1.175  0.00  0.00    +0.060 A 
ATOM     26  C   UNL     1      -1.776  -0.896   1.209  0.00  0.00    +0.022 A 
ATOM     27 BR   UNL     1      -0.493  -2.949   2.708  0.00  0.00    -0.047 Br
ENDBRANCH  19  24
ENDBRANCH  18  19
ENDBRANCH   1  18
TORSDOF 7
