REMARK  Name = ZINC58167050
REMARK  8 active torsions:
REMARK  status: ('A' for Active; 'I' for Inactive)
REMARK    1  A    between atoms: C_1  and  C_2
REMARK    2  A    between atoms: C_2  and  C_3
REMARK    3  A    between atoms: C_3  and  N_4
REMARK    4  A    between atoms: C_5  and  N_31
REMARK    5  A    between atoms: C_6  and  C_13
REMARK    6  A    between atoms: C_13  and  C_15
REMARK    7  A    between atoms: C_15  and  N_16
REMARK    8  A    between atoms: C_20  and  C_22
REMARK                            x       y       z     vdW  Elec       q    Type
REMARK                         _______ _______ _______ _____ _____    ______ ____
ROOT
ATOM      1  C   UNL     1       2.950  -4.548  -0.056  0.00  0.00    +0.185 C 
ATOM      2  O   UNL     1       3.778  -3.877   0.527  0.00  0.00    -0.290 OA
ENDROOT
BRANCH   1   5
ATOM      3  N   UNL     1       0.646  -1.969  -1.331  0.00  0.00    -0.281 N 
ATOM      4  C   UNL     1       1.737  -2.525  -0.726  0.00  0.00    +0.116 A 
ATOM      5  C   UNL     1       1.842  -3.925  -0.670  0.00  0.00    +0.121 A 
ATOM      6  C   UNL     1       0.763  -4.720  -1.270  0.00  0.00    +0.266 A 
ATOM      7  O   UNL     1       0.802  -5.936  -1.250  0.00  0.00    -0.267 OA
ATOM      8  N   UNL     1      -0.273  -4.074  -1.844  0.00  0.00    -0.274 N 
ATOM      9  H   UNL     1      -0.993  -4.585  -2.245  0.00  0.00    +0.173 HD
ATOM     10  C   UNL     1      -0.322  -2.732  -1.864  0.00  0.00    +0.331 A 
ATOM     11  O   UNL     1      -1.274  -2.188  -2.387  0.00  0.00    -0.246 OA
BRANCH   4  12
ATOM     12  N   UNL     1       2.706  -1.736  -0.188  0.00  0.00    -0.344 N 
ATOM     13  H   UNL     1       2.666  -0.773  -0.300  0.00  0.00    +0.144 HD
ATOM     14  H   UNL     1       3.437  -2.136   0.309  0.00  0.00    +0.144 HD
ENDBRANCH   4  12
BRANCH   3  15
ATOM     15  C   UNL     1       0.526  -0.510  -1.395  0.00  0.00    +0.128 C 
BRANCH  15  17
ATOM     16  C   UNL     1      -0.335   1.520  -0.220  0.00  0.00    +0.005 C 
ATOM     17  C   UNL     1      -0.210  -0.004  -0.153  0.00  0.00    +0.018 C 
ENDBRANCH  15  17
ENDBRANCH   3  15
ENDBRANCH   1   5
BRANCH   1  18
ATOM     18  C   UNL     1       3.106  -6.045  -0.123  0.00  0.00    +0.165 C 
BRANCH  18  19
ATOM     19  N   UNL     1       4.329  -6.443   0.586  0.00  0.00    -0.286 NA
ATOM     20  C   UNL     1       5.531  -5.998  -0.142  0.00  0.00    +0.085 C 
ATOM     21  C   UNL     1       6.388  -7.251  -0.420  0.00  0.00    +0.017 C 
ATOM     22  C   UNL     1       5.902  -8.253   0.660  0.00  0.00    +0.027 C 
ATOM     23  C   UNL     1       4.394  -7.911   0.749  0.00  0.00    +0.113 C 
BRANCH  23  24
ATOM     24  C   UNL     1       3.842  -8.315   2.092  0.00  0.00    +0.097 A 
ATOM     25  N   UNL     1       4.076  -7.766   3.248  0.00  0.00    -0.242 NA
ATOM     26  C   UNL     1       3.517  -8.224   4.387  0.00  0.00    +0.079 A 
ATOM     27  C   UNL     1       3.654  -7.761   5.712  0.00  0.00    +0.029 A 
ATOM     28  C   UNL     1       2.993  -8.374   6.732  0.00  0.00    +0.002 A 
ATOM     29  C   UNL     1       2.167  -9.467   6.510  0.00  0.00    +0.001 A 
ATOM     30  C   UNL     1       2.006  -9.950   5.224  0.00  0.00    +0.017 A 
ATOM     31  C   UNL     1       2.670  -9.337   4.188  0.00  0.00    +0.039 A 
ATOM     32  S   UNL     1       2.778  -9.574   2.434  0.00  0.00    -0.071 S 
ENDBRANCH  23  24
ENDBRANCH  18  19
ENDBRANCH   1  18
TORSDOF 7
