REMARK  Name = ZINC39546173
REMARK  6 active torsions:
REMARK  status: ('A' for Active; 'I' for Inactive)
REMARK    1  A    between atoms: C_4  and  C_7
REMARK    2  A    between atoms: C_10  and  C_31
REMARK    3  A    between atoms: C_13  and  C_15
REMARK    4  A    between atoms: C_15  and  N_16
REMARK    5  A    between atoms: N_19  and  C_22
REMARK    6  A    between atoms: C_27  and  N_28
REMARK                            x       y       z     vdW  Elec       q    Type
REMARK                         _______ _______ _______ _____ _____    ______ ____
ROOT
ATOM      1  C   UNL     1       3.711  -0.707  -0.038  0.00  0.00    +0.137 C 
ATOM      2  C   UNL     1       4.051  -1.244   1.367  0.00  0.00    +0.087 C 
ATOM      3  C   UNL     1       4.109  -2.743   1.180  0.00  0.00    +0.069 C 
ATOM      4  N   UNL     1       3.860  -3.033  -0.051  0.00  0.00    -0.181 NA
ATOM      5  N   UNL     1       3.614  -1.923  -0.861  0.00  0.00    -0.187 N 
ATOM      6  C   UNL     1       3.331  -1.956  -2.179  0.00  0.00    +0.219 C 
ATOM      7  O   UNL     1       3.133  -0.924  -2.783  0.00  0.00    -0.276 OA
ENDROOT
BRANCH   3   8
ATOM      8  C   UNL     1       4.403  -3.722   2.242  0.00  0.00    -0.002 A 
ATOM      9  C   UNL     1       4.654  -3.276   3.553  0.00  0.00    +0.010 A 
ATOM     10  C   UNL     1       4.927  -4.159   4.547  0.00  0.00    +0.009 A 
ATOM     11  C   UNL     1       4.964  -5.538   4.274  0.00  0.00    -0.018 A 
ATOM     12  C   UNL     1       5.245  -6.470   5.288  0.00  0.00    +0.008 A 
ATOM     13  C   UNL     1       5.273  -7.799   4.994  0.00  0.00    +0.001 A 
ATOM     14  C   UNL     1       5.027  -8.254   3.700  0.00  0.00    +0.001 A 
ATOM     15  C   UNL     1       4.752  -7.382   2.692  0.00  0.00    +0.008 A 
ATOM     16  C   UNL     1       4.713  -6.001   2.957  0.00  0.00    -0.017 A 
ATOM     17  C   UNL     1       4.427  -5.075   1.943  0.00  0.00    +0.018 A 
ENDBRANCH   3   8
BRANCH   1  21
ATOM     18  C   UNL     1      -0.017   1.378   0.010  0.00  0.00    +0.000 A 
ATOM     19  C   UNL     1       1.171   2.086   0.002  0.00  0.00    +0.000 A 
ATOM     20  C   UNL     1       2.377   1.411  -0.013  0.00  0.00    +0.005 A 
ATOM     21  C   UNL     1       2.396   0.029  -0.020  0.00  0.00    -0.025 A 
ATOM     22  C   UNL     1       1.208  -0.679  -0.012  0.00  0.00    +0.005 A 
ATOM     23  C   UNL     1       0.002  -0.004   0.002  0.00  0.00    +0.000 A 
ENDBRANCH   1  21
BRANCH   6  24
ATOM     24  C   UNL     1       3.263  -3.277  -2.901  0.00  0.00    +0.021 C 
BRANCH  24  25
ATOM     25  N   UNL     1       2.942  -3.046  -4.316  0.00  0.00    +0.387 N 
ATOM     26  C   UNL     1       1.598  -2.463  -4.422  0.00  0.00    -0.059 C 
ATOM     27  C   UNL     1       1.308  -2.115  -5.886  0.00  0.00    +0.086 C 
ATOM     28  N   UNL     1       1.513  -3.322  -6.701  0.00  0.00    -0.332 N 
ATOM     29  C   UNL     1       2.772  -4.065  -6.537  0.00  0.00    +0.086 C 
ATOM     30  C   UNL     1       2.993  -4.321  -5.042  0.00  0.00    -0.059 C 
ATOM     31  H   UNL     1       3.615  -2.407  -4.712  0.00  0.00    -0.081 HD
BRANCH  28  32
ATOM     32  C   UNL     1       0.539  -3.751  -7.606  0.00  0.00    +0.060 A 
ATOM     33  C   UNL     1       0.564  -3.301  -8.921  0.00  0.00    +0.025 A 
ATOM     34  C   UNL     1      -0.399  -3.727  -9.813  0.00  0.00    +0.002 A 
ATOM     35  C   UNL     1      -1.389  -4.601  -9.400  0.00  0.00    +0.002 A 
ATOM     36  C   UNL     1      -1.417  -5.050  -8.093  0.00  0.00    +0.034 A 
ATOM     37  C   UNL     1      -0.453  -4.632  -7.196  0.00  0.00    +0.147 A 
BRANCH  37  38
ATOM     38  N   UNL     1      -0.480  -5.119  -5.799  0.00  0.00    +0.058 N 
ATOM     39  O   UNL     1      -1.344  -5.886  -5.443  0.00  0.00    -0.126 OA
ATOM     40  O   UNL     1       0.361  -4.749  -5.013  0.00  0.00    -0.126 OA
ENDBRANCH  37  38
ENDBRANCH  28  32
ENDBRANCH  24  25
ENDBRANCH   6  24
TORSDOF 6
