REMARK  Name = ZINC40996954
REMARK  4 active torsions:
REMARK  status: ('A' for Active; 'I' for Inactive)
REMARK    1  A    between atoms: C_1  and  N_2
REMARK    2  A    between atoms: N_2  and  C_3
REMARK    3  A    between atoms: C_3  and  C_4
REMARK    4  A    between atoms: C_7  and  C_9
REMARK                            x       y       z     vdW  Elec       q    Type
REMARK                         _______ _______ _______ _____ _____    ______ ____
ROOT
ATOM      1  C   UNL     1       0.040  -6.063   1.597  0.00  0.00    +0.012 A 
ATOM      2  C   UNL     1       0.865  -7.087   1.126  0.00  0.00    +0.060 A 
ATOM      3  C   UNL     1       0.508  -8.405   1.338  0.00  0.00    +0.164 A 
ATOM      4  C   UNL     1      -0.666  -8.710   2.016  0.00  0.00    +0.176 A 
ATOM      5  C   UNL     1      -1.487  -7.696   2.485  0.00  0.00    +0.064 A 
ATOM      6  C   UNL     1      -1.135  -6.376   2.283  0.00  0.00    +0.029 A 
ATOM      7 BR   UNL     1      -3.083  -8.120   3.407  0.00  0.00    -0.046 Br
ATOM      8  O   UNL     1      -1.006 -10.016   2.218  0.00  0.00    -0.487 OA
ATOM      9  C   UNL     1      -1.362 -10.758   1.050  0.00  0.00    +0.232 C 
ATOM     10  C   UNL     1      -0.123 -11.305   0.358  0.00  0.00    +0.082 C 
ATOM     11  C   UNL     1       0.773 -10.202  -0.182  0.00  0.00    +0.232 C 
ATOM     12  O   UNL     1       1.306  -9.414   0.884  0.00  0.00    -0.488 OA
ENDROOT
BRANCH   1  16
ATOM     13  C   UNL     1       0.733  -1.998   1.184  0.00  0.00    -0.007 A 
ATOM     14  C   UNL     1       1.648  -2.850   0.652  0.00  0.00    +0.120 A 
ATOM     15  N   UNL     1       1.473  -4.147   0.758  0.00  0.00    -0.247 NA
ATOM     16  C   UNL     1       0.414  -4.650   1.376  0.00  0.00    +0.109 A 
ATOM     17  S   UNL     1      -0.436  -3.159   1.877  0.00  0.00    -0.074 S 
BRANCH  13  18
ATOM     18  C   UNL     1       0.713  -0.491   1.192  0.00  0.00    -0.038 C 
BRANCH  18  20
ATOM     19  C   UNL     1      -0.018   1.465   0.010  0.00  0.00    -0.100 C 
ATOM     20  N   UNL     1       0.002  -0.004   0.002  0.00  0.00    +0.380 N 
ATOM     21  H   UNL     1      -0.945  -0.353   0.009  0.00  0.00    -0.086 HD
ATOM     22  H   UNL     1       0.474  -0.330  -0.828  0.00  0.00    -0.086 HD
ENDBRANCH  18  20
ENDBRANCH  13  18
ENDBRANCH   1  16
TORSDOF 3
