REMARK  Name = ZINC38660876
REMARK  11 active torsions:
REMARK  status: ('A' for Active; 'I' for Inactive)
REMARK    1  A    between atoms: C_1  and  C_2
REMARK    2  A    between atoms: C_2  and  C_4
REMARK    3  A    between atoms: C_2  and  O_34
REMARK    4  A    between atoms: C_4  and  O_6
REMARK    5  A    between atoms: O_6  and  C_7
REMARK    6  A    between atoms: C_14  and  N_33
REMARK    7  A    between atoms: C_15  and  C_31
REMARK    8  A    between atoms: C_16  and  C_18
REMARK    9  A    between atoms: C_22  and  O_24
REMARK   10  A    between atoms: O_24  and  C_25
REMARK   11  A    between atoms: O_34  and  C_35
REMARK                            x       y       z     vdW  Elec       q    Type
REMARK                         _______ _______ _______ _____ _____    ______ ____
ROOT
ATOM      1  C   UNL     1       0.323   0.356  -3.203  0.00  0.00    +0.135 A 
ATOM      2  C   UNL     1       1.533  -0.289  -2.989  0.00  0.00    +0.047 A 
ATOM      3  C   UNL     1       2.288  -0.713  -4.065  0.00  0.00    +0.012 A 
ATOM      4  C   UNL     1       1.843  -0.498  -5.357  0.00  0.00    +0.008 A 
ATOM      5  C   UNL     1       0.635   0.146  -5.576  0.00  0.00    +0.138 A 
ATOM      6  C   UNL     1      -0.128   0.568  -4.495  0.00  0.00    +0.093 A 
ATOM      7  O   UNL     1       0.182   0.366  -6.835  0.00  0.00    -0.441 OA
ATOM      8  C   UNL     1       1.036   0.323  -7.872  0.00  0.00    +0.199 C 
ATOM      9  C   UNL     1       2.238  -0.295  -7.785  0.00  0.00    +0.098 C 
ATOM     10  C   UNL     1       2.680  -0.969  -6.517  0.00  0.00    +0.098 C 
ENDROOT
BRANCH  10  11
ATOM     11  C   UNL     1       2.532  -2.461  -6.666  0.00  0.00    -0.031 A 
ATOM     12  C   UNL     1       1.287  -3.010  -6.912  0.00  0.00    +0.005 A 
ATOM     13  C   UNL     1       1.147  -4.379  -7.051  0.00  0.00    +0.004 A 
ATOM     14  C   UNL     1       2.252  -5.201  -6.943  0.00  0.00    +0.046 A 
ATOM     15  C   UNL     1       3.502  -4.653  -6.696  0.00  0.00    +0.129 A 
ATOM     16  C   UNL     1       3.640  -3.279  -6.564  0.00  0.00    +0.050 A 
BRANCH  15  17
ATOM     17  O   UNL     1       4.590  -5.460  -6.590  0.00  0.00    -0.456 OA
BRANCH  17  18
ATOM     18  C   UNL     1       5.807  -4.874  -6.440  0.00  0.00    +0.128 A 
ATOM     19  C   UNL     1       6.179  -4.349  -5.210  0.00  0.00    +0.046 A 
ATOM     20  C   UNL     1       7.417  -3.754  -5.061  0.00  0.00    +0.004 A 
ATOM     21  C   UNL     1       8.284  -3.680  -6.135  0.00  0.00    +0.000 A 
ATOM     22  C   UNL     1       7.915  -4.201  -7.362  0.00  0.00    +0.004 A 
ATOM     23  C   UNL     1       6.682  -4.803  -7.515  0.00  0.00    +0.046 A 
ENDBRANCH  17  18
ENDBRANCH  15  17
ENDBRANCH  10  11
BRANCH   8  24
ATOM     24  N   UNL     1       0.679   0.923  -9.053  0.00  0.00    -0.328 N 
ATOM     25  H   UNL     1      -0.178   1.369  -9.131  0.00  0.00    +0.145 HD
ATOM     26  H   UNL     1       1.285   0.900  -9.811  0.00  0.00    +0.145 HD
ENDBRANCH   8  24
BRANCH   9  27
ATOM     27  C   UNL     1       3.105  -0.306  -8.925  0.00  0.00    +0.101 C 
ATOM     28  N   UNL     1       3.792  -0.316  -9.829  0.00  0.00    -0.191 NA
ENDBRANCH   9  27
BRANCH   1  29
ATOM     29  O   UNL     1      -0.421   0.775  -2.145  0.00  0.00    -0.423 OA
BRANCH  29  30
ATOM     30  C   UNL     1      -0.021   1.876  -1.489  0.00  0.00    +0.353 C 
ATOM     31  O   UNL     1       0.917   2.517  -1.901  0.00  0.00    -0.246 OA
BRANCH  30  33
ATOM     32  C   UNL     1      -2.177   2.712  -0.593  0.00  0.00    +0.064 C 
ATOM     33  C   UNL     1      -0.742   2.314  -0.240  0.00  0.00    +0.279 C 
BRANCH  33  34
ATOM     34  O   UNL     1      -0.064   3.433   0.334  0.00  0.00    -0.475 OA
BRANCH  34  35
ATOM     35  C   UNL     1      -0.259   3.658   1.660  0.00  0.00    +0.157 A 
ATOM     36  C   UNL     1      -1.022   2.776   2.410  0.00  0.00    +0.048 A 
ATOM     37  C   UNL     1      -1.219   3.007   3.758  0.00  0.00    +0.004 A 
ATOM     38  C   UNL     1      -0.657   4.117   4.361  0.00  0.00    +0.003 A 
ATOM     39  C   UNL     1       0.105   4.999   3.617  0.00  0.00    +0.042 A 
ATOM     40  C   UNL     1       0.311   4.770   2.268  0.00  0.00    +0.165 A 
ATOM     41  F   UNL     1       1.060   5.628   1.542  0.00  0.00    -0.202 F 
ENDBRANCH  34  35
ENDBRANCH  33  34
ENDBRANCH  30  33
ENDBRANCH  29  30
ENDBRANCH   1  29
TORSDOF 10
