REMARK  Name = ZINC39927524
REMARK  6 active torsions:
REMARK  status: ('A' for Active; 'I' for Inactive)
REMARK    1  A    between atoms: N_11  and  C_26
REMARK    2  A    between atoms: C_12  and  N_25
REMARK    3  A    between atoms: C_14  and  C_16
REMARK    4  A    between atoms: C_26  and  C_27
REMARK    5  A    between atoms: C_27  and  C_28
REMARK    6  A    between atoms: C_28  and  O_29
REMARK                            x       y       z     vdW  Elec       q    Type
REMARK                         _______ _______ _______ _____ _____    ______ ____
ROOT
ATOM      1  C   UNL     1      -0.016   1.357   0.009  0.00  0.00    +0.002 A 
ATOM      2  C   UNL     1       1.169   2.089   0.002  0.00  0.00    +0.002 A 
ATOM      3  C   UNL     1       2.378   1.464  -0.013  0.00  0.00    +0.030 A 
ATOM      4  C   UNL     1       2.437   0.060  -0.021  0.00  0.00    +0.091 A 
ATOM      5  C   UNL     1       1.231  -0.684  -0.013  0.00  0.00    +0.090 A 
ATOM      6  C   UNL     1       0.002  -0.004   0.002  0.00  0.00    +0.030 A 
ATOM      7  N   UNL     1       1.282  -2.021  -0.022  0.00  0.00    -0.246 NA
ATOM      8  C   UNL     1       2.443  -2.633  -0.036  0.00  0.00    +0.092 A 
ATOM      9  C   UNL     1       3.645  -1.907  -0.044  0.00  0.00    +0.143 A 
ATOM     10  N   UNL     1       3.610  -0.580  -0.036  0.00  0.00    -0.229 NA
ATOM     11  N   UNL     1       4.746  -2.749  -0.060  0.00  0.00    -0.327 N 
ATOM     12  C   UNL     1       4.318  -4.149  -0.063  0.00  0.00    +0.031 C 
ATOM     13  C   UNL     1       2.781  -4.108  -0.048  0.00  0.00    +0.109 C 
ENDROOT
BRANCH  13  14
ATOM     14  C   UNL     1       2.225  -4.765  -1.285  0.00  0.00    +0.117 A 
ATOM     15  N   UNL     1       1.782  -5.987  -1.344  0.00  0.00    -0.232 NA
ATOM     16  C   UNL     1       1.355  -6.257  -2.604  0.00  0.00    +0.089 A 
ATOM     17  C   UNL     1       0.799  -7.386  -3.212  0.00  0.00    +0.030 A 
ATOM     18  C   UNL     1       0.462  -7.350  -4.536  0.00  0.00    +0.002 A 
ATOM     19  C   UNL     1       0.664  -6.201  -5.286  0.00  0.00    +0.002 A 
ATOM     20  C   UNL     1       1.211  -5.075  -4.707  0.00  0.00    +0.028 A 
ATOM     21  C   UNL     1       1.560  -5.093  -3.364  0.00  0.00    +0.066 A 
ATOM     22  N   UNL     1       2.106  -4.165  -2.500  0.00  0.00    -0.341 N 
ATOM     23  H   UNL     1       2.360  -3.255  -2.719  0.00  0.00    +0.167 HD
ENDBRANCH  13  14
BRANCH  12  24
ATOM     24  N   UNL     1       4.821  -4.838   1.132  0.00  0.00    +0.391 N 
ATOM     25  H   UNL     1       4.480  -4.371   1.959  0.00  0.00    -0.087 HD
ATOM     26  H   UNL     1       4.500  -5.795   1.130  0.00  0.00    -0.087 HD
ATOM     27  H   UNL     1       5.830  -4.823   1.129  0.00  0.00    -0.087 HD
ENDBRANCH  12  24
BRANCH  11  28
ATOM     28  C   UNL     1       6.141  -2.301  -0.071  0.00  0.00    +0.107 C 
BRANCH  28  29
ATOM     29  C   UNL     1       6.641  -2.154   1.368  0.00  0.00    +0.047 C 
BRANCH  29  30
ATOM     30  C   UNL     1       8.098  -1.687   1.356  0.00  0.00    +0.157 C 
BRANCH  30  31
ATOM     31  O   UNL     1       8.565  -1.549   2.700  0.00  0.00    -0.395 OA
ATOM     32  H   UNL     1       9.483  -1.255   2.769  0.00  0.00    +0.209 HD
ENDBRANCH  30  31
ENDBRANCH  29  30
ENDBRANCH  28  29
ENDBRANCH  11  28
TORSDOF 6
