REMARK  Name = ZINC39675486
REMARK  9 active torsions:
REMARK  status: ('A' for Active; 'I' for Inactive)
REMARK    1  A    between atoms: C_1  and  C_2
REMARK    2  A    between atoms: C_2  and  C_4
REMARK    3  A    between atoms: C_2  and  N_14
REMARK    4  A    between atoms: C_4  and  C_5
REMARK    5  A    between atoms: C_5  and  C_6
REMARK    6  A    between atoms: C_9  and  O_12
REMARK    7  A    between atoms: O_12  and  C_13
REMARK    8  A    between atoms: C_15  and  C_17
REMARK    9  A    between atoms: C_28  and  C_30
REMARK                            x       y       z     vdW  Elec       q    Type
REMARK                         _______ _______ _______ _____ _____    ______ ____
ROOT
ATOM      1  C   UNL     1       2.741  -1.073  -2.452  0.00  0.00    +0.100 C 
ATOM      2  C   UNL     1       2.409  -2.559  -2.714  0.00  0.00    +0.121 C 
ATOM      3  N   UNL     1       3.674  -3.142  -3.220  0.00  0.00    -0.295 N 
ATOM      4  C   UNL     1       4.730  -2.500  -2.399  0.00  0.00    +0.115 C 
ATOM      5  C   UNL     1       4.265  -1.039  -2.246  0.00  0.00    -0.004 C 
ATOM      6  C   UNL     1       4.597  -0.524  -0.848  0.00  0.00    -0.010 C 
ATOM      7  C   UNL     1       6.118  -0.444  -0.687  0.00  0.00    -0.082 C 
ATOM      8  N   UNL     1       6.673   0.455  -1.706  0.00  0.00    +0.379 N 
ATOM      9  C   UNL     1       6.430  -0.096  -3.045  0.00  0.00    -0.082 C 
ATOM     10  C   UNL     1       4.922  -0.161  -3.306  0.00  0.00    -0.010 C 
ATOM     11  C   UNL     1       3.830  -4.049  -4.204  0.00  0.00    +0.265 C 
ATOM     12  O   UNL     1       4.934  -4.495  -4.450  0.00  0.00    -0.268 OA
ATOM     13  H   UNL     1       6.233   1.360  -1.631  0.00  0.00    -0.086 HD
ATOM     14  H   UNL     1       7.667   0.554  -1.560  0.00  0.00    -0.086 HD
ENDROOT
BRANCH  11  15
ATOM     15  C   UNL     1       2.655  -4.504  -4.986  0.00  0.00    +0.126 A 
ATOM     16  C   UNL     1       2.816  -5.531  -5.928  0.00  0.00    +0.033 A 
ATOM     17  C   UNL     1       1.742  -5.959  -6.655  0.00  0.00    +0.012 A 
ATOM     18  C   UNL     1       0.496  -5.344  -6.427  0.00  0.00    +0.000 A 
ATOM     19  C   UNL     1      -0.650  -5.735  -7.138  0.00  0.00    +0.010 A 
ATOM     20  C   UNL     1      -1.839  -5.119  -6.891  0.00  0.00    +0.001 A 
ATOM     21  C   UNL     1      -1.935  -4.103  -5.940  0.00  0.00    +0.002 A 
ATOM     22  C   UNL     1      -0.846  -3.698  -5.233  0.00  0.00    +0.028 A 
ATOM     23  C   UNL     1       0.402  -4.311  -5.459  0.00  0.00    +0.072 A 
ATOM     24  N   UNL     1       1.483  -3.937  -4.776  0.00  0.00    -0.242 NA
ENDBRANCH  11  15
BRANCH   1  26
ATOM     25  N   UNL     1       1.830   0.733  -1.028  0.00  0.00    -0.312 N 
ATOM     26  C   UNL     1       2.033  -0.587  -1.214  0.00  0.00    +0.218 C 
ATOM     27  O   UNL     1       1.645  -1.383  -0.386  0.00  0.00    -0.275 OA
ATOM     28  H   UNL     1       2.140   1.369  -1.690  0.00  0.00    +0.149 HD
BRANCH  25  30
ATOM     29  C   UNL     1       2.150   1.347   1.318  0.00  0.00    +0.028 C 
ATOM     30  C   UNL     1       1.141   1.205   0.176  0.00  0.00    +0.070 C 
BRANCH  30  31
ATOM     31  C   UNL     1       0.495   2.563  -0.106  0.00  0.00    +0.026 C 
BRANCH  31  32
ATOM     32  C   UNL     1      -0.601   2.397  -1.161  0.00  0.00    +0.037 C 
BRANCH  32  33
ATOM     33  C   UNL     1      -1.238   3.734  -1.438  0.00  0.00    -0.047 A 
ATOM     34  C   UNL     1      -2.328   4.146  -0.696  0.00  0.00    +0.007 A 
ATOM     35  C   UNL     1      -2.914   5.372  -0.949  0.00  0.00    +0.046 A 
ATOM     36  C   UNL     1      -2.407   6.189  -1.948  0.00  0.00    +0.120 A 
ATOM     37  C   UNL     1      -1.312   5.772  -2.692  0.00  0.00    +0.046 A 
ATOM     38  C   UNL     1      -0.727   4.549  -2.432  0.00  0.00    +0.007 A 
BRANCH  36  39
ATOM     39  O   UNL     1      -2.982   7.394  -2.200  0.00  0.00    -0.495 OA
ATOM     40  C   UNL     1      -2.406   8.182  -3.244  0.00  0.00    +0.277 C 
ENDBRANCH  36  39
ENDBRANCH  32  33
ENDBRANCH  31  32
ENDBRANCH  30  31
ENDBRANCH  25  30
ENDBRANCH   1  26
TORSDOF 7
