REMARK  Name = ZINC54945955
REMARK  11 active torsions:
REMARK  status: ('A' for Active; 'I' for Inactive)
REMARK    1  A    between atoms: C_1  and  C_2
REMARK    2  A    between atoms: C_5  and  C_30
REMARK    3  A    between atoms: N_8  and  C_10
REMARK    4  A    between atoms: C_10  and  C_11
REMARK    5  A    between atoms: C_10  and  C_12
REMARK    6  A    between atoms: C_10  and  C_13
REMARK    7  A    between atoms: C_13  and  N_14
REMARK    8  A    between atoms: C_15  and  C_17
REMARK    9  A    between atoms: N_19  and  C_20
REMARK   10  A    between atoms: C_23  and  C_26
REMARK   11  A    between atoms: C_26  and  C_27
REMARK                            x       y       z     vdW  Elec       q    Type
REMARK                         _______ _______ _______ _____ _____    ______ ____
ROOT
ATOM      1  N   UNL     1       2.036   1.663   3.454  0.00  0.00    -0.309 N 
ATOM      2  C   UNL     1       1.538   2.460   4.420  0.00  0.00    +0.299 C 
ATOM      3  O   UNL     1       1.191   1.984   5.481  0.00  0.00    -0.265 OA
ATOM      4  H   UNL     1       2.314   2.044   2.606  0.00  0.00    +0.149 HD
ENDROOT
BRANCH   2   5
ATOM      5  C   UNL     1       1.413   3.930   4.186  0.00  0.00    +0.303 C 
ATOM      6  O   UNL     1       1.760   4.406   3.125  0.00  0.00    -0.265 OA
ATOM      7  N   UNL     1       0.915   4.727   5.152  0.00  0.00    -0.278 N 
ATOM      8  H   UNL     1       0.578   4.339   5.974  0.00  0.00    +0.155 HD
BRANCH   7   9
ATOM      9  C   UNL     1       0.885   6.112   4.968  0.00  0.00    +0.034 A 
ATOM     10  C   UNL     1       1.121   6.962   6.041  0.00  0.00    +0.023 A 
ATOM     11  C   UNL     1       1.090   8.330   5.856  0.00  0.00    +0.006 A 
ATOM     12  C   UNL     1       0.824   8.854   4.604  0.00  0.00    -0.039 A 
ATOM     13  C   UNL     1       0.587   8.011   3.534  0.00  0.00    +0.006 A 
ATOM     14  C   UNL     1       0.623   6.641   3.711  0.00  0.00    +0.023 A 
BRANCH  12  15
ATOM     15  C   UNL     1       0.790  10.348   4.407  0.00  0.00    +0.130 C 
BRANCH  15  16
ATOM     16  C   UNL     1       2.168  10.837   4.042  0.00  0.00    +0.215 C 
ATOM     17  O   UNL     1       3.087  10.050   3.951  0.00  0.00    -0.276 OA
ATOM     18  N   UNL     1       2.380  12.148   3.816  0.00  0.00    -0.329 N 
ATOM     19  H   UNL     1       1.645  12.778   3.888  0.00  0.00    +0.145 HD
ATOM     20  H   UNL     1       3.267  12.463   3.581  0.00  0.00    +0.145 HD
ENDBRANCH  15  16
ENDBRANCH  12  15
ENDBRANCH   7   9
ENDBRANCH   2   5
BRANCH   1  21
ATOM     21  C   UNL     1       2.159   0.222   3.685  0.00  0.00    +0.092 C 
BRANCH  21  22
ATOM     22  C   UNL     1       2.845  -0.430   2.483  0.00  0.00    -0.055 C 
ATOM     23  C   UNL     1       2.901  -1.946   2.688  0.00  0.00    -0.008 C 
ATOM     24  C   UNL     1       4.267   0.119   2.348  0.00  0.00    -0.008 C 
BRANCH  22  30
ATOM     25  C   UNL     1      -0.135   1.271   0.028  0.00  0.00    +0.005 C 
ATOM     26  C   UNL     1      -0.103  -0.253   0.168  0.00  0.00    -0.031 C 
ATOM     27  C   UNL     1       0.544  -0.867  -1.077  0.00  0.00    +0.003 C 
ATOM     28  C   UNL     1       1.996  -0.391  -1.173  0.00  0.00    -0.031 C 
ATOM     29  C   UNL     1       2.737  -0.768   0.112  0.00  0.00    -0.075 C 
ATOM     30  N   UNL     1       2.086  -0.129   1.262  0.00  0.00    +0.384 N 
ATOM     31  C   UNL     1       0.714  -0.635   1.404  0.00  0.00    -0.075 C 
ATOM     32  C   UNL     1       2.675  -1.060  -2.370  0.00  0.00    +0.005 C 
ATOM     33  H   UNL     1       2.062   0.870   1.121  0.00  0.00    -0.081 HD
ENDBRANCH  22  30
ENDBRANCH  21  22
ENDBRANCH   1  21
TORSDOF 7
