REMARK  Name = ZINC39664641
REMARK  10 active torsions:
REMARK  status: ('A' for Active; 'I' for Inactive)
REMARK    1  A    between atoms: C_1  and  N_2
REMARK    2  A    between atoms: N_2  and  C_3
REMARK    3  A    between atoms: N_2  and  C_4
REMARK    4  A    between atoms: C_4  and  C_5
REMARK    5  A    between atoms: C_5  and  C_7
REMARK    6  A    between atoms: C_5  and  N_13
REMARK    7  A    between atoms: C_14  and  C_16
REMARK    8  A    between atoms: C_27  and  C_29
REMARK    9  A    between atoms: C_32  and  O_35
REMARK   10  A    between atoms: O_35  and  C_36
REMARK                            x       y       z     vdW  Elec       q    Type
REMARK                         _______ _______ _______ _____ _____    ______ ____
ROOT
ATOM      1  C   UNL     1      -1.227   5.000  -1.262  0.00  0.00    +0.100 C 
ATOM      2  C   UNL     1      -0.951   4.675   0.224  0.00  0.00    +0.121 C 
ATOM      3  N   UNL     1       0.526   4.682   0.341  0.00  0.00    -0.296 N 
ATOM      4  C   UNL     1       0.958   5.814  -0.513  0.00  0.00    +0.115 C 
ATOM      5  C   UNL     1       0.027   5.751  -1.741  0.00  0.00    -0.004 C 
ATOM      6  C   UNL     1      -0.343   7.159  -2.196  0.00  0.00    -0.010 C 
ATOM      7  C   UNL     1       0.909   7.866  -2.723  0.00  0.00    -0.082 C 
ATOM      8  N   UNL     1       1.472   7.100  -3.841  0.00  0.00    +0.379 N 
ATOM      9  C   UNL     1       1.911   5.779  -3.373  0.00  0.00    -0.082 C 
ATOM     10  C   UNL     1       0.701   4.984  -2.874  0.00  0.00    -0.010 C 
ATOM     11  C   UNL     1       1.302   3.848   1.062  0.00  0.00    +0.247 C 
ATOM     12  O   UNL     1       2.470   3.695   0.763  0.00  0.00    -0.270 OA
ATOM     13  H   UNL     1       0.770   6.985  -4.556  0.00  0.00    -0.086 HD
ATOM     14  H   UNL     1       2.261   7.598  -4.225  0.00  0.00    -0.086 HD
ENDROOT
BRANCH  11  15
ATOM     15  C   UNL     1       0.732   3.120   2.213  0.00  0.00    +0.037 A 
ATOM     16  C   UNL     1      -0.569   2.615   2.148  0.00  0.00    +0.016 A 
ATOM     17  C   UNL     1      -1.096   1.937   3.224  0.00  0.00    +0.047 A 
ATOM     18  C   UNL     1      -0.336   1.754   4.373  0.00  0.00    +0.130 A 
ATOM     19  C   UNL     1       0.959   2.255   4.442  0.00  0.00    +0.047 A 
ATOM     20  C   UNL     1       1.495   2.930   3.368  0.00  0.00    +0.016 A 
BRANCH  18  21
ATOM     21  O   UNL     1      -0.860   1.086   5.432  0.00  0.00    -0.406 OA
BRANCH  21  22
ATOM     22  C   UNL     1      -0.024   0.934   6.581  0.00  0.00    +0.575 C 
ATOM     23  F   UNL     1       0.328   2.196   7.071  0.00  0.00    -0.133 F 
ATOM     24  F   UNL     1      -0.716   0.227   7.570  0.00  0.00    -0.133 F 
ATOM     25  F   UNL     1       1.133   0.232   6.228  0.00  0.00    -0.133 F 
ENDBRANCH  21  22
ENDBRANCH  18  21
ENDBRANCH  11  15
BRANCH   1  27
ATOM     26  N   UNL     1      -2.078   3.755  -3.222  0.00  0.00    -0.310 N 
ATOM     27  C   UNL     1      -1.411   3.729  -2.051  0.00  0.00    +0.219 C 
ATOM     28  O   UNL     1      -0.959   2.684  -1.633  0.00  0.00    -0.275 OA
ATOM     29  H   UNL     1      -2.373   4.600  -3.594  0.00  0.00    +0.149 HD
BRANCH  26  30
ATOM     30  C   UNL     1      -2.356   2.505  -3.934  0.00  0.00    +0.087 C 
BRANCH  30  31
ATOM     31  C   UNL     1      -2.611   2.801  -5.389  0.00  0.00    -0.029 A 
ATOM     32  C   UNL     1      -3.344   3.917  -5.749  0.00  0.00    +0.005 A 
ATOM     33  C   UNL     1      -3.579   4.188  -7.084  0.00  0.00    +0.000 A 
ATOM     34  C   UNL     1      -3.079   3.345  -8.059  0.00  0.00    +0.000 A 
ATOM     35  C   UNL     1      -2.346   2.230  -7.699  0.00  0.00    +0.000 A 
ATOM     36  C   UNL     1      -2.108   1.961  -6.364  0.00  0.00    +0.005 A 
ENDBRANCH  30  31
BRANCH  30  37
ATOM     37  C   UNL     1      -3.590   1.835  -3.325  0.00  0.00    -0.052 C 
BRANCH  37  39
ATOM     38  C   UNL     1      -2.749  -0.164  -4.351  0.00  0.00    -0.097 C 
ATOM     39  N   UNL     1      -3.948   0.653  -4.121  0.00  0.00    +0.377 N 
ATOM     40  C   UNL     1      -4.949  -0.140  -3.395  0.00  0.00    -0.097 C 
ATOM     41  H   UNL     1      -4.330   0.948  -5.007  0.00  0.00    -0.083 HD
ENDBRANCH  37  39
ENDBRANCH  30  37
ENDBRANCH  26  30
ENDBRANCH   1  27
TORSDOF 8
