REMARK  Name = ZINC00799703
REMARK  5 active torsions:
REMARK  status: ('A' for Active; 'I' for Inactive)
REMARK    1  A    between atoms: C_1  and  C_2
REMARK    2  A    between atoms: C_2  and  C_3
REMARK    3  A    between atoms: C_6  and  C_8
REMARK    4  A    between atoms: C_6  and  O_15
REMARK    5  A    between atoms: C_16  and  C_18
REMARK                            x       y       z     vdW  Elec       q    Type
REMARK                         _______ _______ _______ _____ _____    ______ ____
ROOT
ATOM      1  C   UNL     1       1.468   7.980  -0.188  0.00  0.00    +0.042 C 
ATOM      2  N   UNL     1       1.244   6.733  -0.093  0.00  0.00    -0.183 NA
ATOM      3  N   UNL     1       2.388   5.939  -0.090  0.00  0.00    -0.153 N 
ATOM      4  C   UNL     1       3.568   6.810  -0.213  0.00  0.00    +0.187 C 
ATOM      5  C   UNL     1       2.958   8.225  -0.282  0.00  0.00    +0.114 C 
ATOM      6  C   UNL     1       2.411   4.594   0.004  0.00  0.00    +0.269 C 
ATOM      7  O   UNL     1       3.473   4.008   0.086  0.00  0.00    -0.268 OA
ENDROOT
BRANCH   4   8
ATOM      8  C   UNL     1       4.333   6.496  -1.473  0.00  0.00    +0.004 A 
ATOM      9  C   UNL     1       5.696   6.721  -1.528  0.00  0.00    +0.009 A 
ATOM     10  C   UNL     1       6.399   6.428  -2.682  0.00  0.00    +0.016 A 
ATOM     11  C   UNL     1       5.736   5.919  -3.785  0.00  0.00    +0.018 A 
ATOM     12  C   UNL     1       4.372   5.698  -3.730  0.00  0.00    +0.016 A 
ATOM     13  C   UNL     1       3.671   5.987  -2.574  0.00  0.00    +0.009 A 
ATOM     14 BR   UNL     1       6.696   5.524  -5.365  0.00  0.00    -0.050 Br
ENDBRANCH   4   8
BRANCH   6  15
ATOM     15  C   UNL     1       1.144   3.832   0.008  0.00  0.00    +0.040 A 
ATOM     16  C   UNL     1      -0.079   4.505   0.044  0.00  0.00    +0.013 A 
ATOM     17  C   UNL     1      -1.257   3.788   0.048  0.00  0.00    +0.002 A 
ATOM     18  C   UNL     1      -1.230   2.406   0.009  0.00  0.00    +0.020 A 
ATOM     19  C   UNL     1      -0.021   1.732  -0.021  0.00  0.00    +0.042 A 
ATOM     20  C   UNL     1       1.166   2.437  -0.025  0.00  0.00    +0.033 A 
ATOM     21 CL   UNL     1       0.003  -0.004  -0.062  0.00  0.00    -0.084 Cl
ENDBRANCH   6  15
BRANCH   1  23
ATOM     22  C   UNL     1      -0.972   8.407  -0.092  0.00  0.00    +0.010 C 
ATOM     23  C   UNL     1       0.410   9.052  -0.210  0.00  0.00    +0.049 C 
ENDBRANCH   1  23
BRANCH   4  24
ATOM     24  O   UNL     1       4.412   6.681   0.933  0.00  0.00    -0.366 OA
ATOM     25  H   UNL     1       4.764   5.790   1.063  0.00  0.00    +0.212 HD
ENDBRANCH   4  24
TORSDOF 4
