REMARK  Name = ZINC50703434
REMARK  5 active torsions:
REMARK  status: ('A' for Active; 'I' for Inactive)
REMARK    1  A    between atoms: C_1  and  O_2
REMARK    2  A    between atoms: O_2  and  C_3
REMARK    3  A    between atoms: C_3  and  C_5
REMARK    4  A    between atoms: C_8  and  C_11
REMARK    5  A    between atoms: C_29  and  C_31
REMARK                            x       y       z     vdW  Elec       q    Type
REMARK                         _______ _______ _______ _____ _____    ______ ____
ROOT
ATOM      1  C   UNL     1       0.827  -6.343  -1.340  0.00  0.00    +0.215 C 
ATOM      2  C   UNL     1      -0.337  -6.857  -2.188  0.00  0.00    +0.113 C 
ATOM      3  C   UNL     1      -0.159  -6.210  -3.552  0.00  0.00    +0.065 C 
ATOM      4  C   UNL     1       1.195  -6.226  -4.119  0.00  0.00    +0.040 A 
ATOM      5  C   UNL     1       1.422  -5.986  -5.473  0.00  0.00    +0.033 A 
ATOM      6  C   UNL     1       2.713  -6.003  -5.961  0.00  0.00    +0.042 A 
ATOM      7  C   UNL     1       3.776  -6.257  -5.108  0.00  0.00    +0.023 A 
ATOM      8  C   UNL     1       3.561  -6.499  -3.766  0.00  0.00    +0.048 A 
ATOM      9  C   UNL     1       2.272  -6.490  -3.254  0.00  0.00    +0.130 A 
ATOM     10  O   UNL     1       2.061  -6.742  -1.939  0.00  0.00    -0.483 OA
ATOM     11 CL   UNL     1       3.006  -5.705  -7.646  0.00  0.00    -0.084 Cl
ATOM     12  N   UNL     1      -1.158  -5.625  -4.124  0.00  0.00    -0.215 NA
ATOM     13  C   UNL     1      -2.374  -5.442  -3.551  0.00  0.00    +0.249 A 
ATOM     14  N   UNL     1      -3.477  -4.891  -4.044  0.00  0.00    -0.198 NA
ATOM     15  C   UNL     1      -4.433  -4.885  -3.121  0.00  0.00    +0.247 A 
ATOM     16  N   UNL     1      -3.981  -5.434  -2.023  0.00  0.00    -0.156 NA
ATOM     17  N   UNL     1      -2.660  -5.823  -2.280  0.00  0.00    -0.221 N 
ATOM     18  C   UNL     1      -1.656  -6.527  -1.468  0.00  0.00    +0.156 C 
ENDROOT
BRANCH  18  19
ATOM     19  C   UNL     1      -2.264  -7.816  -0.978  0.00  0.00    +0.013 A 
ATOM     20  C   UNL     1      -2.590  -8.812  -1.879  0.00  0.00    +0.008 A 
ATOM     21  C   UNL     1      -3.147  -9.995  -1.431  0.00  0.00    +0.001 A 
ATOM     22  C   UNL     1      -3.379 -10.183  -0.081  0.00  0.00    +0.003 A 
ATOM     23  C   UNL     1      -3.053  -9.189   0.822  0.00  0.00    +0.039 A 
ATOM     24  C   UNL     1      -2.490  -8.005   0.374  0.00  0.00    +0.129 A 
ATOM     25  F   UNL     1      -2.167  -7.034   1.256  0.00  0.00    -0.205 F 
ENDBRANCH  18  19
BRANCH   1  29
ATOM     26  C   UNL     1       0.658  -2.076  -1.122  0.00  0.00    +0.059 A 
ATOM     27  C   UNL     1       1.355  -2.698  -2.159  0.00  0.00    +0.015 A 
ATOM     28  C   UNL     1       1.406  -4.075  -2.224  0.00  0.00    +0.008 A 
ATOM     29  C   UNL     1       0.767  -4.840  -1.263  0.00  0.00    -0.007 A 
ATOM     30  C   UNL     1       0.074  -4.229  -0.233  0.00  0.00    +0.008 A 
ATOM     31  C   UNL     1       0.021  -2.853  -0.153  0.00  0.00    +0.015 A 
BRANCH  26  32
ATOM     32  C   UNL     1       0.600  -0.602  -1.046  0.00  0.00    +0.339 C 
ATOM     33  O   UNL     1      -0.003  -0.063  -0.140  0.00  0.00    -0.245 OA
BRANCH  32  35
ATOM     34  C   UNL     1       1.119   1.565  -1.848  0.00  0.00    +0.280 C 
ATOM     35  O   UNL     1       1.216   0.145  -1.983  0.00  0.00    -0.464 OA
ENDBRANCH  32  35
ENDBRANCH  26  32
ENDBRANCH   1  29
TORSDOF 4
