REMARK  Name = ZINC20220473
REMARK  11 active torsions:
REMARK  status: ('A' for Active; 'I' for Inactive)
REMARK    1  A    between atoms: C_1  and  O_2
REMARK    2  A    between atoms: O_2  and  C_3
REMARK    3  A    between atoms: C_3  and  C_5
REMARK    4  A    between atoms: C_5  and  C_6
REMARK    5  A    between atoms: C_7  and  C_27
REMARK    6  A    between atoms: C_16  and  N_22
REMARK    7  A    between atoms: C_17  and  C_18
REMARK    8  A    between atoms: C_18  and  O_20
REMARK    9  A    between atoms: O_20  and  C_21
REMARK   10  A    between atoms: C_27  and  O_29
REMARK   11  A    between atoms: O_29  and  C_30
REMARK                            x       y       z     vdW  Elec       q    Type
REMARK                         _______ _______ _______ _____ _____    ______ ____
ROOT
ATOM      1  C   UNL     1      -3.078   1.518   1.503  0.00  0.00    +0.131 C 
ATOM      2  C   UNL     1      -1.896   2.154   1.573  0.00  0.00    +0.101 C 
ATOM      3  C   UNL     1      -1.343   2.145   0.164  0.00  0.00    +0.164 C 
ATOM      4  C   UNL     1      -0.051   1.383   0.119  0.00  0.00    +0.001 A 
ATOM      5  C   UNL     1      -0.066   0.003   0.218  0.00  0.00    +0.022 A 
ATOM      6  C   UNL     1       1.118  -0.710   0.189  0.00  0.00    +0.018 A 
ATOM      7  C   UNL     1       2.326  -0.047   0.060  0.00  0.00    +0.017 A 
ATOM      8  C   UNL     1       2.349   1.330  -0.042  0.00  0.00    +0.024 A 
ATOM      9  C   UNL     1       1.160   2.048  -0.014  0.00  0.00    +0.037 A 
ATOM     10  N   UNL     1       1.188   3.442  -0.126  0.00  0.00    -0.302 N 
ATOM     11  C   UNL     1       0.053   4.130  -0.463  0.00  0.00    +0.097 C 
ATOM     12  C   UNL     1      -1.183   3.545  -0.344  0.00  0.00    +0.098 C 
ATOM     13 BR   UNL     1       1.088  -2.596   0.326  0.00  0.00    -0.050 Br
ATOM     14  C   UNL     1      -2.409   1.417  -0.625  0.00  0.00    +0.332 C 
ATOM     15  O   UNL     1      -2.401   1.169  -1.808  0.00  0.00    -0.249 OA
ATOM     16  O   UNL     1      -3.367   1.102   0.263  0.00  0.00    -0.428 OA
ATOM     17  H   UNL     1       2.125   3.989   0.057  0.00  0.00    +0.153 HD
ENDROOT
BRANCH  11  18
ATOM     18  N   UNL     1       0.153   5.418  -0.923  0.00  0.00    -0.346 N 
ATOM     19  H   UNL     1      -0.755   5.976  -1.195  0.00  0.00    +0.143 HD
ATOM     20  H   UNL     1       1.141   5.892  -1.020  0.00  0.00    +0.143 HD
ENDBRANCH  11  18
BRANCH  12  21
ATOM     21  C   UNL     1      -2.321   4.276  -0.704  0.00  0.00    +0.340 C 
ATOM     22  O   UNL     1      -3.004   4.803   0.156  0.00  0.00    -0.245 OA
BRANCH  21  23
ATOM     23  O   UNL     1      -2.663   4.396  -2.006  0.00  0.00    -0.465 OA
ATOM     24  C   UNL     1      -3.837   5.155  -2.301  0.00  0.00    +0.280 C 
ENDBRANCH  21  23
ENDBRANCH  12  21
BRANCH   2  25
ATOM     25  C   UNL     1      -1.294   2.716   2.726  0.00  0.00    +0.340 C 
ATOM     26  O   UNL     1      -1.858   2.649   3.801  0.00  0.00    -0.245 OA
BRANCH  25  27
ATOM     27  O   UNL     1      -0.095   3.327   2.631  0.00  0.00    -0.465 OA
ATOM     28  C   UNL     1       0.454   3.871   3.833  0.00  0.00    +0.280 C 
ENDBRANCH  25  27
ENDBRANCH   2  25
BRANCH   1  29
ATOM     29  C   UNL     1      -3.979   1.296   2.690  0.00  0.00    +0.195 C 
BRANCH  29  30
ATOM     30  C   UNL     1      -5.008   2.395   2.752  0.00  0.00    +0.314 C 
ATOM     31  O   UNL     1      -5.010   3.268   1.917  0.00  0.00    -0.250 OA
BRANCH  30  33
ATOM     32  C   UNL     1      -6.884   3.491   3.731  0.00  0.00    +0.280 C 
ATOM     33  O   UNL     1      -5.923   2.403   3.734  0.00  0.00    -0.468 OA
ENDBRANCH  30  33
ENDBRANCH  29  30
ENDBRANCH   1  29
TORSDOF 8
