REMARK  Name = ZINC40688231
REMARK  6 active torsions:
REMARK  status: ('A' for Active; 'I' for Inactive)
REMARK    1  A    between atoms: C_1  and  C_2
REMARK    2  A    between atoms: C_2  and  C_3
REMARK    3  A    between atoms: C_8  and  N_9
REMARK    4  A    between atoms: C_11  and  N_27
REMARK    5  A    between atoms: C_12  and  N_16
REMARK    6  A    between atoms: N_16  and  C_17
REMARK                            x       y       z     vdW  Elec       q    Type
REMARK                         _______ _______ _______ _____ _____    ______ ____
ROOT
ATOM      1  N   UNL     1      -1.506  -0.315  -2.390  0.00  0.00    -0.298 N 
ATOM      2  C   UNL     1      -2.169  -0.549  -3.590  0.00  0.00    +0.149 A 
ATOM      3  C   UNL     1      -1.532  -0.309  -4.810  0.00  0.00    +0.105 A 
ATOM      4  C   UNL     1      -2.243  -0.560  -5.985  0.00  0.00    +0.145 A 
ATOM      5  N   UNL     1      -3.491  -1.015  -5.899  0.00  0.00    -0.219 NA
ATOM      6  C   UNL     1      -4.055  -1.228  -4.727  0.00  0.00    +0.225 A 
ATOM      7  N   UNL     1      -3.417  -1.009  -3.595  0.00  0.00    -0.219 NA
ATOM      8  H   UNL     1      -0.567  -0.074  -2.394  0.00  0.00    +0.154 HD
ENDROOT
BRANCH   1  14
ATOM      9  C   UNL     1      -1.508  -0.753  -0.016  0.00  0.00    -0.026 A 
ATOM     10  C   UNL     1      -2.190  -0.858   1.180  0.00  0.00    +0.005 A 
ATOM     11  C   UNL     1      -3.556  -0.645   1.220  0.00  0.00    +0.000 A 
ATOM     12  C   UNL     1      -4.243  -0.326   0.063  0.00  0.00    +0.002 A 
ATOM     13  C   UNL     1      -3.568  -0.220  -1.136  0.00  0.00    +0.023 A 
ATOM     14  C   UNL     1      -2.195  -0.428  -1.179  0.00  0.00    +0.036 A 
BRANCH   9  16
ATOM     15  C   UNL     1       0.709   0.355   0.061  0.00  0.00    +0.009 C 
ATOM     16  C   UNL     1      -0.019  -0.985  -0.059  0.00  0.00    +0.033 C 
ENDBRANCH   9  16
ENDBRANCH   1  14
BRANCH   3  17
ATOM     17  N   UNL     1      -0.214   0.172  -4.853  0.00  0.00    -0.353 N 
ATOM     18  H   UNL     1       0.268   0.342  -4.028  0.00  0.00    +0.143 HD
ATOM     19  H   UNL     1       0.216   0.334  -5.707  0.00  0.00    +0.143 HD
ENDBRANCH   3  17
BRANCH   4  20
ATOM     20  N   UNL     1      -1.657  -0.338  -7.225  0.00  0.00    -0.322 N 
ATOM     21  H   UNL     1      -0.747  -0.006  -7.279  0.00  0.00    +0.148 HD
BRANCH  20  22
ATOM     22  C   UNL     1      -2.413  -0.606  -8.451  0.00  0.00    +0.034 C 
ATOM     23  C   UNL     1      -3.670   0.266  -8.475  0.00  0.00    +0.029 C 
ATOM     24  C   UNL     1      -4.459  -0.014  -9.756  0.00  0.00    -0.008 C 
ATOM     25  C   UNL     1      -3.590   0.311 -10.972  0.00  0.00    +0.007 C 
ATOM     26  C   UNL     1      -2.333  -0.560 -10.948  0.00  0.00    -0.008 C 
ATOM     27  C   UNL     1      -1.543  -0.281  -9.667  0.00  0.00    +0.029 C 
ATOM     28  C   UNL     1      -2.735  -2.036 -10.988  0.00  0.00    +0.007 C 
ATOM     29  C   UNL     1      -3.604  -2.361  -9.771  0.00  0.00    -0.008 C 
ATOM     30  C   UNL     1      -4.861  -1.489  -9.795  0.00  0.00    +0.007 C 
ATOM     31  C   UNL     1      -2.814  -2.082  -8.491  0.00  0.00    +0.029 C 
ENDBRANCH  20  22
ENDBRANCH   4  20
TORSDOF 5
