REMARK  Name = ZINC59888566
REMARK  12 active torsions:
REMARK  status: ('A' for Active; 'I' for Inactive)
REMARK    1  A    between atoms: C_1  and  N_2
REMARK    2  A    between atoms: N_2  and  S_3
REMARK    3  A    between atoms: S_3  and  C_6
REMARK    4  A    between atoms: C_9  and  C_12
REMARK    5  A    between atoms: C_12  and  C_13
REMARK    6  A    between atoms: C_13  and  C_14
REMARK    7  A    between atoms: N_16  and  C_17
REMARK    8  A    between atoms: C_17  and  C_18
REMARK    9  A    between atoms: C_23  and  C_24
REMARK   10  A    between atoms: C_24  and  N_25
REMARK   11  A    between atoms: N_25  and  C_26
REMARK   12  A    between atoms: N_25  and  C_27
REMARK                            x       y       z     vdW  Elec       q    Type
REMARK                         _______ _______ _______ _____ _____    ______ ____
ROOT
ATOM      1  C   UNL     1       8.363   1.745   0.133  0.00  0.00    +0.214 C 
ATOM      2  O   UNL     1       9.111   1.270  -0.694  0.00  0.00    -0.276 OA
ATOM      3  N   UNL     1       8.846   2.562   1.089  0.00  0.00    -0.311 N 
ATOM      4  H   UNL     1       8.247   2.943   1.750  0.00  0.00    +0.149 HD
ENDROOT
BRANCH   1   5
ATOM      5  C   UNL     1       6.891   1.422   0.091  0.00  0.00    +0.100 C 
BRANCH   5   6
ATOM      6  C   UNL     1       6.609   0.481  -1.082  0.00  0.00    +0.044 C 
BRANCH   6  10
ATOM      7  C   UNL     1       2.438  -0.437  -1.202  0.00  0.00    +0.105 A 
ATOM      8  C   UNL     1       2.926   0.656  -1.894  0.00  0.00    +0.029 A 
ATOM      9  C   UNL     1       4.275   0.953  -1.855  0.00  0.00    +0.005 A 
ATOM     10  C   UNL     1       5.137   0.158  -1.123  0.00  0.00    -0.047 A 
ATOM     11  C   UNL     1       4.650  -0.935  -0.431  0.00  0.00    +0.005 A 
ATOM     12  C   UNL     1       3.300  -1.230  -0.466  0.00  0.00    +0.029 A 
BRANCH   7  13
ATOM     13  S   UNL     1       0.718  -0.816  -1.251  0.00  0.00    +0.058 S 
ATOM     14  O   UNL     1       0.599  -2.201  -0.959  0.00  0.00    -0.153 OA
ATOM     15  O   UNL     1       0.211  -0.243  -2.449  0.00  0.00    -0.153 OA
BRANCH  13  17
ATOM     16  C   UNL     1      -0.018   1.461   0.010  0.00  0.00    +0.127 C 
ATOM     17  N   UNL     1       0.002  -0.004   0.002  0.00  0.00    -0.193 NA
ATOM     18  H   UNL     1      -0.404  -0.499   0.731  0.00  0.00    +0.148 HD
ENDBRANCH  13  17
ENDBRANCH   7  13
ENDBRANCH   6  10
ENDBRANCH   5   6
ENDBRANCH   1   5
BRANCH   3  19
ATOM     19  C   UNL     1      10.276   2.877   1.129  0.00  0.00    +0.139 C 
BRANCH  19  20
ATOM     20  C   UNL     1      10.555   3.804   2.285  0.00  0.00    -0.029 A 
ATOM     21  C   UNL     1      10.694   5.161   2.064  0.00  0.00    +0.005 A 
ATOM     22  C   UNL     1      10.949   6.011   3.123  0.00  0.00    +0.000 A 
ATOM     23  C   UNL     1      11.064   5.504   4.404  0.00  0.00    +0.000 A 
ATOM     24  C   UNL     1      10.924   4.147   4.625  0.00  0.00    +0.002 A 
ATOM     25  C   UNL     1      10.665   3.297   3.566  0.00  0.00    -0.059 A 
BRANCH  25  26
ATOM     26  C   UNL     1      10.507   1.818   3.808  0.00  0.00    -0.043 C 
BRANCH  26  27
ATOM     27  N   UNL     1      11.759   1.130   3.467  0.00  0.00    +0.382 N 
ATOM     28  C   UNL     1      12.821   1.562   4.386  0.00  0.00    -0.095 C 
ATOM     29  H   UNL     1      12.021   1.357   2.520  0.00  0.00    -0.081 HD
BRANCH  27  30
ATOM     30  C   UNL     1      11.568  -0.322   3.588  0.00  0.00    -0.069 C 
ATOM     31  C   UNL     1      12.873  -1.039   3.234  0.00  0.00    -0.015 C 
ATOM     32  C   UNL     1      12.674  -2.551   3.360  0.00  0.00    -0.002 C 
ATOM     33  C   UNL     1      11.568  -3.001   2.403  0.00  0.00    -0.000 C 
ATOM     34  C   UNL     1      10.264  -2.284   2.758  0.00  0.00    -0.002 C 
ATOM     35  C   UNL     1      10.463  -0.772   2.632  0.00  0.00    -0.015 C 
ENDBRANCH  27  30
ENDBRANCH  26  27
ENDBRANCH  25  26
ENDBRANCH  19  20
ENDBRANCH   3  19
TORSDOF 10
