REMARK  Name = ZINC17201260
REMARK  4 active torsions:
REMARK  status: ('A' for Active; 'I' for Inactive)
REMARK    1  A    between atoms: C_8  and  C_10
REMARK    2  A    between atoms: C_13  and  C_15
REMARK    3  A    between atoms: C_23  and  S_27
REMARK    4  A    between atoms: S_27  and  N_30
REMARK                            x       y       z     vdW  Elec       q    Type
REMARK                         _______ _______ _______ _____ _____    ______ ____
ROOT
ATOM      1  C   UNL     1       2.472   3.332  -0.004  0.00  0.00    +0.256 C 
ATOM      2  O   UNL     1       3.689   3.333  -0.016  0.00  0.00    -0.269 OA
ATOM      3  N   UNL     1       1.796   4.498   0.009  0.00  0.00    -0.260 N 
ATOM      4  C   UNL     1       2.486   5.697   0.008  0.00  0.00    +0.166 A 
ATOM      5  N   UNL     1       3.783   5.901  -0.004  0.00  0.00    -0.225 NA
ATOM      6  C   UNL     1       4.323   7.139  -0.003  0.00  0.00    +0.080 A 
ATOM      7  C   UNL     1       5.692   7.495  -0.015  0.00  0.00    +0.031 A 
ATOM      8  C   UNL     1       6.074   8.811  -0.013  0.00  0.00    +0.030 A 
ATOM      9  C   UNL     1       5.139   9.836   0.002  0.00  0.00    +0.106 A 
ATOM     10  C   UNL     1       3.792   9.525   0.014  0.00  0.00    +0.045 A 
ATOM     11  C   UNL     1       3.401   8.210   0.012  0.00  0.00    +0.043 A 
ATOM     12  S   UNL     1       1.839   7.363   0.016  0.00  0.00    -0.052 S 
ATOM     13  H   UNL     1       0.826   4.496   0.018  0.00  0.00    +0.157 HD
ENDROOT
BRANCH   1  17
ATOM     14  C   UNL     1       0.002  -0.004   0.002  0.00  0.00    +0.045 A 
ATOM     15  C   UNL     1       1.362  -0.278  -0.012  0.00  0.00    +0.019 A 
ATOM     16  C   UNL     1       2.242   0.766  -0.015  0.00  0.00    +0.021 A 
ATOM     17  C   UNL     1       1.741   2.061  -0.004  0.00  0.00    +0.075 A 
ATOM     18  S   UNL     1      -0.022   1.781   0.012  0.00  0.00    -0.082 S 
BRANCH  14  26
ATOM     19  C   UNL     1      -5.576  -2.590   0.038  0.00  0.00    +0.002 A 
ATOM     20  C   UNL     1      -5.066  -3.881   0.025  0.00  0.00    +0.001 A 
ATOM     21  C   UNL     1      -3.697  -4.069   0.011  0.00  0.00    +0.017 A 
ATOM     22  C   UNL     1      -2.865  -2.976   0.011  0.00  0.00    +0.040 A 
ATOM     23  C   UNL     1      -3.354  -1.647   0.024  0.00  0.00    +0.079 A 
ATOM     24  C   UNL     1      -4.762  -1.501   0.037  0.00  0.00    +0.029 A 
ATOM     25  N   UNL     1      -2.422  -0.683   0.021  0.00  0.00    -0.239 NA
ATOM     26  C   UNL     1      -1.130  -0.944   0.007  0.00  0.00    +0.116 A 
ATOM     27  S   UNL     1      -1.105  -2.732  -0.011  0.00  0.00    -0.067 S 
ENDBRANCH  14  26
ENDBRANCH   1  17
BRANCH   9  28
ATOM     28  S   UNL     1       5.664  11.518   0.005  0.00  0.00    +0.056 S 
ATOM     29  O   UNL     1       6.969  11.538  -0.559  0.00  0.00    -0.153 OA
ATOM     30  O   UNL     1       4.591  12.280  -0.532  0.00  0.00    -0.153 OA
BRANCH  28  31
ATOM     31  N   UNL     1       5.826  11.978   1.587  0.00  0.00    -0.204 NA
ATOM     32  H   UNL     1       6.479  12.652   1.832  0.00  0.00    +0.144 HD
ATOM     33  H   UNL     1       5.268  11.574   2.269  0.00  0.00    +0.144 HD
ENDBRANCH  28  31
ENDBRANCH   9  28
TORSDOF 4
