REMARK  Name = ZINC05345698
REMARK  9 active torsions:
REMARK  status: ('A' for Active; 'I' for Inactive)
REMARK    1  A    between atoms: C_1  and  C_2
REMARK    2  A    between atoms: C_2  and  C_3
REMARK    3  A    between atoms: C_3  and  C_4
REMARK    4  A    between atoms: C_4  and  N_5
REMARK    5  A    between atoms: C_10  and  C_28
REMARK    6  A    between atoms: C_20  and  C_27
REMARK    7  A    between atoms: C_21  and  C_26
REMARK    8  A    between atoms: C_28  and  C_29
REMARK    9  A    between atoms: C_29  and  C_30
REMARK                            x       y       z     vdW  Elec       q    Type
REMARK                         _______ _______ _______ _____ _____    ______ ____
ROOT
ATOM      1  N   UNL     1      -0.067   1.120  -2.437  0.00  0.00    -0.242 N 
ATOM      2  C   UNL     1      -0.366  -0.041  -3.031  0.00  0.00    +0.224 C 
ATOM      3  O   UNL     1      -1.215  -0.821  -2.657  0.00  0.00    -0.275 OA
ATOM      4  C   UNL     1       0.520  -0.228  -4.242  0.00  0.00    +0.073 C 
ATOM      5  C   UNL     1       1.496  -1.395  -3.979  0.00  0.00    -0.057 C 
ATOM      6  C   UNL     1       2.831   0.523  -3.990  0.00  0.00    +0.050 C 
ATOM      7  C   UNL     1       1.398   1.054  -4.245  0.00  0.00    +0.088 C 
ATOM      8  C   UNL     1       0.905   1.817  -3.036  0.00  0.00    +0.225 C 
ATOM      9  O   UNL     1       1.327   2.892  -2.666  0.00  0.00    -0.275 OA
ATOM     10  C   UNL     1       3.853   1.324  -4.745  0.00  0.00    -0.027 A 
ATOM     11  C   UNL     1       4.043   1.600  -6.081  0.00  0.00    +0.005 A 
ATOM     12  C   UNL     1       5.106   2.391  -6.480  0.00  0.00    +0.004 A 
ATOM     13  C   UNL     1       5.977   2.902  -5.535  0.00  0.00    -0.046 A 
ATOM     14  C   UNL     1       5.790   2.628  -4.196  0.00  0.00    -0.026 A 
ATOM     15  C   UNL     1       4.722   1.834  -3.785  0.00  0.00    +0.039 A 
ATOM     16  N   UNL     1       4.327   1.423  -2.510  0.00  0.00    -0.286 N 
ATOM     17  C   UNL     1       3.224   0.652  -2.543  0.00  0.00    +0.211 C 
ATOM     18  O   UNL     1       2.657   0.157  -1.592  0.00  0.00    -0.277 OA
ATOM     19  C   UNL     1       6.745   3.189  -3.174  0.00  0.00    +0.046 C 
ATOM     20  C   UNL     1       7.136   3.761  -5.970  0.00  0.00    +0.044 C 
ATOM     21  H   UNL     1       4.794   1.665  -1.695  0.00  0.00    +0.155 HD
ATOM     22  N   UNL     1       2.796  -0.869  -4.403  0.00  0.00    +0.394 N 
ATOM     23  H   UNL     1       2.893  -0.940  -5.422  0.00  0.00    -0.083 HD
ATOM     24  H   UNL     1       3.555  -1.393  -3.950  0.00  0.00    -0.083 HD
ENDROOT
BRANCH   1  25
ATOM     25  C   UNL     1      -0.753   1.593  -1.232  0.00  0.00    +0.116 C 
BRANCH  25  26
ATOM     26  C   UNL     1      -0.013   1.086   0.008  0.00  0.00    +0.019 C 
BRANCH  26  28
ATOM     27  C   UNL     1       0.011   1.072   2.506  0.00  0.00    +0.004 C 
ATOM     28  C   UNL     1      -0.729   1.579   1.267  0.00  0.00    -0.002 C 
ENDBRANCH  26  28
ENDBRANCH  25  26
ENDBRANCH   1  25
BRANCH   5  29
ATOM     29  C   UNL     1       1.095  -2.620  -4.802  0.00  0.00    -0.004 C 
BRANCH  29  30
ATOM     30  C   UNL     1       1.998  -3.800  -4.434  0.00  0.00    +0.123 C 
BRANCH  30  31
ATOM     31  C   UNL     1       1.602  -5.007  -5.244  0.00  0.00    +0.356 C 
ATOM     32  O   UNL     1       0.691  -4.932  -6.035  0.00  0.00    -0.246 OA
ATOM     33  O   UNL     1       2.261  -6.166  -5.087  0.00  0.00    -0.246 OA
ENDBRANCH  30  31
ENDBRANCH  29  30
ENDBRANCH   5  29
TORSDOF 6
