REMARK  Name = ZINC08569295
REMARK  10 active torsions:
REMARK  status: ('A' for Active; 'I' for Inactive)
REMARK    1  A    between atoms: C_1  and  C_2
REMARK    2  A    between atoms: C_2  and  O_3
REMARK    3  A    between atoms: O_3  and  C_4
REMARK    4  A    between atoms: C_7  and  C_10
REMARK    5  A    between atoms: C_13  and  C_24
REMARK    6  A    between atoms: C_19  and  N_23
REMARK    7  A    between atoms: C_20  and  C_21
REMARK    8  A    between atoms: C_27  and  O_30
REMARK    9  A    between atoms: O_30  and  C_31
REMARK   10  A    between atoms: C_31  and  C_32
REMARK                            x       y       z     vdW  Elec       q    Type
REMARK                         _______ _______ _______ _____ _____    ______ ____
ROOT
ATOM      1  C   UNL     1      -1.959  -6.216  -0.004  0.00  0.00    +0.102 C 
ATOM      2  C   UNL     1      -2.868  -6.549  -1.159  0.00  0.00    +0.054 A 
ATOM      3  C   UNL     1      -2.604  -6.513  -2.531  0.00  0.00    +0.100 A 
ATOM      4  N   UNL     1      -3.699  -6.885  -3.166  0.00  0.00    -0.171 NA
ATOM      5  N   UNL     1      -4.688  -7.168  -2.211  0.00  0.00    -0.246 N 
ATOM      6  H   UNL     1      -5.593  -7.464  -2.398  0.00  0.00    +0.192 HD
ATOM      7  C   UNL     1      -4.159  -6.957  -0.988  0.00  0.00    +0.223 A 
ATOM      8  O   UNL     1      -4.727  -7.098   0.236  0.00  0.00    -0.423 OA
ATOM      9  C   UNL     1      -3.909  -7.091   1.308  0.00  0.00    +0.200 C 
ATOM     10  C   UNL     1      -2.616  -6.698   1.266  0.00  0.00    +0.098 C 
ENDROOT
BRANCH   1  14
ATOM     11  C   UNL     1      -1.364  -1.989   0.193  0.00  0.00    +0.121 A 
ATOM     12  C   UNL     1      -0.273  -2.841   0.099  0.00  0.00    +0.046 A 
ATOM     13  C   UNL     1      -0.468  -4.207   0.036  0.00  0.00    +0.008 A 
ATOM     14  C   UNL     1      -1.750  -4.726   0.066  0.00  0.00    -0.034 A 
ATOM     15  C   UNL     1      -2.839  -3.879   0.159  0.00  0.00    +0.008 A 
ATOM     16  C   UNL     1      -2.648  -2.512   0.228  0.00  0.00    +0.046 A 
BRANCH  11  17
ATOM     17  O   UNL     1      -1.175  -0.645   0.255  0.00  0.00    -0.492 OA
BRANCH  17  19
ATOM     18  C   UNL     1       0.188   1.351   0.295  0.00  0.00    +0.048 C 
ATOM     19  C   UNL     1       0.175  -0.177   0.214  0.00  0.00    +0.225 C 
ENDBRANCH  17  19
ENDBRANCH  11  17
ENDBRANCH   1  14
BRANCH   3  20
ATOM     20  C   UNL     1      -1.318  -6.123  -3.163  0.00  0.00    +0.003 A 
ATOM     21  C   UNL     1      -0.113  -6.572  -2.627  0.00  0.00    +0.013 A 
ATOM     22  C   UNL     1       1.080  -6.209  -3.216  0.00  0.00    +0.046 A 
ATOM     23  C   UNL     1       1.081  -5.397  -4.342  0.00  0.00    +0.121 A 
ATOM     24  C   UNL     1      -0.118  -4.948  -4.878  0.00  0.00    +0.046 A 
ATOM     25  C   UNL     1      -1.315  -5.313  -4.296  0.00  0.00    +0.013 A 
BRANCH  23  26
ATOM     26  O   UNL     1       2.258  -5.041  -4.920  0.00  0.00    -0.487 OA
BRANCH  26  27
ATOM     27  C   UNL     1       2.185  -4.203  -6.075  0.00  0.00    +0.264 C 
BRANCH  27  28
ATOM     28  C   UNL     1       3.578  -3.915  -6.575  0.00  0.00    -0.010 A 
ATOM     29  C   UNL     1       4.269  -2.816  -6.100  0.00  0.00    +0.007 A 
ATOM     30  C   UNL     1       5.546  -2.551  -6.558  0.00  0.00    +0.000 A 
ATOM     31  C   UNL     1       6.132  -3.386  -7.491  0.00  0.00    +0.000 A 
ATOM     32  C   UNL     1       5.442  -4.486  -7.965  0.00  0.00    +0.000 A 
ATOM     33  C   UNL     1       4.166  -4.753  -7.504  0.00  0.00    +0.007 A 
ENDBRANCH  27  28
ENDBRANCH  26  27
ENDBRANCH  23  26
ENDBRANCH   3  20
BRANCH   9  34
ATOM     34  N   UNL     1      -4.418  -7.508   2.513  0.00  0.00    -0.328 N 
ATOM     35  H   UNL     1      -5.342  -7.797   2.575  0.00  0.00    +0.145 HD
ATOM     36  H   UNL     1      -3.854  -7.514   3.302  0.00  0.00    +0.145 HD
ENDBRANCH   9  34
BRANCH  10  37
ATOM     37  C   UNL     1      -1.841  -6.739   2.470  0.00  0.00    +0.101 C 
ATOM     38  N   UNL     1      -1.227  -6.772   3.425  0.00  0.00    -0.191 NA
ENDBRANCH  10  37
TORSDOF 9
