REMARK  Name = ZINC37205434
REMARK  5 active torsions:
REMARK  status: ('A' for Active; 'I' for Inactive)
REMARK    1  A    between atoms: C_3  and  S_9
REMARK    2  A    between atoms: C_4  and  N_8
REMARK    3  A    between atoms: S_9  and  C_10
REMARK    4  A    between atoms: C_10  and  C_11
REMARK    5  A    between atoms: C_13  and  C_16
REMARK                            x       y       z     vdW  Elec       q    Type
REMARK                         _______ _______ _______ _____ _____    ______ ____
ROOT
ATOM      1  S   UNL     1       3.894   2.322  -0.023  0.00  0.00    -0.114 S 
ENDROOT
BRANCH   1   4
ATOM      2  C   UNL     1      -0.017   1.379   0.010  0.00  0.00    +0.016 A 
ATOM      3  C   UNL     1       1.169   2.090   0.002  0.00  0.00    +0.017 A 
ATOM      4  C   UNL     1       2.382   1.417  -0.013  0.00  0.00    +0.029 A 
ATOM      5  C   UNL     1       2.401   0.022  -0.021  0.00  0.00    +0.039 A 
ATOM      6  C   UNL     1       1.208  -0.684  -0.013  0.00  0.00    +0.039 A 
ATOM      7  C   UNL     1       0.002  -0.004   0.002  0.00  0.00    +0.020 A 
ATOM      8 BR   UNL     1      -1.624  -0.969   0.013  0.00  0.00    -0.050 Br
BRANCH   5   9
ATOM      9  N   UNL     1       3.621  -0.663  -0.036  0.00  0.00    -0.357 N 
ATOM     10  H   UNL     1       4.455  -0.168  -0.042  0.00  0.00    +0.142 HD
ATOM     11  H   UNL     1       3.633  -1.633  -0.042  0.00  0.00    +0.142 HD
ENDBRANCH   5   9
ENDBRANCH   1   4
BRANCH   1  12
ATOM     12  C   UNL     1       3.367   4.058  -0.009  0.00  0.00    +0.173 C 
BRANCH  12  13
ATOM     13  C   UNL     1       4.581   4.951  -0.017  0.00  0.00    +0.238 A 
ATOM     14  N   UNL     1       5.180   5.411  -1.077  0.00  0.00    -0.191 NA
ATOM     15  C   UNL     1       6.228   6.176  -0.719  0.00  0.00    +0.203 A 
ATOM     16  N   UNL     1       6.298   6.203   0.590  0.00  0.00    -0.056 NA
ATOM     17  O   UNL     1       5.221   5.409   1.066  0.00  0.00    -0.337 OA
BRANCH  15  18
ATOM     18  C   UNL     1       7.150   6.871  -1.649  0.00  0.00    +0.029 A 
ATOM     19  C   UNL     1       8.211   7.636  -1.166  0.00  0.00    +0.019 A 
ATOM     20  C   UNL     1       8.994   8.229  -2.096  0.00  0.00    +0.046 A 
ATOM     21  S   UNL     1       8.235   7.708  -3.621  0.00  0.00    -0.104 S 
ATOM     22  C   UNL     1       6.986   6.774  -2.998  0.00  0.00    +0.057 A 
ENDBRANCH  15  18
ENDBRANCH  12  13
ENDBRANCH   1  12
TORSDOF 5
