REMARK  Name = ZINC39675088
REMARK  9 active torsions:
REMARK  status: ('A' for Active; 'I' for Inactive)
REMARK    1  A    between atoms: C_1  and  C_2
REMARK    2  A    between atoms: C_4  and  C_35
REMARK    3  A    between atoms: N_5  and  C_7
REMARK    4  A    between atoms: C_7  and  C_8
REMARK    5  A    between atoms: C_8  and  N_9
REMARK    6  A    between atoms: C_10  and  C_12
REMARK    7  A    between atoms: C_23  and  C_25
REMARK    8  A    between atoms: C_28  and  O_32
REMARK    9  A    between atoms: O_32  and  C_33
REMARK                            x       y       z     vdW  Elec       q    Type
REMARK                         _______ _______ _______ _____ _____    ______ ____
ROOT
ATOM      1  C   UNL     1       2.852  -5.998   4.183  0.00  0.00    +0.100 C 
ATOM      2  C   UNL     1       2.163  -5.981   5.566  0.00  0.00    +0.121 C 
ATOM      3  N   UNL     1       3.021  -6.834   6.422  0.00  0.00    -0.296 N 
ATOM      4  C   UNL     1       4.405  -6.497   6.010  0.00  0.00    +0.115 C 
ATOM      5  C   UNL     1       4.323  -6.336   4.479  0.00  0.00    -0.004 C 
ATOM      6  C   UNL     1       5.230  -5.199   4.020  0.00  0.00    -0.010 C 
ATOM      7  C   UNL     1       6.691  -5.583   4.270  0.00  0.00    -0.082 C 
ATOM      8  N   UNL     1       7.008  -6.814   3.537  0.00  0.00    +0.379 N 
ATOM      9  C   UNL     1       6.196  -7.925   4.050  0.00  0.00    -0.082 C 
ATOM     10  C   UNL     1       4.715  -7.640   3.789  0.00  0.00    -0.010 C 
ATOM     11  C   UNL     1       2.631  -7.717   7.363  0.00  0.00    +0.247 C 
ATOM     12  O   UNL     1       1.452  -7.979   7.499  0.00  0.00    -0.270 OA
ATOM     13  H   UNL     1       6.811  -6.680   2.557  0.00  0.00    -0.086 HD
ATOM     14  H   UNL     1       7.986  -7.032   3.655  0.00  0.00    -0.086 HD
ENDROOT
BRANCH  11  15
ATOM     15  C   UNL     1       3.636  -8.366   8.228  0.00  0.00    +0.040 A 
ATOM     16  C   UNL     1       4.896  -7.785   8.395  0.00  0.00    +0.036 A 
ATOM     17  C   UNL     1       5.832  -8.394   9.203  0.00  0.00    +0.085 A 
ATOM     18  C   UNL     1       5.524  -9.585   9.851  0.00  0.00    +0.157 A 
ATOM     19  C   UNL     1       4.271 -10.166   9.687  0.00  0.00    +0.085 A 
ATOM     20  C   UNL     1       3.328  -9.560   8.886  0.00  0.00    +0.036 A 
ATOM     21 CL   UNL     1       3.892 -11.653  10.498  0.00  0.00    -0.080 Cl
ATOM     22 CL   UNL     1       7.397  -7.674   9.411  0.00  0.00    -0.080 Cl
BRANCH  18  23
ATOM     23  O   UNL     1       6.448 -10.183  10.646  0.00  0.00    -0.492 OA
ATOM     24  C   UNL     1       6.455  -9.811  12.025  0.00  0.00    +0.277 C 
ENDBRANCH  18  23
ENDBRANCH  11  15
BRANCH   1  26
ATOM     25  N   UNL     1       2.704  -4.549   2.184  0.00  0.00    -0.313 N 
ATOM     26  C   UNL     1       2.747  -4.645   3.528  0.00  0.00    +0.218 C 
ATOM     27  O   UNL     1       2.700  -3.643   4.209  0.00  0.00    -0.275 OA
ATOM     28  H   UNL     1       2.740  -5.351   1.639  0.00  0.00    +0.149 HD
BRANCH  25  29
ATOM     29  C   UNL     1       2.601  -3.234   1.547  0.00  0.00    +0.127 C 
BRANCH  29  30
ATOM     30  C   UNL     1       2.570  -3.405   0.027  0.00  0.00    +0.162 C 
BRANCH  30  35
ATOM     31  C   UNL     1       0.617   0.754  -1.995  0.00  0.00    +0.067 C 
ATOM     32  C   UNL     1       1.591  -0.280  -1.491  0.00  0.00    +0.060 A 
ATOM     33  C   UNL     1       2.986  -0.181  -1.533  0.00  0.00    +0.047 A 
ATOM     34  C   UNL     1       3.500  -1.307  -0.986  0.00  0.00    +0.036 A 
ATOM     35  N   UNL     1       2.467  -2.090  -0.611  0.00  0.00    -0.267 N 
ATOM     36  N   UNL     1       1.279  -1.421  -0.933  0.00  0.00    -0.176 NA
ATOM     37  C   UNL     1       4.963  -1.629  -0.825  0.00  0.00    +0.065 C 
ENDBRANCH  30  35
ENDBRANCH  29  30
ENDBRANCH  25  29
ENDBRANCH   1  26
TORSDOF 6
