REMARK  Name = ZINC12170611
REMARK  9 active torsions:
REMARK  status: ('A' for Active; 'I' for Inactive)
REMARK    1  A    between atoms: C_9  and  C_12
REMARK    2  A    between atoms: C_12  and  O_13
REMARK    3  A    between atoms: O_13  and  C_14
REMARK    4  A    between atoms: C_14  and  C_15
REMARK    5  A    between atoms: C_15  and  C_17
REMARK    6  A    between atoms: C_15  and  O_39
REMARK    7  A    between atoms: C_17  and  N_70
REMARK    8  A    between atoms: C_20  and  C_23
REMARK    9  A    between atoms: C_23  and  N_24
REMARK                            x       y       z     vdW  Elec       q    Type
REMARK                         _______ _______ _______ _____ _____    ______ ____
ROOT
ATOM      1  C   UNL     1       1.169   3.437  -0.190  0.00  0.00    -0.078 C 
ATOM      2  C   UNL     1       1.184   1.911  -0.303  0.00  0.00    -0.014 C 
ATOM      3  C   UNL     1      -0.238   1.409  -0.569  0.00  0.00    +0.003 C 
ATOM      4  C   UNL     1      -0.771   2.064  -1.846  0.00  0.00    -0.014 C 
ATOM      5  C   UNL     1      -0.730   3.586  -1.688  0.00  0.00    -0.078 C 
ATOM      6  N   UNL     1       0.669   4.007  -1.459  0.00  0.00    +0.381 N 
ATOM      7  H   UNL     1       1.251   3.662  -2.232  0.00  0.00    -0.082 HD
ENDROOT
BRANCH   6   8
ATOM      8  C   UNL     1       0.752   5.481  -1.418  0.00  0.00    -0.045 C 
BRANCH   8   9
ATOM      9  C   UNL     1       2.205   5.896  -1.654  0.00  0.00    +0.124 C 
BRANCH   9  10
ATOM     10  O   UNL     1       2.621   5.459  -2.950  0.00  0.00    -0.391 OA
ATOM     11  H   UNL     1       2.098   5.827  -3.675  0.00  0.00    +0.210 HD
ENDBRANCH   9  10
BRANCH   9  12
ATOM     12  C   UNL     1       2.321   7.420  -1.569  0.00  0.00    +0.189 C 
BRANCH  12  13
ATOM     13  O   UNL     1       3.695   7.800  -1.673  0.00  0.00    -0.374 OA
BRANCH  13  14
ATOM     14  C   UNL     1       3.915   9.210  -1.605  0.00  0.00    +0.207 C 
BRANCH  14  23
ATOM     15  C   UNL     1       9.596  10.473  -4.193  0.00  0.00    +0.004 A 
ATOM     16  C   UNL     1       9.005   9.411  -4.851  0.00  0.00    +0.004 A 
ATOM     17  C   UNL     1       7.761   8.956  -4.457  0.00  0.00    +0.049 A 
ATOM     18  C   UNL     1       7.101   9.566  -3.400  0.00  0.00    +0.163 A 
ATOM     19  C   UNL     1       7.696  10.632  -2.737  0.00  0.00    +0.162 A 
ATOM     20  C   UNL     1       8.945  11.084  -3.138  0.00  0.00    +0.049 A 
ATOM     21  O   UNL     1       7.070  11.240  -1.692  0.00  0.00    -0.485 OA
ATOM     22  C   UNL     1       5.664  11.003  -1.559  0.00  0.00    +0.276 C 
ATOM     23  C   UNL     1       5.412   9.499  -1.727  0.00  0.00    +0.236 C 
ATOM     24  O   UNL     1       5.875   9.109  -3.024  0.00  0.00    -0.479 OA
ENDBRANCH  14  23
ENDBRANCH  13  14
ENDBRANCH  12  13
ENDBRANCH   9  12
ENDBRANCH   8   9
ENDBRANCH   6   8
BRANCH   3  25
ATOM     25  C   UNL     1      -0.220  -0.110  -0.743  0.00  0.00    +0.120 C 
BRANCH  25  26
ATOM     26  N   UNL     1      -1.593  -0.603  -0.878  0.00  0.00    -0.234 N 
ATOM     27  C   UNL     1      -2.265  -0.961   0.232  0.00  0.00    +0.254 C 
ATOM     28  O   UNL     1      -1.729  -0.871   1.320  0.00  0.00    -0.270 OA
ATOM     29  C   UNL     1      -3.647  -1.456   0.137  0.00  0.00    +0.046 A 
ATOM     30  C   UNL     1      -4.378  -1.829   1.255  0.00  0.00    +0.014 A 
ATOM     31  C   UNL     1      -5.680  -2.295   1.114  0.00  0.00    +0.001 A 
ATOM     32  C   UNL     1      -6.274  -2.398  -0.111  0.00  0.00    +0.008 A 
ATOM     33  C   UNL     1      -5.567  -2.029  -1.269  0.00  0.00    -0.016 A 
ATOM     34  C   UNL     1      -4.245  -1.555  -1.139  0.00  0.00    +0.006 A 
ATOM     35  C   UNL     1      -3.509  -1.176  -2.284  0.00  0.00    +0.046 A 
ATOM     36  C   UNL     1      -4.105  -1.277  -3.532  0.00  0.00    +0.014 A 
ATOM     37  C   UNL     1      -5.409  -1.746  -3.647  0.00  0.00    +0.001 A 
ATOM     38  C   UNL     1      -6.135  -2.116  -2.553  0.00  0.00    +0.008 A 
ATOM     39  C   UNL     1      -2.134  -0.686  -2.108  0.00  0.00    +0.254 C 
ATOM     40  O   UNL     1      -1.481  -0.354  -3.079  0.00  0.00    -0.270 OA
ENDBRANCH  25  26
ENDBRANCH   3  25
TORSDOF 9
