REMARK  Name = ZINC62756845
REMARK  4 active torsions:
REMARK  status: ('A' for Active; 'I' for Inactive)
REMARK    1  A    between atoms: C_1  and  C_2
REMARK    2  A    between atoms: C_2  and  C_20
REMARK    3  A    between atoms: N_5  and  C_8
REMARK    4  A    between atoms: C_15  and  C_17
REMARK                            x       y       z     vdW  Elec       q    Type
REMARK                         _______ _______ _______ _____ _____    ______ ____
ROOT
ATOM      1  C   UNL     1       1.507  -3.713   0.252  0.00  0.00    -0.055 C 
ATOM      2  C   UNL     1       0.139  -4.405   0.404  0.00  0.00    -0.014 C 
ATOM      3  C   UNL     1       0.259  -5.903   0.494  0.00  0.00    -0.002 C 
ATOM      4  C   UNL     1       0.304  -6.301   1.983  0.00  0.00    -0.000 C 
ATOM      5  C   UNL     1       1.625  -6.115   2.567  0.00  0.00    +0.001 C 
ATOM      6  C   UNL     1       2.078  -4.641   2.537  0.00  0.00    +0.013 C 
ATOM      7  C   UNL     1       2.590  -4.327   1.160  0.00  0.00    +0.089 C 
ENDROOT
BRANCH   1  12
ATOM      8  C   UNL     1      -0.145   1.492   1.895  0.00  0.00    +0.011 C 
ATOM      9  C   UNL     1      -0.116  -0.007   1.590  0.00  0.00    -0.038 C 
ATOM     10  C   UNL     1       0.144  -0.220   0.095  0.00  0.00    -0.012 C 
ATOM     11  C   UNL     1       0.252  -1.720  -0.190  0.00  0.00    -0.078 C 
ATOM     12  N   UNL     1       1.359  -2.291   0.587  0.00  0.00    +0.382 N 
ATOM     13  C   UNL     1       1.083  -2.154   2.022  0.00  0.00    -0.078 C 
ATOM     14  C   UNL     1       1.007  -0.671   2.392  0.00  0.00    -0.012 C 
ATOM     15  C   UNL     1      -1.458  -0.634   1.972  0.00  0.00    +0.011 C 
ATOM     16  H   UNL     1       2.213  -1.803   0.362  0.00  0.00    -0.081 HD
ENDBRANCH   1  12
BRANCH   7  17
ATOM     17  C   UNL     1       3.736  -3.356   1.279  0.00  0.00    +0.357 C 
ATOM     18  O   UNL     1       4.287  -3.192   2.354  0.00  0.00    -0.246 OA
ATOM     19  O   UNL     1       4.111  -2.734   0.300  0.00  0.00    -0.246 OA
ENDBRANCH   7  17
TORSDOF 2
