REMARK  Name = ZINC40650215
REMARK  5 active torsions:
REMARK  status: ('A' for Active; 'I' for Inactive)
REMARK    1  A    between atoms: C_3  and  C_9
REMARK    2  A    between atoms: N_11  and  N_12
REMARK    3  A    between atoms: C_14  and  N_28
REMARK    4  A    between atoms: C_15  and  N_19
REMARK    5  A    between atoms: N_19  and  C_20
REMARK                            x       y       z     vdW  Elec       q    Type
REMARK                         _______ _______ _______ _____ _____    ______ ____
ROOT
ATOM      1  N   UNL     1       4.889   4.295   0.853  0.00  0.00    -0.246 N 
ATOM      2  C   UNL     1       4.859   5.661   0.617  0.00  0.00    +0.171 A 
ATOM      3  C   UNL     1       6.041   6.367   0.410  0.00  0.00    +0.207 A 
ATOM      4  C   UNL     1       5.957   7.737   0.177  0.00  0.00    +0.159 A 
ATOM      5  N   UNL     1       4.759   8.318   0.161  0.00  0.00    -0.218 NA
ATOM      6  C   UNL     1       3.663   7.614   0.361  0.00  0.00    +0.225 A 
ATOM      7  N   UNL     1       3.700   6.315   0.579  0.00  0.00    -0.217 NA
ATOM      8  H   UNL     1       5.737   3.826   0.878  0.00  0.00    +0.172 HD
ENDROOT
BRANCH   1  11
ATOM      9  C   UNL     1       3.722   2.265   1.283  0.00  0.00    +0.262 C 
ATOM     10  O   UNL     1       4.785   1.677   1.315  0.00  0.00    -0.269 OA
ATOM     11  N   UNL     1       3.693   3.593   1.054  0.00  0.00    -0.231 N 
ATOM     12  H   UNL     1       2.845   4.063   1.028  0.00  0.00    +0.173 HD
BRANCH   9  15
ATOM     13  C   UNL     1       0.065   1.502   1.657  0.00  0.00    +0.021 A 
ATOM     14  C   UNL     1       1.238   2.198   1.459  0.00  0.00    +0.016 A 
ATOM     15  C   UNL     1       2.461   1.525   1.495  0.00  0.00    +0.057 A 
ATOM     16  C   UNL     1       2.487   0.148   1.733  0.00  0.00    +0.054 A 
ATOM     17  C   UNL     1       1.305  -0.537   1.930  0.00  0.00    +0.040 A 
ATOM     18  C   UNL     1       0.097   0.137   1.892  0.00  0.00    +0.042 A 
ATOM     19 CL   UNL     1      -1.386  -0.732   2.141  0.00  0.00    -0.083 Cl
ATOM     20 CL   UNL     1       4.002  -0.698   1.780  0.00  0.00    -0.083 Cl
ENDBRANCH   9  15
ENDBRANCH   1  11
BRANCH   3  21
ATOM     21  N   UNL     1       7.351   5.680   0.437  0.00  0.00    +0.063 N 
ATOM     22  O   UNL     1       7.814   5.220  -0.581  0.00  0.00    -0.126 OA
ATOM     23  O   UNL     1       7.959   5.579   1.477  0.00  0.00    -0.126 OA
ENDBRANCH   3  21
BRANCH   4  24
ATOM     24  N   UNL     1       7.106   8.486  -0.034  0.00  0.00    -0.296 N 
ATOM     25  H   UNL     1       7.965   8.043  -0.114  0.00  0.00    +0.154 HD
BRANCH  24  26
ATOM     26  C   UNL     1       7.024   9.879  -0.132  0.00  0.00    +0.051 A 
ATOM     27  C   UNL     1       5.978  10.559   0.478  0.00  0.00    +0.026 A 
ATOM     28  C   UNL     1       5.900  11.934   0.381  0.00  0.00    +0.022 A 
ATOM     29  C   UNL     1       6.863  12.636  -0.323  0.00  0.00    +0.042 A 
ATOM     30  C   UNL     1       7.907  11.962  -0.932  0.00  0.00    +0.041 A 
ATOM     31  C   UNL     1       7.993  10.586  -0.834  0.00  0.00    +0.063 A 
ATOM     32 CL   UNL     1       9.306   9.741  -1.592  0.00  0.00    -0.082 Cl
ATOM     33 CL   UNL     1       6.761  14.364  -0.444  0.00  0.00    -0.083 Cl
ENDBRANCH  24  26
ENDBRANCH   4  24
TORSDOF 5
