REMARK  Name = ZINC30802636
REMARK  11 active torsions:
REMARK  status: ('A' for Active; 'I' for Inactive)
REMARK    1  A    between atoms: C_1  and  C_2
REMARK    2  A    between atoms: C_2  and  O_3
REMARK    3  A    between atoms: O_3  and  C_4
REMARK    4  A    between atoms: C_6  and  C_13
REMARK    5  A    between atoms: C_9  and  O_10
REMARK    6  A    between atoms: N_14  and  N_15
REMARK    7  A    between atoms: C_16  and  C_18
REMARK    8  A    between atoms: C_18  and  N_19
REMARK    9  A    between atoms: N_19  and  C_20
REMARK   10  A    between atoms: C_25  and  O_26
REMARK   11  A    between atoms: O_26  and  C_27
REMARK                            x       y       z     vdW  Elec       q    Type
REMARK                         _______ _______ _______ _____ _____    ______ ____
ROOT
ATOM      1  C   UNL     1       2.406   4.744   0.055  0.00  0.00    +0.139 C 
ATOM      2  N   UNL     1       3.541   4.116   0.097  0.00  0.00    -0.188 NA
ENDROOT
BRANCH   1   5
ATOM      3  C   UNL     1       0.094   2.315   1.745  0.00  0.00    +0.163 A 
ATOM      4  C   UNL     1       1.252   2.942   1.326  0.00  0.00    +0.060 A 
ATOM      5  C   UNL     1       1.174   4.071   0.505  0.00  0.00    +0.013 A 
ATOM      6  C   UNL     1      -0.075   4.559   0.111  0.00  0.00    +0.044 A 
ATOM      7  C   UNL     1      -1.227   3.927   0.534  0.00  0.00    +0.077 A 
ATOM      8  C   UNL     1      -1.148   2.810   1.354  0.00  0.00    +0.174 A 
ATOM      9 BR   UNL     1      -2.917   4.589   0.002  0.00  0.00    -0.045 Br
ATOM     10 BR   UNL     1      -0.187   6.086  -0.999  0.00  0.00    -0.048 Br
BRANCH   8  11
ATOM     11  O   UNL     1      -2.285   2.193   1.772  0.00  0.00    -0.503 OA
ATOM     12  H   UNL     1      -3.267   2.583   1.464  0.00  0.00    +0.292 HD
ENDBRANCH   8  11
BRANCH   3  13
ATOM     13  O   UNL     1       0.167   1.217   2.544  0.00  0.00    -0.489 OA
BRANCH  13  15
ATOM     14  C   UNL     1       1.355  -0.469   3.804  0.00  0.00    +0.048 C 
ATOM     15  C   UNL     1       1.473   0.767   2.910  0.00  0.00    +0.226 C 
ENDBRANCH  13  15
ENDBRANCH   3  13
ENDBRANCH   1   5
BRANCH   2  16
ATOM     16  N   UNL     1       3.568   2.715   0.080  0.00  0.00    -0.206 N 
ATOM     17  C   UNL     1       4.731   2.061   0.268  0.00  0.00    +0.249 C 
ATOM     18  O   UNL     1       5.769   2.683   0.353  0.00  0.00    -0.272 OA
ATOM     19  H   UNL     1       2.639   2.149  -0.086  0.00  0.00    +0.177 HD
BRANCH  17  20
ATOM     20  C   UNL     1       4.742   0.558   0.373  0.00  0.00    +0.199 C 
BRANCH  20  21
ATOM     21  N   UNL     1       6.116   0.092   0.574  0.00  0.00    -0.333 N 
ATOM     22  H   UNL     1       6.941   0.818   0.626  0.00  0.00    +0.147 HD
BRANCH  21  23
ATOM     23  C   UNL     1       6.380  -1.276   0.701  0.00  0.00    +0.070 A 
ATOM     24  C   UNL     1       5.340  -2.193   0.642  0.00  0.00    +0.026 A 
ATOM     25  C   UNL     1       5.604  -3.545   0.763  0.00  0.00    +0.002 A 
ATOM     26  C   UNL     1       6.901  -3.986   0.952  0.00  0.00    +0.004 A 
ATOM     27  C   UNL     1       7.941  -3.077   1.017  0.00  0.00    +0.047 A 
ATOM     28  C   UNL     1       7.686  -1.721   0.892  0.00  0.00    +0.141 A 
BRANCH  28  29
ATOM     29  O   UNL     1       8.708  -0.827   0.957  0.00  0.00    -0.493 OA
ATOM     30  C   UNL     1      10.021  -1.355   1.155  0.00  0.00    +0.277 C 
ENDBRANCH  28  29
ENDBRANCH  21  23
ENDBRANCH  20  21
ENDBRANCH  17  20
ENDBRANCH   2  16
TORSDOF 9
