REMARK  Name = ZINC10884978
REMARK  9 active torsions:
REMARK  status: ('A' for Active; 'I' for Inactive)
REMARK    1  A    between atoms: C_1  and  C_2
REMARK    2  A    between atoms: C_3  and  C_15
REMARK    3  A    between atoms: C_4  and  C_14
REMARK    4  A    between atoms: C_8  and  C_11
REMARK    5  A    between atoms: C_15  and  C_16
REMARK    6  A    between atoms: C_16  and  C_17
REMARK    7  A    between atoms: N_19  and  C_20
REMARK    8  A    between atoms: C_20  and  C_21
REMARK    9  A    between atoms: C_24  and  C_26
REMARK                            x       y       z     vdW  Elec       q    Type
REMARK                         _______ _______ _______ _____ _____    ______ ____
ROOT
ATOM      1  C   UNL     1       2.011  10.741  -3.003  0.00  0.00    +0.048 C 
ENDROOT
BRANCH   1   4
ATOM      2  C   UNL     1       4.309  11.522  -4.612  0.00  0.00    +0.066 C 
ATOM      3  C   UNL     1       2.920  11.608  -5.191  0.00  0.00    +0.045 A 
ATOM      4  C   UNL     1       1.816  11.232  -4.414  0.00  0.00    -0.006 A 
ATOM      5  C   UNL     1       0.569  11.318  -4.941  0.00  0.00    +0.028 A 
ATOM      6  N   UNL     1       0.420  11.767  -6.223  0.00  0.00    -0.287 N 
ATOM      7  C   UNL     1      -0.669  11.962  -7.016  0.00  0.00    +0.206 A 
ATOM      8  N   UNL     1      -0.291  12.410  -8.178  0.00  0.00    -0.229 NA
ATOM      9  C   UNL     1       1.052  12.531  -8.205  0.00  0.00    +0.169 A 
ATOM     10  C   UNL     1       1.528  12.120  -6.952  0.00  0.00    +0.170 A 
ATOM     11  N   UNL     1       2.750  12.030  -6.424  0.00  0.00    -0.232 NA
ATOM     12  C   UNL     1      -0.635  10.925  -4.124  0.00  0.00    +0.064 C 
BRANCH   9  13
ATOM     13  C   UNL     1       1.861  13.001  -9.329  0.00  0.00    +0.264 C 
ATOM     14  O   UNL     1       3.072  13.063  -9.225  0.00  0.00    -0.269 OA
ATOM     15  N   UNL     1       1.264  13.367 -10.482  0.00  0.00    -0.324 N 
ATOM     16  H   UNL     1       0.299  13.318 -10.565  0.00  0.00    +0.145 HD
ATOM     17  H   UNL     1       1.800  13.679 -11.227  0.00  0.00    +0.145 HD
ENDBRANCH   9  13
ENDBRANCH   1   4
BRANCH   1  18
ATOM     18  C   UNL     1       2.189   9.221  -3.011  0.00  0.00    +0.100 C 
BRANCH  18  19
ATOM     19  C   UNL     1       2.385   8.730  -1.600  0.00  0.00    +0.214 C 
ATOM     20  O   UNL     1       2.382   9.518  -0.678  0.00  0.00    -0.276 OA
ATOM     21  N   UNL     1       2.563   7.415  -1.363  0.00  0.00    -0.310 N 
ATOM     22  H   UNL     1       2.565   6.785  -2.100  0.00  0.00    +0.149 HD
BRANCH  21  23
ATOM     23  C   UNL     1       2.753   6.938   0.009  0.00  0.00    +0.163 C 
BRANCH  23  24
ATOM     24  C   UNL     1       2.928   5.441   0.001  0.00  0.00    +0.097 A 
ATOM     25  C   UNL     1       4.100   4.782  -0.014  0.00  0.00    +0.222 A 
ATOM     26  O   UNL     1       3.818   3.462  -0.017  0.00  0.00    -0.443 OA
ATOM     27  C   UNL     1       2.479   3.330  -0.004  0.00  0.00    +0.234 A 
ATOM     28  N   UNL     1       1.942   4.531   0.002  0.00  0.00    -0.212 NA
BRANCH  27  29
ATOM     29  C   UNL     1       1.741   2.059  -0.004  0.00  0.00    +0.074 A 
ATOM     30  C   UNL     1       2.232   0.766  -0.015  0.00  0.00    +0.021 A 
ATOM     31  C   UNL     1       1.333  -0.275  -0.012  0.00  0.00    +0.008 A 
ATOM     32  C   UNL     1       0.002  -0.004   0.002  0.00  0.00    +0.046 A 
ATOM     33  S   UNL     1      -0.022   1.781   0.012  0.00  0.00    -0.092 S 
ENDBRANCH  27  29
ENDBRANCH  23  24
ENDBRANCH  21  23
ENDBRANCH  18  19
ENDBRANCH   1  18
TORSDOF 7
