REMARK  Name = ZINC36660340
REMARK  11 active torsions:
REMARK  status: ('A' for Active; 'I' for Inactive)
REMARK    1  A    between atoms: C_1  and  C_2
REMARK    2  A    between atoms: C_2  and  C_3
REMARK    3  A    between atoms: N_12  and  C_13
REMARK    4  A    between atoms: C_13  and  C_14
REMARK    5  A    between atoms: C_14  and  C_15
REMARK    6  A    between atoms: C_15  and  N_16
REMARK    7  A    between atoms: N_16  and  C_17
REMARK    8  A    between atoms: N_16  and  C_18
REMARK    9  A    between atoms: C_19  and  C_21
REMARK   10  A    between atoms: N_26  and  S_27
REMARK   11  A    between atoms: S_27  and  C_30
REMARK                            x       y       z     vdW  Elec       q    Type
REMARK                         _______ _______ _______ _____ _____    ______ ____
ROOT
ATOM      1  C   UNL     1      -2.136  -1.270   1.117  0.00  0.00    -0.046 A 
ATOM      2  C   UNL     1      -3.021  -1.386   2.179  0.00  0.00    +0.006 A 
ATOM      3  C   UNL     1      -4.331  -1.737   1.985  0.00  0.00    +0.029 A 
ATOM      4  C   UNL     1      -4.825  -1.993   0.685  0.00  0.00    +0.080 A 
ATOM      5  C   UNL     1      -3.897  -1.864  -0.372  0.00  0.00    +0.041 A 
ATOM      6  C   UNL     1      -2.587  -1.507  -0.169  0.00  0.00    +0.021 A 
ATOM      7  S   UNL     1      -4.886  -2.257  -1.795  0.00  0.00    -0.052 S 
ATOM      8  C   UNL     1      -6.419  -2.557  -0.926  0.00  0.00    +0.168 A 
ATOM      9  N   UNL     1      -6.078  -2.346   0.324  0.00  0.00    -0.224 NA
ATOM     10  N   UNL     1      -7.652  -2.921  -1.441  0.00  0.00    -0.249 N 
ATOM     11  C   UNL     1      -7.804  -3.093  -2.769  0.00  0.00    +0.240 C 
ATOM     12  O   UNL     1      -6.842  -3.021  -3.504  0.00  0.00    -0.273 OA
ENDROOT
BRANCH  11  13
ATOM     13  C   UNL     1      -9.170  -3.374  -3.341  0.00  0.00    +0.166 C 
ATOM     14  C   UNL     1      -9.413  -4.898  -3.393  0.00  0.00    +0.031 C 
ATOM     15  C   UNL     1     -10.174  -5.082  -4.733  0.00  0.00    +0.019 C 
ATOM     16  C   UNL     1      -9.500  -4.010  -5.624  0.00  0.00    +0.110 C 
ATOM     17  N   UNL     1      -9.248  -2.869  -4.720  0.00  0.00    -0.165 NA
BRANCH  17  18
ATOM     18  S   UNL     1      -9.083  -1.286  -5.178  0.00  0.00    +0.062 S 
ATOM     19  O   UNL     1      -9.876  -1.116  -6.344  0.00  0.00    -0.153 OA
ATOM     20  O   UNL     1      -9.271  -0.503  -4.008  0.00  0.00    -0.153 OA
BRANCH  18  21
ATOM     21  C   UNL     1      -7.407  -1.060  -5.672  0.00  0.00    +0.106 A 
ATOM     22  C   UNL     1      -6.479  -0.576  -4.768  0.00  0.00    +0.031 A 
ATOM     23  C   UNL     1      -5.165  -0.398  -5.154  0.00  0.00    +0.040 A 
ATOM     24  C   UNL     1      -4.776  -0.705  -6.447  0.00  0.00    +0.124 A 
ATOM     25  C   UNL     1      -5.705  -1.190  -7.351  0.00  0.00    +0.040 A 
ATOM     26  C   UNL     1      -7.018  -1.372  -6.962  0.00  0.00    +0.031 A 
ATOM     27  F   UNL     1      -3.490  -0.532  -6.825  0.00  0.00    -0.205 F 
ENDBRANCH  18  21
ENDBRANCH  17  18
ENDBRANCH  11  13
BRANCH   1  29
ATOM     28  C   UNL     1      -0.568   0.641   1.310  0.00  0.00    +0.009 C 
ATOM     29  C   UNL     1      -0.701  -0.882   1.360  0.00  0.00    +0.032 C 
ENDBRANCH   1  29
BRANCH  10  30
ATOM     30  C   UNL     1      -8.792  -3.119  -0.542  0.00  0.00    +0.114 C 
BRANCH  30  31
ATOM     31  C   UNL     1      -9.508  -1.784  -0.325  0.00  0.00    +0.001 C 
BRANCH  31  32
ATOM     32  C   UNL     1     -10.698  -1.990   0.614  0.00  0.00    -0.078 C 
BRANCH  32  33
ATOM     33  N   UNL     1     -11.386  -0.709   0.822  0.00  0.00    +0.376 N 
ATOM     34  C   UNL     1     -12.596  -0.928   1.625  0.00  0.00    -0.097 C 
ATOM     35  C   UNL     1     -10.491   0.218   1.526  0.00  0.00    -0.097 C 
ATOM     36  H   UNL     1     -11.642  -0.316  -0.072  0.00  0.00    -0.083 HD
ENDBRANCH  32  33
ENDBRANCH  31  32
ENDBRANCH  30  31
ENDBRANCH  10  30
TORSDOF 8
