REMARK  Name = ZINC09041671
REMARK  15 active torsions:
REMARK  status: ('A' for Active; 'I' for Inactive)
REMARK    1  A    between atoms: C_1  and  N_66
REMARK    2  A    between atoms: C_2  and  N_66
REMARK    3  A    between atoms: C_3  and  C_4
REMARK    4  A    between atoms: C_3  and  N_66
REMARK    5  A    between atoms: C_4  and  C_5
REMARK    6  A    between atoms: C_5  and  N_6
REMARK    7  A    between atoms: C_7  and  C_25
REMARK    8  A    between atoms: C_10  and  C_11
REMARK    9  A    between atoms: C_10  and  O_20
REMARK   10  A    between atoms: C_27  and  O_35
REMARK   11  A    between atoms: C_28  and  O_33
REMARK   12  A    between atoms: C_29  and  O_31
REMARK   13  A    between atoms: O_31  and  C_32
REMARK   14  A    between atoms: O_33  and  C_34
REMARK   15  A    between atoms: O_35  and  C_36
REMARK                            x       y       z     vdW  Elec       q    Type
REMARK                         _______ _______ _______ _____ _____    ______ ____
ROOT
ATOM      1  N   UNL     1       5.248  -3.136  -0.372  0.00  0.00    -0.284 N 
ATOM      2  C   UNL     1       3.805  -3.377  -0.271  0.00  0.00    +0.145 C 
ATOM      3  C   UNL     1       3.149  -2.022  -0.143  0.00  0.00    +0.074 C 
ATOM      4  C   UNL     1       1.793  -1.762  -0.024  0.00  0.00    +0.168 C 
ATOM      5  C   UNL     1       4.187  -1.082  -0.163  0.00  0.00    +0.249 C 
ATOM      6  O   UNL     1       4.058   0.127  -0.077  0.00  0.00    -0.282 OA
ATOM      7  C   UNL     1       5.474  -1.813  -0.306  0.00  0.00    +0.288 C 
ATOM      8  O   UNL     1       6.569  -1.291  -0.356  0.00  0.00    -0.266 OA
ENDROOT
BRANCH   4   9
ATOM      9  C   UNL     1       1.330  -0.401   0.244  0.00  0.00    +0.171 A 
ATOM     10  C   UNL     1       0.325   0.234  -0.421  0.00  0.00    +0.061 A 
ATOM     11  C   UNL     1       0.204   1.525   0.153  0.00  0.00    +0.021 A 
ATOM     12  C   UNL     1      -0.635   2.618  -0.092  0.00  0.00    +0.011 A 
ATOM     13  C   UNL     1      -0.499   3.756   0.651  0.00  0.00    +0.001 A 
ATOM     14  C   UNL     1       0.460   3.834   1.652  0.00  0.00    +0.004 A 
ATOM     15  C   UNL     1       1.293   2.767   1.913  0.00  0.00    +0.047 A 
ATOM     16  C   UNL     1       1.177   1.600   1.168  0.00  0.00    +0.136 A 
ATOM     17  O   UNL     1       1.833   0.422   1.191  0.00  0.00    -0.452 OA
ENDBRANCH   4   9
BRANCH   2  18
ATOM     18  C   UNL     1       3.502  -4.214   0.945  0.00  0.00    -0.015 A 
ATOM     19  C   UNL     1       4.203  -4.005   2.118  0.00  0.00    +0.055 A 
ATOM     20  C   UNL     1       3.924  -4.770   3.240  0.00  0.00    +0.165 A 
ATOM     21  C   UNL     1       2.945  -5.755   3.182  0.00  0.00    +0.204 A 
ATOM     22  C   UNL     1       2.247  -5.966   1.999  0.00  0.00    +0.165 A 
ATOM     23  C   UNL     1       2.528  -5.193   0.882  0.00  0.00    +0.055 A 
BRANCH  22  24
ATOM     24  O   UNL     1       1.288  -6.928   1.937  0.00  0.00    -0.491 OA
ATOM     25  C   UNL     1       0.610  -7.089   0.689  0.00  0.00    +0.277 C 
ENDBRANCH  22  24
BRANCH  21  26
ATOM     26  O   UNL     1       2.672  -6.512   4.279  0.00  0.00    -0.488 OA
ATOM     27  C   UNL     1       3.418  -7.721   4.436  0.00  0.00    +0.277 C 
ENDBRANCH  21  26
BRANCH  20  28
ATOM     28  O   UNL     1       4.610  -4.560   4.396  0.00  0.00    -0.491 OA
ATOM     29  C   UNL     1       5.601  -3.530   4.383  0.00  0.00    +0.277 C 
ENDBRANCH  20  28
ENDBRANCH   2  18
BRANCH   4  30
ATOM     30  O   UNL     1       0.898  -2.766  -0.156  0.00  0.00    -0.503 OA
ATOM     31  H   UNL     1      -0.027  -2.405  -0.042  0.00  0.00    +0.292 HD
ENDBRANCH   4  30
BRANCH   1  32
ATOM     32  C   UNL     1       6.276  -4.169  -0.514  0.00  0.00    +0.107 C 
BRANCH  32  33
ATOM     33  C   UNL     1       6.743  -4.619   0.872  0.00  0.00    +0.000 C 
BRANCH  33  34
ATOM     34  C   UNL     1       7.817  -5.698   0.724  0.00  0.00    -0.078 C 
BRANCH  34  37
ATOM     35  C   UNL     1       9.117  -7.323   1.962  0.00  0.00    -0.097 C 
ATOM     36  C   UNL     1       8.958  -5.040   2.755  0.00  0.00    -0.097 C 
ATOM     37  N   UNL     1       8.242  -6.136   2.070  0.00  0.00    +0.376 N 
ATOM     38  H   UNL     1       7.409  -6.385   2.618  0.00  0.00    -0.083 HD
ENDBRANCH  34  37
ENDBRANCH  33  34
ENDBRANCH  32  33
ENDBRANCH   1  32
TORSDOF 10
