REMARK  Name = ZINC35193547
REMARK  9 active torsions:
REMARK  status: ('A' for Active; 'I' for Inactive)
REMARK    1  A    between atoms: C_1  and  C_2
REMARK    2  A    between atoms: C_2  and  O_3
REMARK    3  A    between atoms: O_3  and  C_4
REMARK    4  A    between atoms: C_4  and  C_6
REMARK    5  A    between atoms: C_6  and  C_28
REMARK    6  A    between atoms: C_7  and  C_22
REMARK    7  A    between atoms: C_12  and  C_16
REMARK    8  A    between atoms: C_17  and  C_20
REMARK    9  A    between atoms: C_18  and  N_19
REMARK                            x       y       z     vdW  Elec       q    Type
REMARK                         _______ _______ _______ _____ _____    ______ ____
ROOT
ATOM      1  C   UNL     1      -2.911  -2.484   0.420  0.00  0.00    +0.202 C 
ATOM      2  C   UNL     1      -2.781  -3.949   0.013  0.00  0.00    +0.082 C 
ATOM      3  C   UNL     1      -2.046  -4.730   1.083  0.00  0.00    -0.055 C 
ATOM      4  C   UNL     1      -2.255  -4.455   2.357  0.00  0.00    -0.028 C 
ATOM      5  C   UNL     1      -1.583  -5.194   3.484  0.00  0.00    +0.039 C 
ATOM      6  C   UNL     1      -0.993  -6.514   2.992  0.00  0.00    -0.009 C 
ATOM      7  C   UNL     1      -0.152  -6.221   1.742  0.00  0.00    +0.008 C 
ATOM      8  C   UNL     1      -1.102  -5.810   0.620  0.00  0.00    +0.032 C 
ATOM      9  C   UNL     1      -0.108  -7.123   4.081  0.00  0.00    +0.008 C 
ATOM     10  C   UNL     1      -3.173  -3.347   2.724  0.00  0.00    +0.073 C 
ATOM     11  C   UNL     1      -3.505  -2.404   1.804  0.00  0.00    +0.051 C 
ENDROOT
BRANCH   2  12
ATOM     12  C   UNL     1      -4.156  -4.538  -0.172  0.00  0.00    -0.038 A 
ATOM     13  C   UNL     1      -4.670  -4.705  -1.445  0.00  0.00    +0.004 A 
ATOM     14  C   UNL     1      -5.931  -5.246  -1.615  0.00  0.00    +0.000 A 
ATOM     15  C   UNL     1      -6.677  -5.620  -0.513  0.00  0.00    +0.000 A 
ATOM     16  C   UNL     1      -6.163  -5.454   0.759  0.00  0.00    +0.000 A 
ATOM     17  C   UNL     1      -4.900  -4.917   0.929  0.00  0.00    +0.004 A 
ENDBRANCH   2  12
BRANCH  11  18
ATOM     18  N   UNL     1      -4.365  -1.393   2.130  0.00  0.00    -0.359 N 
ATOM     19  H   UNL     1      -4.598  -0.722   1.469  0.00  0.00    +0.142 HD
ATOM     20  H   UNL     1      -4.744  -1.347   3.022  0.00  0.00    +0.142 HD
ENDBRANCH  11  18
BRANCH   1  21
ATOM     21  C   UNL     1      -1.549  -1.839   0.418  0.00  0.00    +0.334 C 
ATOM     22  O   UNL     1      -0.574  -2.487   0.117  0.00  0.00    -0.249 OA
BRANCH  21  23
ATOM     23  O   UNL     1      -1.418  -0.545   0.752  0.00  0.00    -0.464 OA
BRANCH  23  25
ATOM     24  C   UNL     1      -0.149   1.475   1.134  0.00  0.00    +0.048 C 
ATOM     25  C   UNL     1      -0.098   0.001   0.728  0.00  0.00    +0.229 C 
ENDBRANCH  23  25
ENDBRANCH  21  23
ENDBRANCH   1  21
BRANCH  10  26
ATOM     26  C   UNL     1      -3.710  -3.274   4.050  0.00  0.00    +0.101 C 
ATOM     27  N   UNL     1      -4.136  -3.215   5.101  0.00  0.00    -0.191 NA
ENDBRANCH  10  26
BRANCH   1  28
ATOM     28  C   UNL     1      -3.788  -1.784  -0.532  0.00  0.00    +0.088 C 
ATOM     29  N   UNL     1      -4.464  -1.244  -1.268  0.00  0.00    -0.195 NA
ENDBRANCH   1  28
TORSDOF 7
