REMARK  Name = ZINC35092935
REMARK  7 active torsions:
REMARK  status: ('A' for Active; 'I' for Inactive)
REMARK    1  A    between atoms: C_1  and  C_2
REMARK    2  A    between atoms: C_5  and  C_8
REMARK    3  A    between atoms: C_8  and  C_10
REMARK    4  A    between atoms: C_12  and  C_24
REMARK    5  A    between atoms: C_18  and  C_19
REMARK    6  A    between atoms: C_18  and  O_23
REMARK    7  A    between atoms: C_27  and  O_30
REMARK                            x       y       z     vdW  Elec       q    Type
REMARK                         _______ _______ _______ _____ _____    ______ ____
ROOT
ATOM      1  C   UNL     1       0.492  -5.167   1.682  0.00  0.00    +0.144 C 
ATOM      2  C   UNL     1       1.093  -6.487   1.187  0.00  0.00    +0.120 C 
ATOM      3  N   UNL     1       0.349  -6.942   0.011  0.00  0.00    -0.292 N 
ATOM      4  C   UNL     1      -0.946  -6.636  -0.157  0.00  0.00    +0.302 C 
ATOM      5  O   UNL     1      -1.519  -7.049  -1.147  0.00  0.00    -0.253 OA
ATOM      6  N   UNL     1      -1.633  -5.894   0.723  0.00  0.00    -0.264 N 
ATOM      7  C   UNL     1      -1.004  -5.375   1.944  0.00  0.00    +0.243 C 
ATOM      8  H   UNL     1       0.802  -7.476  -0.660  0.00  0.00    +0.151 HD
ATOM      9  H   UNL     1      -2.567  -5.694   0.550  0.00  0.00    +0.153 HD
ENDROOT
BRANCH   2  10
ATOM     10  C   UNL     1       2.539  -6.276   0.820  0.00  0.00    -0.026 A 
ATOM     11  C   UNL     1       2.869  -5.797  -0.434  0.00  0.00    +0.009 A 
ATOM     12  C   UNL     1       4.195  -5.603  -0.773  0.00  0.00    +0.046 A 
ATOM     13  C   UNL     1       5.194  -5.889   0.146  0.00  0.00    +0.117 A 
ATOM     14  C   UNL     1       4.859  -6.370   1.404  0.00  0.00    +0.046 A 
ATOM     15  C   UNL     1       3.532  -6.557   1.740  0.00  0.00    +0.009 A 
BRANCH  13  16
ATOM     16  O   UNL     1       6.498  -5.700  -0.186  0.00  0.00    -0.507 OA
ATOM     17  H   UNL     1       6.832  -4.817   0.023  0.00  0.00    +0.292 HD
ENDBRANCH  13  16
ENDBRANCH   2  10
BRANCH   7  18
ATOM     18  C   UNL     1      -1.645  -4.041   2.330  0.00  0.00    +0.436 C 
ATOM     19  F   UNL     1      -1.596  -3.166   1.239  0.00  0.00    -0.166 F 
ATOM     20  F   UNL     1      -2.978  -4.253   2.697  0.00  0.00    -0.166 F 
ATOM     21  F   UNL     1      -0.948  -3.483   3.407  0.00  0.00    -0.166 F 
ENDBRANCH   7  18
BRANCH   1  22
ATOM     22  C   UNL     1       0.679  -4.102   0.633  0.00  0.00    +0.173 C 
ATOM     23  O   UNL     1       0.128  -4.206  -0.442  0.00  0.00    -0.292 OA
BRANCH  22  28
ATOM     24  C   UNL     1       4.003   0.459   1.728  0.00  0.00    +0.044 C 
ATOM     25  C   UNL     1       3.132  -0.737   1.440  0.00  0.00    -0.050 A 
ATOM     26  C   UNL     1       2.597  -0.911   0.176  0.00  0.00    +0.004 A 
ATOM     27  C   UNL     1       1.799  -2.002  -0.095  0.00  0.00    +0.011 A 
ATOM     28  C   UNL     1       1.530  -2.934   0.913  0.00  0.00    +0.018 A 
ATOM     29  C   UNL     1       2.075  -2.751   2.188  0.00  0.00    +0.011 A 
ATOM     30  C   UNL     1       2.876  -1.658   2.441  0.00  0.00    +0.004 A 
ENDBRANCH  22  28
ENDBRANCH   1  22
BRANCH   7  31
ATOM     31  O   UNL     1      -1.177  -6.315   3.006  0.00  0.00    -0.364 OA
ATOM     32  H   UNL     1      -2.101  -6.495   3.225  0.00  0.00    +0.212 HD
ENDBRANCH   7  31
TORSDOF 6
