REMARK  Name = ZINC32624432
REMARK  11 active torsions:
REMARK  status: ('A' for Active; 'I' for Inactive)
REMARK    1  A    between atoms: C_1  and  C_2
REMARK    2  A    between atoms: C_2  and  N_3
REMARK    3  A    between atoms: N_3  and  C_4
REMARK    4  A    between atoms: N_3  and  S_6
REMARK    5  A    between atoms: C_4  and  C_5
REMARK    6  A    between atoms: S_6  and  C_9
REMARK    7  A    between atoms: C_12  and  C_15
REMARK    8  A    between atoms: N_19  and  C_20
REMARK    9  A    between atoms: C_23  and  C_26
REMARK   10  A    between atoms: N_27  and  C_28
REMARK   11  A    between atoms: C_28  and  C_29
REMARK                            x       y       z     vdW  Elec       q    Type
REMARK                         _______ _______ _______ _____ _____    ______ ____
ROOT
ATOM      1  C   UNL     1      -0.279  -6.517  -2.694  0.00  0.00    +0.058 A 
ATOM      2  C   UNL     1      -0.357  -5.579  -3.661  0.00  0.00    +0.075 A 
ATOM      3  S   UNL     1      -0.211  -4.065  -2.726  0.00  0.00    -0.059 S 
ATOM      4  C   UNL     1      -0.044  -4.790  -1.103  0.00  0.00    +0.152 A 
ATOM      5  N   UNL     1       0.106  -4.194   0.065  0.00  0.00    -0.336 N 
ATOM      6  N   UNL     1      -0.120  -6.132  -1.390  0.00  0.00    -0.317 N 
ATOM      7  H   UNL     1       0.274  -4.795   0.971  0.00  0.00    +0.168 HD
ENDROOT
BRANCH   5   8
ATOM      8  C   UNL     1       0.053  -2.831   0.149  0.00  0.00    +0.041 A 
ATOM      9  C   UNL     1      -1.178  -2.182   0.274  0.00  0.00    +0.026 A 
ATOM     10  C   UNL     1      -1.224  -0.806   0.358  0.00  0.00    +0.005 A 
ATOM     11  C   UNL     1      -0.054  -0.068   0.318  0.00  0.00    -0.050 A 
ATOM     12  C   UNL     1       1.169  -0.703   0.188  0.00  0.00    +0.005 A 
ATOM     13  C   UNL     1       1.230  -2.079   0.110  0.00  0.00    +0.026 A 
ATOM     14  C   UNL     1      -0.112   1.435   0.409  0.00  0.00    +0.044 C 
ENDBRANCH   5   8
BRANCH   1  18
ATOM     15  C   UNL     1      -0.522 -10.639  -3.691  0.00  0.00    +0.106 A 
ATOM     16  C   UNL     1      -1.501  -9.765  -4.130  0.00  0.00    +0.029 A 
ATOM     17  C   UNL     1      -1.428  -8.425  -3.809  0.00  0.00    +0.012 A 
ATOM     18  C   UNL     1      -0.363  -7.952  -3.041  0.00  0.00    -0.001 A 
ATOM     19  C   UNL     1       0.624  -8.837  -2.607  0.00  0.00    +0.012 A 
ATOM     20  C   UNL     1       0.536 -10.176  -2.929  0.00  0.00    +0.029 A 
BRANCH  15  21
ATOM     21  S   UNL     1      -0.624 -12.349  -4.103  0.00  0.00    +0.061 S 
ATOM     22  O   UNL     1       0.121 -13.050  -3.116  0.00  0.00    -0.153 OA
ATOM     23  O   UNL     1      -1.993 -12.623  -4.362  0.00  0.00    -0.153 OA
BRANCH  21  24
ATOM     24  N   UNL     1       0.180 -12.555  -5.537  0.00  0.00    -0.177 NA
BRANCH  24  26
ATOM     25  C   UNL     1       1.808 -14.378  -5.629  0.00  0.00    +0.022 C 
ATOM     26  C   UNL     1       1.612 -12.863  -5.536  0.00  0.00    +0.106 C 
ENDBRANCH  24  26
BRANCH  24  27
ATOM     27  C   UNL     1      -0.542 -12.429  -6.806  0.00  0.00    +0.106 C 
ATOM     28  C   UNL     1      -0.385 -11.005  -7.343  0.00  0.00    +0.022 C 
ENDBRANCH  24  27
ENDBRANCH  21  24
ENDBRANCH  15  21
ENDBRANCH   1  18
BRANCH   6  29
ATOM     29  C   UNL     1      -0.032  -7.131  -0.322  0.00  0.00    +0.151 C 
BRANCH  29  30
ATOM     30  C   UNL     1      -1.420  -7.537   0.101  0.00  0.00    -0.013 C 
ATOM     31  C   UNL     1      -1.786  -8.793   0.030  0.00  0.00    +0.005 C 
ENDBRANCH  29  30
ENDBRANCH   6  29
TORSDOF 8
