REMARK  Name = ZINC44737015
REMARK  9 active torsions:
REMARK  status: ('A' for Active; 'I' for Inactive)
REMARK    1  A    between atoms: C_1  and  C_2
REMARK    2  A    between atoms: C_2  and  C_3
REMARK    3  A    between atoms: C_3  and  C_4
REMARK    4  A    between atoms: C_4  and  C_5
REMARK    5  A    between atoms: C_9  and  C_18
REMARK    6  A    between atoms: N_20  and  C_21
REMARK    7  A    between atoms: C_21  and  C_23
REMARK    8  A    between atoms: C_21  and  C_24
REMARK    9  A    between atoms: C_29  and  C_33
REMARK                            x       y       z     vdW  Elec       q    Type
REMARK                         _______ _______ _______ _____ _____    ______ ____
ROOT
ATOM      1  C   UNL     1       1.395  -2.553  -2.174  0.00  0.00    +0.216 C 
ATOM      2  O   UNL     1       1.834  -1.679  -2.891  0.00  0.00    -0.276 OA
ATOM      3  N   UNL     1       1.554  -3.847  -2.516  0.00  0.00    -0.300 N 
ATOM      4  C   UNL     1       1.086  -5.045  -1.779  0.00  0.00    +0.121 C 
ATOM      5  C   UNL     1       0.600  -6.015  -2.880  0.00  0.00    +0.100 C 
ATOM      6  C   UNL     1       1.358  -5.583  -4.146  0.00  0.00    -0.004 C 
ATOM      7  C   UNL     1       2.229  -4.394  -3.718  0.00  0.00    +0.115 C 
ATOM      8  C   UNL     1       0.374  -5.147  -5.228  0.00  0.00    -0.010 C 
ATOM      9  C   UNL     1       1.149  -4.777  -6.496  0.00  0.00    -0.082 C 
ATOM     10  N   UNL     1       1.927  -5.936  -6.952  0.00  0.00    +0.379 N 
ATOM     11  C   UNL     1       2.933  -6.291  -5.944  0.00  0.00    -0.082 C 
ATOM     12  C   UNL     1       2.234  -6.725  -4.653  0.00  0.00    -0.010 C 
ATOM     13  H   UNL     1       1.307  -6.719  -7.098  0.00  0.00    -0.086 HD
ATOM     14  H   UNL     1       2.388  -5.709  -7.820  0.00  0.00    -0.086 HD
ENDROOT
BRANCH   5  15
ATOM     15  C   UNL     1      -0.887  -5.875  -3.082  0.00  0.00    +0.219 C 
ATOM     16  O   UNL     1      -1.428  -4.807  -2.888  0.00  0.00    -0.275 OA
ATOM     17  N   UNL     1      -1.616  -6.938  -3.479  0.00  0.00    -0.305 N 
ATOM     18  H   UNL     1      -1.183  -7.792  -3.634  0.00  0.00    +0.149 HD
BRANCH  17  19
ATOM     19  C   UNL     1      -3.061  -6.802  -3.675  0.00  0.00    +0.136 C 
ATOM     20  C   UNL     1      -3.337  -6.272  -5.084  0.00  0.00    +0.036 C 
BRANCH  19  21
ATOM     21  C   UNL     1      -3.720  -8.147  -3.507  0.00  0.00    +0.128 A 
ATOM     22  N   UNL     1      -3.129  -9.293  -3.682  0.00  0.00    -0.231 NA
ATOM     23  C   UNL     1      -4.009 -10.300  -3.448  0.00  0.00    +0.089 A 
ATOM     24  C   UNL     1      -3.912 -11.694  -3.490  0.00  0.00    +0.030 A 
ATOM     25  C   UNL     1      -5.003 -12.461  -3.196  0.00  0.00    +0.005 A 
ATOM     26  C   UNL     1      -6.213 -11.871  -2.855  0.00  0.00    -0.048 A 
ATOM     27  C   UNL     1      -6.331 -10.498  -2.808  0.00  0.00    +0.031 A 
ATOM     28  C   UNL     1      -5.233  -9.703  -3.103  0.00  0.00    +0.067 A 
ATOM     29  N   UNL     1      -5.016  -8.340  -3.143  0.00  0.00    -0.340 N 
ATOM     30  C   UNL     1      -7.404 -12.737  -2.535  0.00  0.00    +0.044 C 
ATOM     31  H   UNL     1      -5.668  -7.648  -2.950  0.00  0.00    +0.167 HD
ENDBRANCH  19  21
ENDBRANCH  17  19
ENDBRANCH   5  15
BRANCH   1  32
ATOM     32  C   UNL     1       0.674  -2.193  -0.901  0.00  0.00    +0.096 C 
BRANCH  32  33
ATOM     33  C   UNL     1       0.633  -0.671  -0.751  0.00  0.00    +0.009 C 
BRANCH  33  35
ATOM     34  C   UNL     1      -0.141   1.217   0.692  0.00  0.00    +0.004 C 
ATOM     35  C   UNL     1      -0.100  -0.305   0.542  0.00  0.00    -0.003 C 
ENDBRANCH  33  35
ENDBRANCH  32  33
ENDBRANCH   1  32
TORSDOF 6
