REMARK  Name = ZINC06719768
REMARK  11 active torsions:
REMARK  status: ('A' for Active; 'I' for Inactive)
REMARK    1  A    between atoms: C_1  and  C_2
REMARK    2  A    between atoms: C_2  and  C_3
REMARK    3  A    between atoms: C_12  and  O_27
REMARK    4  A    between atoms: C_13  and  C_14
REMARK    5  A    between atoms: C_14  and  N_15
REMARK    6  A    between atoms: N_15  and  C_16
REMARK    7  A    between atoms: C_16  and  C_17
REMARK    8  A    between atoms: C_20  and  O_25
REMARK    9  A    between atoms: C_22  and  O_23
REMARK   10  A    between atoms: O_23  and  C_24
REMARK   11  A    between atoms: O_25  and  C_26
REMARK                            x       y       z     vdW  Elec       q    Type
REMARK                         _______ _______ _______ _____ _____    ______ ____
ROOT
ATOM      1  C   UNL     1       0.731  -0.503   1.223  0.00  0.00    -0.030 A 
ATOM      2  C   UNL     1       0.052  -0.852   2.347  0.00  0.00    +0.096 A 
ATOM      3  C   UNL     1       0.757  -1.317   3.476  0.00  0.00    +0.337 A 
ATOM      4  O   UNL     1       0.136  -1.627   4.477  0.00  0.00    -0.245 OA
ATOM      5  O   UNL     1       2.094  -1.428   3.476  0.00  0.00    -0.422 OA
ATOM      6  C   UNL     1       2.829  -1.097   2.392  0.00  0.00    +0.144 A 
ATOM      7  C   UNL     1       2.190  -0.631   1.228  0.00  0.00    +0.023 A 
ATOM      8  C   UNL     1       2.947  -0.293   0.101  0.00  0.00    +0.035 A 
ATOM      9  C   UNL     1       4.306  -0.421   0.133  0.00  0.00    +0.083 A 
ATOM     10  C   UNL     1       4.944  -0.888   1.281  0.00  0.00    +0.140 A 
ATOM     11  C   UNL     1       4.210  -1.217   2.409  0.00  0.00    +0.021 A 
ATOM     12 CL   UNL     1       5.245  -0.002  -1.266  0.00  0.00    -0.080 Cl
ENDROOT
BRANCH   1  14
ATOM     13  C   UNL     1      -0.019   1.526   0.010  0.00  0.00    +0.009 C 
ATOM     14  C   UNL     1       0.002  -0.004   0.002  0.00  0.00    +0.033 C 
ENDBRANCH   1  14
BRANCH  10  15
ATOM     15  O   UNL     1       6.296  -1.011   1.297  0.00  0.00    -0.505 OA
ATOM     16  H   UNL     1       6.760  -0.218   1.599  0.00  0.00    +0.292 HD
ENDBRANCH  10  15
BRANCH  11  17
ATOM     17  C   UNL     1       4.910  -1.720   3.645  0.00  0.00    -0.039 C 
BRANCH  17  18
ATOM     18  N   UNL     1       5.031  -3.183   3.578  0.00  0.00    +0.385 N 
ATOM     19  H   UNL     1       4.111  -3.594   3.522  0.00  0.00    -0.085 HD
ATOM     20  H   UNL     1       5.565  -3.439   2.762  0.00  0.00    -0.085 HD
BRANCH  18  21
ATOM     21  C   UNL     1       5.713  -3.674   4.783  0.00  0.00    -0.043 C 
BRANCH  21  22
ATOM     22  C   UNL     1       5.837  -5.174   4.715  0.00  0.00    -0.022 A 
ATOM     23  C   UNL     1       4.946  -5.973   5.407  0.00  0.00    +0.009 A 
ATOM     24  C   UNL     1       5.057  -7.348   5.346  0.00  0.00    +0.046 A 
ATOM     25  C   UNL     1       6.063  -7.932   4.589  0.00  0.00    +0.124 A 
ATOM     26  C   UNL     1       6.958  -7.133   3.894  0.00  0.00    +0.091 A 
ATOM     27  C   UNL     1       6.841  -5.753   3.952  0.00  0.00    +0.125 A 
BRANCH  27  28
ATOM     28  O   UNL     1       7.713  -4.967   3.267  0.00  0.00    -0.495 OA
ATOM     29  C   UNL     1       8.722  -5.630   2.503  0.00  0.00    +0.277 C 
ENDBRANCH  27  28
BRANCH  25  30
ATOM     30  O   UNL     1       6.172  -9.285   4.530  0.00  0.00    -0.495 OA
ATOM     31  C   UNL     1       5.216 -10.046   5.271  0.00  0.00    +0.277 C 
ENDBRANCH  25  30
ENDBRANCH  21  22
ENDBRANCH  18  21
ENDBRANCH  17  18
ENDBRANCH  11  17
TORSDOF 8
