REMARK  Name = ZINC00947549
REMARK  6 active torsions:
REMARK  status: ('A' for Active; 'I' for Inactive)
REMARK    1  A    between atoms: C_1  and  C_2
REMARK    2  A    between atoms: C_4  and  O_20
REMARK    3  A    between atoms: C_6  and  C_18
REMARK    4  A    between atoms: C_7  and  N_8
REMARK    5  A    between atoms: N_8  and  S_9
REMARK    6  A    between atoms: S_9  and  C_12
REMARK                            x       y       z     vdW  Elec       q    Type
REMARK                         _______ _______ _______ _____ _____    ______ ____
ROOT
ATOM      1  C   UNL     1      -0.125   1.617  -0.300  0.00  0.00    +0.046 C 
ATOM      2  C   UNL     1      -0.092   0.121  -0.116  0.00  0.00    -0.024 A 
ATOM      3  C   UNL     1      -0.139  -0.419   1.154  0.00  0.00    +0.051 A 
ATOM      4  C   UNL     1      -0.108  -1.795   1.324  0.00  0.00    +0.131 A 
ATOM      5  C   UNL     1      -0.032  -2.630   0.218  0.00  0.00    +0.064 A 
ATOM      6  C   UNL     1       0.014  -2.091  -1.053  0.00  0.00    -0.010 A 
ATOM      7  C   UNL     1      -0.021  -0.713  -1.224  0.00  0.00    +0.055 A 
ATOM      8  C   UNL     1       0.097  -2.998  -2.254  0.00  0.00    +0.047 C 
ATOM      9 BR   UNL     1       0.009  -4.506   0.451  0.00  0.00    -0.046 Br
ENDROOT
BRANCH   7  10
ATOM     10  N   UNL     1       0.019  -0.166  -2.511  0.00  0.00    -0.216 N 
ATOM     11  H   UNL     1       0.804   0.322  -2.806  0.00  0.00    +0.174 HD
BRANCH  10  12
ATOM     12  S   UNL     1      -1.273  -0.351  -3.531  0.00  0.00    +0.072 S 
ATOM     13  O   UNL     1      -0.931   0.307  -4.743  0.00  0.00    -0.150 OA
ATOM     14  O   UNL     1      -1.633  -1.725  -3.485  0.00  0.00    -0.150 OA
BRANCH  12  15
ATOM     15  C   UNL     1      -2.619   0.546  -2.833  0.00  0.00    +0.108 A 
ATOM     16  C   UNL     1      -3.547  -0.104  -2.042  0.00  0.00    +0.029 A 
ATOM     17  C   UNL     1      -4.601   0.601  -1.490  0.00  0.00    +0.002 A 
ATOM     18  C   UNL     1      -4.732   1.954  -1.739  0.00  0.00    +0.000 A 
ATOM     19  C   UNL     1      -3.808   2.604  -2.536  0.00  0.00    +0.002 A 
ATOM     20  C   UNL     1      -2.751   1.900  -3.082  0.00  0.00    +0.029 A 
ENDBRANCH  12  15
ENDBRANCH  10  12
ENDBRANCH   7  10
BRANCH   4  21
ATOM     21  O   UNL     1      -0.154  -2.327   2.575  0.00  0.00    -0.506 OA
ATOM     22  H   UNL     1      -1.049  -2.505   2.894  0.00  0.00    +0.292 HD
ENDBRANCH   4  21
TORSDOF 4
