REMARK  Name = ZINC39273150
REMARK  7 active torsions:
REMARK  status: ('A' for Active; 'I' for Inactive)
REMARK    1  A    between atoms: C_1  and  C_2
REMARK    2  A    between atoms: C_4  and  C_16
REMARK    3  A    between atoms: C_6  and  C_14
REMARK    4  A    between atoms: C_7  and  N_13
REMARK    5  A    between atoms: C_19  and  C_21
REMARK    6  A    between atoms: C_21  and  O_22
REMARK    7  A    between atoms: O_22  and  C_23
REMARK                            x       y       z     vdW  Elec       q    Type
REMARK                         _______ _______ _______ _____ _____    ______ ____
ROOT
ATOM      1  C   UNL     1      -0.018   1.503   0.010  0.00  0.00    +0.067 C 
ATOM      2  C   UNL     1       0.002  -0.004   0.002  0.00  0.00    +0.066 C 
ATOM      3  C   UNL     1      -1.064  -0.768   0.003  0.00  0.00    +0.033 C 
ATOM      4  C   UNL     1      -2.536  -0.493   0.145  0.00  0.00    +0.133 C 
ATOM      5  C   UNL     1      -3.065  -1.577   1.066  0.00  0.00    +0.100 C 
ATOM      6  C   UNL     1      -2.303  -2.628   1.436  0.00  0.00    +0.195 C 
ATOM      7  O   UNL     1      -1.023  -2.853   1.091  0.00  0.00    -0.448 OA
ATOM      8  C   UNL     1      -0.529  -2.198  -0.081  0.00  0.00    +0.343 C 
ATOM      9  N   UNL     1       0.921  -1.985  -0.028  0.00  0.00    -0.138 NA
ATOM     10  N   UNL     1       1.127  -0.765  -0.013  0.00  0.00    -0.155 NA
ENDROOT
BRANCH   4  11
ATOM     11  C   UNL     1      -2.755   0.867   0.756  0.00  0.00    +0.118 A 
ATOM     12  C   UNL     1      -3.425   1.885   0.189  0.00  0.00    +0.046 A 
ATOM     13  C   UNL     1      -3.386   2.962   1.104  0.00  0.00    +0.048 A 
ATOM     14  C   UNL     1      -2.695   2.537   2.176  0.00  0.00    +0.142 A 
ATOM     15  O   UNL     1      -2.320   1.265   1.963  0.00  0.00    -0.460 OA
BRANCH  14  16
ATOM     16  C   UNL     1      -2.396   3.348   3.411  0.00  0.00    +0.303 C 
BRANCH  16  17
ATOM     17  O   UNL     1      -3.445   3.168   4.365  0.00  0.00    -0.484 OA
BRANCH  17  18
ATOM     18  C   UNL     1      -3.329   3.835   5.543  0.00  0.00    +0.121 A 
ATOM     19  C   UNL     1      -2.231   4.652   5.774  0.00  0.00    +0.047 A 
ATOM     20  C   UNL     1      -2.115   5.329   6.972  0.00  0.00    +0.019 A 
ATOM     21  C   UNL     1      -3.092   5.194   7.941  0.00  0.00    +0.018 A 
ATOM     22  C   UNL     1      -4.188   4.380   7.714  0.00  0.00    +0.019 A 
ATOM     23  C   UNL     1      -4.310   3.705   6.514  0.00  0.00    +0.047 A 
ATOM     24 BR   UNL     1      -2.931   6.123   9.581  0.00  0.00    -0.050 Br
ENDBRANCH  17  18
ENDBRANCH  16  17
ENDBRANCH  14  16
ENDBRANCH   4  11
BRANCH   6  25
ATOM     25  N   UNL     1      -2.896  -3.562   2.247  0.00  0.00    -0.329 N 
ATOM     26  H   UNL     1      -3.818  -3.448   2.526  0.00  0.00    +0.145 HD
ATOM     27  H   UNL     1      -2.393  -4.337   2.542  0.00  0.00    +0.145 HD
ENDBRANCH   6  25
BRANCH   5  28
ATOM     28  C   UNL     1      -4.407  -1.482   1.556  0.00  0.00    +0.101 C 
ATOM     29  N   UNL     1      -5.472  -1.407   1.944  0.00  0.00    -0.191 NA
ENDBRANCH   5  28
TORSDOF 6
