REMARK  Name = ZINC64678621
REMARK  8 active torsions:
REMARK  status: ('A' for Active; 'I' for Inactive)
REMARK    1  A    between atoms: C_1  and  C_2
REMARK    2  A    between atoms: C_7  and  C_12
REMARK    3  A    between atoms: C_15  and  C_18
REMARK    4  A    between atoms: C_18  and  C_19
REMARK    5  A    between atoms: C_19  and  N_20
REMARK    6  A    between atoms: N_20  and  C_21
REMARK    7  A    between atoms: C_22  and  C_24
REMARK    8  A    between atoms: C_29  and  C_30
REMARK                            x       y       z     vdW  Elec       q    Type
REMARK                         _______ _______ _______ _____ _____    ______ ____
ROOT
ATOM      1  C   UNL     1      -1.028  -5.115   2.104  0.00  0.00    +0.318 C 
ATOM      2  N   UNL     1      -0.846  -6.443   1.498  0.00  0.00    -0.291 N 
ATOM      3  C   UNL     1      -1.018  -7.367   2.502  0.00  0.00    +0.139 C 
ATOM      4  N   UNL     1      -1.276  -6.800   3.624  0.00  0.00    -0.072 NA
ATOM      5  O   UNL     1      -1.308  -5.388   3.487  0.00  0.00    -0.367 OA
ATOM      6  H   UNL     1      -0.643  -6.632   0.568  0.00  0.00    +0.151 HD
ENDROOT
BRANCH   1  13
ATOM      7  C   UNL     1       0.361   1.575   0.327  0.00  0.00    +0.044 C 
ATOM      8  C   UNL     1       0.415   0.070   0.375  0.00  0.00    -0.050 A 
ATOM      9  C   UNL     1       0.705  -0.640  -0.798  0.00  0.00    +0.005 A 
ATOM     10  C   UNL     1       0.772  -1.988  -0.837  0.00  0.00    +0.026 A 
ATOM     11  C   UNL     1       0.545  -2.753   0.340  0.00  0.00    +0.043 A 
ATOM     12  N   UNL     1       0.553  -4.046   0.556  0.00  0.00    -0.373 N 
ATOM     13  C   UNL     1       0.251  -4.286   1.971  0.00  0.00    +0.165 C 
ATOM     14  C   UNL     1       0.056  -2.920   2.591  0.00  0.00    +0.012 C 
ATOM     15  C   UNL     1       0.238  -2.026   1.593  0.00  0.00    -0.004 A 
ATOM     16  C   UNL     1       0.190  -0.560   1.551  0.00  0.00    +0.013 A 
ATOM     17  H   UNL     1       0.729  -4.730  -0.109  0.00  0.00    +0.160 HD
ENDBRANCH   1  13
BRANCH   3  18
ATOM     18  C   UNL     1      -0.916  -8.858   2.310  0.00  0.00    +0.094 C 
BRANCH  18  19
ATOM     19  C   UNL     1      -1.166  -9.563   3.645  0.00  0.00    +0.115 C 
BRANCH  19  20
ATOM     20  N   UNL     1      -1.067 -11.012   3.458  0.00  0.00    -0.300 N 
ATOM     21  C   UNL     1       0.223 -11.686   3.624  0.00  0.00    +0.132 C 
ATOM     22  C   UNL     1      -2.163 -11.726   3.133  0.00  0.00    +0.247 C 
ATOM     23  O   UNL     1      -3.212 -11.157   2.897  0.00  0.00    -0.270 OA
BRANCH  22  24
ATOM     24  C   UNL     1      -2.091 -13.201   3.062  0.00  0.00    +0.040 A 
ATOM     25  C   UNL     1      -1.496 -13.924   4.098  0.00  0.00    +0.013 A 
ATOM     26  C   UNL     1      -1.432 -15.300   4.026  0.00  0.00    +0.001 A 
ATOM     27  C   UNL     1      -1.955 -15.964   2.930  0.00  0.00    +0.000 A 
ATOM     28  C   UNL     1      -2.545 -15.254   1.900  0.00  0.00    +0.004 A 
ATOM     29  C   UNL     1      -2.621 -13.877   1.962  0.00  0.00    -0.038 A 
ATOM     30  C   UNL     1      -3.269 -13.105   0.842  0.00  0.00    +0.044 C 
ENDBRANCH  22  24
ENDBRANCH  19  20
ENDBRANCH  18  19
ENDBRANCH   3  18
TORSDOF 5
