REMARK  Name = ZINC06283286
REMARK  10 active torsions:
REMARK  status: ('A' for Active; 'I' for Inactive)
REMARK    1  A    between atoms: C_1  and  C_2
REMARK    2  A    between atoms: C_8  and  C_10
REMARK    3  A    between atoms: C_8  and  C_24
REMARK    4  A    between atoms: C_8  and  N_65
REMARK    5  A    between atoms: C_15  and  O_22
REMARK    6  A    between atoms: O_22  and  C_23
REMARK    7  A    between atoms: N_28  and  C_29
REMARK    8  A    between atoms: C_29  and  C_30
REMARK    9  A    between atoms: C_33  and  O_36
REMARK   10  A    between atoms: O_36  and  C_37
REMARK                            x       y       z     vdW  Elec       q    Type
REMARK                         _______ _______ _______ _____ _____    ______ ____
ROOT
ATOM      1  C   UNL     1      -0.266   0.852   4.512  0.00  0.00    +0.039 C 
ENDROOT
BRANCH   1   2
ATOM      2  C   UNL     1      -1.141   1.613   5.474  0.00  0.00    +0.011 A 
ATOM      3  C   UNL     1      -1.534   1.030   6.635  0.00  0.00    +0.017 A 
ATOM      4  C   UNL     1      -2.383   1.795   7.549  0.00  0.00    -0.001 A 
ATOM      5  C   UNL     1      -2.819   1.246   8.761  0.00  0.00    +0.013 A 
ATOM      6  C   UNL     1      -3.610   1.982   9.593  0.00  0.00    +0.046 A 
ATOM      7  C   UNL     1      -3.989   3.279   9.246  0.00  0.00    +0.122 A 
ATOM      8  C   UNL     1      -3.568   3.840   8.053  0.00  0.00    +0.072 A 
ATOM      9  C   UNL     1      -2.762   3.104   7.193  0.00  0.00    +0.053 A 
ATOM     10  N   UNL     1      -2.328   3.638   5.998  0.00  0.00    -0.322 N 
ATOM     11  H   UNL     1      -2.590   4.540   5.754  0.00  0.00    +0.169 HD
ATOM     12  C   UNL     1      -1.544   2.929   5.168  0.00  0.00    +0.251 A 
ATOM     13  O   UNL     1      -1.176   3.434   4.122  0.00  0.00    -0.268 OA
BRANCH   7  14
ATOM     14  O   UNL     1      -4.777   3.997  10.086  0.00  0.00    -0.495 OA
ATOM     15  C   UNL     1      -5.177   3.362  11.302  0.00  0.00    +0.277 C 
ENDBRANCH   7  14
ENDBRANCH   1   2
BRANCH   1  22
ATOM     16  C   UNL     1       0.117  -0.611  -0.169  0.00  0.00    +0.005 C 
ATOM     17  C   UNL     1      -0.762   0.114   0.853  0.00  0.00    -0.031 C 
ATOM     18  C   UNL     1      -2.125  -0.580   0.937  0.00  0.00    -0.001 C 
ATOM     19  C   UNL     1      -2.976   0.113   2.004  0.00  0.00    -0.018 C 
ATOM     20  C   UNL     1      -2.239   0.073   3.344  0.00  0.00    -0.077 C 
ATOM     21  C   UNL     1      -0.089   0.073   2.227  0.00  0.00    -0.074 C 
ATOM     22  N   UNL     1      -0.947   0.778   3.203  0.00  0.00    +0.389 N 
ATOM     23  H   UNL     1      -1.123   1.731   2.864  0.00  0.00    -0.080 HD
ENDBRANCH   1  22
BRANCH   1  24
ATOM     24  C   UNL     1      -0.007  -0.530   5.053  0.00  0.00    +0.143 A 
ATOM     25  N   UNL     1      -0.883  -1.495   5.188  0.00  0.00    -0.115 NA
ATOM     26  N   UNL     1      -0.276  -2.518   5.684  0.00  0.00    -0.023 NA
ATOM     27  N   UNL     1       0.965  -2.230   5.869  0.00  0.00    -0.044 NA
ATOM     28  N   UNL     1       1.172  -1.015   5.487  0.00  0.00    -0.226 N 
BRANCH  28  29
ATOM     29  C   UNL     1       2.448  -0.297   5.522  0.00  0.00    +0.182 C 
BRANCH  29  30
ATOM     30  C   UNL     1       2.647   0.307   6.888  0.00  0.00    -0.026 A 
ATOM     31  C   UNL     1       2.274   1.617   7.124  0.00  0.00    +0.009 A 
ATOM     32  C   UNL     1       2.451   2.172   8.377  0.00  0.00    +0.046 A 
ATOM     33  C   UNL     1       3.013   1.416   9.396  0.00  0.00    +0.120 A 
ATOM     34  C   UNL     1       3.391   0.103   9.155  0.00  0.00    +0.046 A 
ATOM     35  C   UNL     1       3.208  -0.448   7.901  0.00  0.00    +0.009 A 
BRANCH  33  36
ATOM     36  O   UNL     1       3.192   1.961  10.628  0.00  0.00    -0.495 OA
ATOM     37  C   UNL     1       2.779   3.318  10.804  0.00  0.00    +0.277 C 
ENDBRANCH  33  36
ENDBRANCH  29  30
ENDBRANCH  28  29
ENDBRANCH   1  24
TORSDOF 7
