REMARK  Name = ZINC64185807
REMARK  10 active torsions:
REMARK  status: ('A' for Active; 'I' for Inactive)
REMARK    1  A    between atoms: C_1  and  C_2
REMARK    2  A    between atoms: N_5  and  C_11
REMARK    3  A    between atoms: C_7  and  C_10
REMARK    4  A    between atoms: C_11  and  C_12
REMARK    5  A    between atoms: C_14  and  N_18
REMARK    6  A    between atoms: C_19  and  C_21
REMARK    7  A    between atoms: C_21  and  C_23
REMARK    8  A    between atoms: C_21  and  N_33
REMARK    9  A    between atoms: C_23  and  C_24
REMARK   10  A    between atoms: C_34  and  C_36
REMARK                            x       y       z     vdW  Elec       q    Type
REMARK                         _______ _______ _______ _____ _____    ______ ____
ROOT
ATOM      1  N   UNL     1       5.738   3.092  -1.330  0.00  0.00    -0.284 N 
ATOM      2  C   UNL     1       6.838   3.811  -1.028  0.00  0.00    +0.236 C 
ATOM      3  O   UNL     1       7.923   3.272  -0.993  0.00  0.00    -0.274 OA
ATOM      4  H   UNL     1       4.870   3.523  -1.358  0.00  0.00    +0.152 HD
ENDROOT
BRANCH   1   7
ATOM      5  C   UNL     1       4.176   0.223  -2.490  0.00  0.00    +0.040 C 
ATOM      6  N   UNL     1       4.535   0.997  -1.567  0.00  0.00    -0.258 NA
ATOM      7  C   UNL     1       5.854   1.659  -1.615  0.00  0.00    +0.251 C 
ATOM      8  S   UNL     1       6.322   1.365  -3.377  0.00  0.00    -0.109 S 
ATOM      9  C   UNL     1       5.128  -0.020  -3.652  0.00  0.00    +0.124 C 
BRANCH   5  10
ATOM     10  C   UNL     1       2.832  -0.456  -2.443  0.00  0.00    +0.136 C 
BRANCH  10  14
ATOM     11  C   UNL     1      -0.019   1.526   0.010  0.00  0.00    +0.039 C 
ATOM     12  C   UNL     1       0.002  -0.004   0.002  0.00  0.00    +0.130 C 
ATOM     13  C   UNL     1       0.720  -0.499  -1.256  0.00  0.00    +0.116 C 
ATOM     14  N   UNL     1       2.120  -0.050  -1.224  0.00  0.00    -0.292 NA
ATOM     15  C   UNL     1       2.801  -0.554  -0.023  0.00  0.00    +0.116 C 
ATOM     16  C   UNL     1       2.062  -0.059   1.223  0.00  0.00    +0.130 C 
ATOM     17  O   UNL     1       0.695  -0.479   1.159  0.00  0.00    -0.371 OA
ATOM     18  C   UNL     1       2.719  -0.646   2.474  0.00  0.00    +0.039 C 
ENDBRANCH  10  14
ENDBRANCH   5  10
ENDBRANCH   1   7
BRANCH   2  19
ATOM     19  C   UNL     1       6.718   5.284  -0.735  0.00  0.00    +0.163 C 
BRANCH  19  20
ATOM     20  N   UNL     1       8.024   5.924  -0.909  0.00  0.00    -0.304 N 
ATOM     21  C   UNL     1       9.073   5.528  -0.161  0.00  0.00    +0.211 C 
ATOM     22  O   UNL     1       8.936   4.641   0.655  0.00  0.00    -0.276 OA
ATOM     23  C   UNL     1      10.417   6.186  -0.340  0.00  0.00    +0.109 C 
ATOM     24  H   UNL     1       8.134   6.633  -1.561  0.00  0.00    +0.149 HD
ENDBRANCH  19  20
BRANCH  19  25
ATOM     25  C   UNL     1       6.241   5.480   0.705  0.00  0.00    +0.065 C 
BRANCH  25  26
ATOM     26  C   UNL     1       6.003   6.946   0.961  0.00  0.00    -0.039 C 
ATOM     27  C   UNL     1       4.827   7.607   0.869  0.00  0.00    -0.001 A 
ATOM     28  C   UNL     1       3.469   7.176   0.516  0.00  0.00    +0.010 A 
ATOM     29  C   UNL     1       2.471   8.090   0.510  0.00  0.00    +0.001 A 
ATOM     30  C   UNL     1       2.702   9.434   0.831  0.00  0.00    +0.002 A 
ATOM     31  C   UNL     1       3.922   9.906   1.165  0.00  0.00    +0.026 A 
ATOM     32  C   UNL     1       5.044   9.033   1.204  0.00  0.00    +0.043 A 
ATOM     33  N   UNL     1       6.305   9.245   1.492  0.00  0.00    -0.380 N 
ATOM     34  C   UNL     1       7.031   7.975   1.377  0.00  0.00    +0.144 C 
ATOM     35  H   UNL     1       6.693  10.098   1.742  0.00  0.00    +0.160 HD
ENDBRANCH  25  26
ENDBRANCH  19  25
ENDBRANCH   2  19
TORSDOF 7
