REMARK  Name = ZINC18179056
REMARK  8 active torsions:
REMARK  status: ('A' for Active; 'I' for Inactive)
REMARK    1  A    between atoms: C_1  and  C_2
REMARK    2  A    between atoms: N_9  and  N_10
REMARK    3  A    between atoms: N_10  and  C_11
REMARK    4  A    between atoms: C_11  and  N_13
REMARK    5  A    between atoms: C_17  and  C_27
REMARK    6  A    between atoms: C_17  and  C_28
REMARK    7  A    between atoms: C_19  and  C_20
REMARK    8  A    between atoms: C_19  and  C_21
REMARK                            x       y       z     vdW  Elec       q    Type
REMARK                         _______ _______ _______ _____ _____    ______ ____
ROOT
ATOM      1  C   UNL     1       0.207   1.503   0.174  0.00  0.00    +0.044 C 
ATOM      2  C   UNL     1       0.190  -0.004   0.150  0.00  0.00    -0.039 A 
ATOM      3  C   UNL     1       0.092  -0.713  -1.042  0.00  0.00    +0.004 A 
ATOM      4  C   UNL     1       0.075  -2.101  -1.093  0.00  0.00    +0.006 A 
ATOM      5  C   UNL     1       0.153  -2.851   0.057  0.00  0.00    -0.015 A 
ATOM      6  C   UNL     1       0.249  -2.149   1.255  0.00  0.00    +0.051 A 
ATOM      7  C   UNL     1       0.276  -0.752   1.321  0.00  0.00    +0.032 A 
ATOM      8  C   UNL     1       0.396  -0.434   2.748  0.00  0.00    +0.153 C 
ATOM      9  N   UNL     1       0.454   0.757   3.296  0.00  0.00    -0.175 NA
ATOM     10  C   UNL     1       0.435  -1.748   3.441  0.00  0.00    +0.272 C 
ATOM     11  O   UNL     1       0.531  -1.918   4.642  0.00  0.00    -0.268 OA
ATOM     12  N   UNL     1       0.334  -2.715   2.518  0.00  0.00    -0.260 N 
ATOM     13  C   UNL     1       0.321  -4.179   2.674  0.00  0.00    +0.038 C 
ATOM     14  C   UNL     1      -0.443  -4.784   1.489  0.00  0.00    +0.041 C 
ATOM     15  C   UNL     1       0.147  -4.349   0.144  0.00  0.00    +0.022 C 
ATOM     16  C   UNL     1       1.580  -4.871   0.023  0.00  0.00    +0.021 C 
ATOM     17  C   UNL     1       1.756  -4.709   2.687  0.00  0.00    +0.032 C 
ATOM     18  C   UNL     1      -0.379  -4.552   3.982  0.00  0.00    +0.032 C 
ENDROOT
BRANCH  15  19
ATOM     19  C   UNL     1      -0.688  -4.913  -0.976  0.00  0.00    -0.037 A 
ATOM     20  C   UNL     1      -0.153  -5.864  -1.826  0.00  0.00    +0.004 A 
ATOM     21  C   UNL     1      -0.919  -6.381  -2.853  0.00  0.00    +0.000 A 
ATOM     22  C   UNL     1      -2.220  -5.949  -3.031  0.00  0.00    +0.000 A 
ATOM     23  C   UNL     1      -2.755  -4.999  -2.182  0.00  0.00    +0.000 A 
ATOM     24  C   UNL     1      -1.990  -4.484  -1.151  0.00  0.00    +0.004 A 
ENDBRANCH  15  19
BRANCH   9  25
ATOM     25  N   UNL     1       0.569   0.883   4.686  0.00  0.00    -0.218 N 
ATOM     26  H   UNL     1       0.604   0.090   5.244  0.00  0.00    +0.176 HD
BRANCH  25  27
ATOM     27  C   UNL     1       0.629   2.106   5.249  0.00  0.00    +0.147 C 
ATOM     28  S   UNL     1       0.769   2.261   6.948  0.00  0.00    -0.017 S 
BRANCH  27  29
ATOM     29  N   UNL     1       0.580   3.208   4.474  0.00  0.00    -0.339 N 
ATOM     30  H   UNL     1       0.500   3.120   3.511  0.00  0.00    +0.144 HD
ATOM     31  H   UNL     1       0.623   4.088   4.879  0.00  0.00    +0.144 HD
ENDBRANCH  27  29
ENDBRANCH  25  27
ENDBRANCH   9  25
TORSDOF 4
