REMARK  Name = ZINC63743079
REMARK  10 active torsions:
REMARK  status: ('A' for Active; 'I' for Inactive)
REMARK    1  A    between atoms: C_1  and  C_2
REMARK    2  A    between atoms: C_5  and  C_8
REMARK    3  A    between atoms: C_8  and  C_10
REMARK    4  A    between atoms: C_8  and  N_14
REMARK    5  A    between atoms: C_10  and  C_11
REMARK    6  A    between atoms: C_15  and  C_17
REMARK    7  A    between atoms: C_17  and  C_19
REMARK    8  A    between atoms: C_17  and  N_29
REMARK    9  A    between atoms: C_19  and  C_20
REMARK   10  A    between atoms: C_30  and  C_32
REMARK                            x       y       z     vdW  Elec       q    Type
REMARK                         _______ _______ _______ _____ _____    ______ ____
ROOT
ATOM      1  C   UNL     1      -2.273  -5.953   2.397  0.00  0.00    +0.163 C 
ENDROOT
BRANCH   1   2
ATOM      2  N   UNL     1      -3.302  -6.929   2.031  0.00  0.00    -0.304 N 
ATOM      3  C   UNL     1      -2.947  -8.106   1.478  0.00  0.00    +0.211 C 
ATOM      4  O   UNL     1      -1.777  -8.356   1.282  0.00  0.00    -0.276 OA
ATOM      5  C   UNL     1      -4.006  -9.110   1.101  0.00  0.00    +0.109 C 
ATOM      6  H   UNL     1      -4.238  -6.729   2.187  0.00  0.00    +0.149 HD
ENDBRANCH   1   2
BRANCH   1   8
ATOM      7  N   UNL     1      -0.788  -4.410   1.159  0.00  0.00    -0.306 N 
ATOM      8  C   UNL     1      -1.495  -5.557   1.169  0.00  0.00    +0.234 C 
ATOM      9  O   UNL     1      -1.506  -6.272   0.189  0.00  0.00    -0.274 OA
ATOM     10  H   UNL     1      -0.838  -3.803   1.914  0.00  0.00    +0.149 HD
BRANCH   7  11
ATOM     11  C   UNL     1       0.054  -4.079   0.007  0.00  0.00    +0.114 C 
BRANCH  11  16
ATOM     12  C   UNL     1       0.670   1.657  -0.341  0.00  0.00    +0.044 C 
ATOM     13  C   UNL     1       0.510   0.161  -0.250  0.00  0.00    -0.050 A 
ATOM     14  C   UNL     1       0.336  -0.587  -1.400  0.00  0.00    +0.004 A 
ATOM     15  C   UNL     1       0.189  -1.959  -1.317  0.00  0.00    +0.006 A 
ATOM     16  C   UNL     1       0.216  -2.583  -0.084  0.00  0.00    -0.027 A 
ATOM     17  C   UNL     1       0.390  -1.836   1.066  0.00  0.00    +0.006 A 
ATOM     18  C   UNL     1       0.542  -0.464   0.982  0.00  0.00    +0.004 A 
ENDBRANCH  11  16
BRANCH  11  19
ATOM     19  C   UNL     1       1.428  -4.731   0.176  0.00  0.00    +0.152 C 
BRANCH  19  20
ATOM     20  C   UNL     1       2.239  -4.527  -1.078  0.00  0.00    +0.358 C 
ATOM     21  O   UNL     1       1.722  -4.029  -2.064  0.00  0.00    -0.246 OA
ATOM     22  O   UNL     1       3.411  -4.859  -1.107  0.00  0.00    -0.246 OA
ENDBRANCH  19  20
ENDBRANCH  11  19
ENDBRANCH   7  11
ENDBRANCH   1   8
BRANCH   1  23
ATOM     23  C   UNL     1      -1.323  -6.574   3.424  0.00  0.00    +0.065 C 
BRANCH  23  24
ATOM     24  C   UNL     1      -2.076  -6.856   4.698  0.00  0.00    -0.039 C 
ATOM     25  C   UNL     1      -2.647  -8.027   5.063  0.00  0.00    -0.001 A 
ATOM     26  C   UNL     1      -2.735  -9.337   4.407  0.00  0.00    +0.010 A 
ATOM     27  C   UNL     1      -3.389 -10.342   5.033  0.00  0.00    +0.001 A 
ATOM     28  C   UNL     1      -3.982 -10.164   6.290  0.00  0.00    +0.002 A 
ATOM     29  C   UNL     1      -3.943  -8.990   6.956  0.00  0.00    +0.026 A 
ATOM     30  C   UNL     1      -3.281  -7.865   6.391  0.00  0.00    +0.043 A 
ATOM     31  N   UNL     1      -3.110  -6.642   6.830  0.00  0.00    -0.380 N 
ATOM     32  C   UNL     1      -2.340  -5.890   5.832  0.00  0.00    +0.144 C 
ATOM     33  H   UNL     1      -3.433  -6.293   7.675  0.00  0.00    +0.160 HD
ENDBRANCH  23  24
ENDBRANCH   1  23
TORSDOF 8
