REMARK  Name = ZINC04177741
REMARK  9 active torsions:
REMARK  status: ('A' for Active; 'I' for Inactive)
REMARK    1  A    between atoms: C_1  and  C_2
REMARK    2  A    between atoms: C_2  and  N_66
REMARK    3  A    between atoms: C_8  and  N_13
REMARK    4  A    between atoms: C_9  and  C_10
REMARK    5  A    between atoms: C_14  and  C_16
REMARK    6  A    between atoms: C_19  and  S_22
REMARK    7  A    between atoms: S_22  and  N_25
REMARK    8  A    between atoms: C_27  and  C_34
REMARK    9  A    between atoms: C_30  and  C_33
REMARK                            x       y       z     vdW  Elec       q    Type
REMARK                         _______ _______ _______ _____ _____    ______ ____
ROOT
ATOM      1  N   UNL     1       1.141  -4.913   0.436  0.00  0.00    -0.275 N 
ATOM      2  C   UNL     1       0.060  -4.251  -0.022  0.00  0.00    +0.249 C 
ATOM      3  O   UNL     1      -0.898  -4.869  -0.442  0.00  0.00    -0.270 OA
ATOM      4  H   UNL     1       1.905  -4.419   0.772  0.00  0.00    +0.156 HD
ENDROOT
BRANCH   1  10
ATOM      5  C   UNL     1       2.173 -10.977   1.289  0.00  0.00    -0.074 C 
ATOM      6  C   UNL     1       2.932  -9.653   1.154  0.00  0.00    +0.018 C 
ATOM      7  C   UNL     1       1.938  -8.576   0.736  0.00  0.00    -0.027 A 
ATOM      8  C   UNL     1       0.739  -8.925   0.215  0.00  0.00    -0.021 A 
ATOM      9  S   UNL     1      -0.072  -7.388  -0.116  0.00  0.00    -0.079 S 
ATOM     10  C   UNL     1       1.160  -6.298   0.428  0.00  0.00    +0.085 A 
ATOM     11  C   UNL     1       2.173  -7.149   0.849  0.00  0.00    +0.068 A 
ATOM     12  C   UNL     1       0.243 -10.317  -0.018  0.00  0.00    -0.035 C 
ATOM     13  N   UNL     1       1.408 -11.232   0.051  0.00  0.00    +0.383 N 
ATOM     14  H   UNL     1       2.016 -11.060  -0.759  0.00  0.00    -0.081 HD
BRANCH  11  15
ATOM     15  C   UNL     1       3.431  -6.626   1.391  0.00  0.00    +0.244 C 
ATOM     16  O   UNL     1       3.541  -6.421   2.585  0.00  0.00    -0.270 OA
ATOM     17  N   UNL     1       4.466  -6.372   0.565  0.00  0.00    -0.325 N 
ATOM     18  H   UNL     1       4.379  -6.536  -0.387  0.00  0.00    +0.145 HD
ATOM     19  H   UNL     1       5.299  -6.026   0.923  0.00  0.00    +0.145 HD
ENDBRANCH  11  15
BRANCH  13  21
ATOM     20  C   UNL     1       0.127 -12.960   1.268  0.00  0.00    -0.017 C 
ATOM     21  C   UNL     1       0.951 -12.637   0.019  0.00  0.00    -0.082 C 
ENDBRANCH  13  21
ENDBRANCH   1  10
BRANCH   2  22
ATOM     22  C   UNL     1       0.040  -2.773  -0.013  0.00  0.00    +0.037 A 
ATOM     23  C   UNL     1      -1.078  -2.084  -0.487  0.00  0.00    +0.015 A 
ATOM     24  C   UNL     1      -1.091  -0.705  -0.477  0.00  0.00    +0.029 A 
ATOM     25  C   UNL     1       0.002  -0.004   0.002  0.00  0.00    +0.106 A 
ATOM     26  C   UNL     1       1.116  -0.680   0.468  0.00  0.00    +0.029 A 
ATOM     27  C   UNL     1       1.139  -2.060   0.469  0.00  0.00    +0.015 A 
BRANCH  25  28
ATOM     28  S   UNL     1      -0.022   1.758   0.012  0.00  0.00    +0.061 S 
ATOM     29  O   UNL     1       1.334   2.182   0.001  0.00  0.00    -0.153 OA
ATOM     30  O   UNL     1      -0.953   2.157  -0.985  0.00  0.00    -0.153 OA
BRANCH  28  31
ATOM     31  N   UNL     1      -0.654   2.231   1.467  0.00  0.00    -0.176 NA
ATOM     32  C   UNL     1      -2.101   2.438   1.623  0.00  0.00    +0.112 C 
ATOM     33  C   UNL     1      -2.589   1.597   2.813  0.00  0.00    +0.002 C 
ATOM     34  C   UNL     1      -1.766   1.953   4.053  0.00  0.00    +0.009 C 
ATOM     35  C   UNL     1      -0.293   1.623   3.803  0.00  0.00    +0.002 C 
ATOM     36  C   UNL     1       0.221   2.458   2.626  0.00  0.00    +0.112 C 
ATOM     37  C   UNL     1       0.523   1.948   5.055  0.00  0.00    +0.009 C 
ATOM     38  C   UNL     1      -2.418   0.110   2.496  0.00  0.00    +0.009 C 
ENDBRANCH  28  31
ENDBRANCH  25  28
ENDBRANCH   2  22
TORSDOF 6
