REMARK  Name = ZINC38683192
REMARK  10 active torsions:
REMARK  status: ('A' for Active; 'I' for Inactive)
REMARK    1  A    between atoms: C_1  and  C_2
REMARK    2  A    between atoms: C_6  and  C_8
REMARK    3  A    between atoms: C_8  and  O_10
REMARK    4  A    between atoms: O_10  and  C_11
REMARK    5  A    between atoms: C_18  and  N_34
REMARK    6  A    between atoms: C_19  and  C_32
REMARK    7  A    between atoms: C_20  and  C_22
REMARK    8  A    between atoms: C_25  and  C_28
REMARK    9  A    between atoms: C_28  and  O_30
REMARK   10  A    between atoms: O_30  and  C_31
REMARK                            x       y       z     vdW  Elec       q    Type
REMARK                         _______ _______ _______ _____ _____    ______ ____
ROOT
ATOM      1  C   UNL     1       0.117  -4.926   3.586  0.00  0.00    +0.135 A 
ATOM      2  C   UNL     1       0.071  -4.294   4.821  0.00  0.00    +0.047 A 
ATOM      3  C   UNL     1       0.120  -5.041   5.981  0.00  0.00    +0.012 A 
ATOM      4  C   UNL     1       0.215  -6.420   5.919  0.00  0.00    +0.008 A 
ATOM      5  C   UNL     1       0.261  -7.057   4.689  0.00  0.00    +0.138 A 
ATOM      6  C   UNL     1       0.206  -6.307   3.521  0.00  0.00    +0.093 A 
ATOM      7  O   UNL     1       0.354  -8.407   4.608  0.00  0.00    -0.441 OA
ATOM      8  C   UNL     1       0.022  -9.167   5.665  0.00  0.00    +0.199 C 
ATOM      9  C   UNL     1      -0.038  -8.662   6.920  0.00  0.00    +0.098 C 
ATOM     10  C   UNL     1       0.268  -7.216   7.196  0.00  0.00    +0.098 C 
ENDROOT
BRANCH  10  11
ATOM     11  C   UNL     1       1.645  -7.104   7.798  0.00  0.00    -0.035 A 
ATOM     12  C   UNL     1       2.747  -7.533   7.080  0.00  0.00    +0.005 A 
ATOM     13  C   UNL     1       4.011  -7.433   7.625  0.00  0.00    +0.015 A 
ATOM     14  C   UNL     1       4.176  -6.897   8.903  0.00  0.00    +0.059 A 
ATOM     15  C   UNL     1       3.059  -6.466   9.622  0.00  0.00    +0.015 A 
ATOM     16  C   UNL     1       1.802  -6.567   9.063  0.00  0.00    +0.005 A 
BRANCH  14  17
ATOM     17  C   UNL     1       5.525  -6.787   9.494  0.00  0.00    +0.339 C 
ATOM     18  O   UNL     1       6.495  -7.164   8.866  0.00  0.00    -0.245 OA
BRANCH  17  19
ATOM     19  O   UNL     1       5.681  -6.270  10.728  0.00  0.00    -0.464 OA
ATOM     20  C   UNL     1       7.014  -6.194  11.236  0.00  0.00    +0.280 C 
ENDBRANCH  17  19
ENDBRANCH  14  17
ENDBRANCH  10  11
BRANCH   8  21
ATOM     21  N   UNL     1      -0.267 -10.494   5.466  0.00  0.00    -0.328 N 
ATOM     22  H   UNL     1      -0.228 -10.870   4.573  0.00  0.00    +0.145 HD
ATOM     23  H   UNL     1      -0.508 -11.055   6.219  0.00  0.00    +0.145 HD
ENDBRANCH   8  21
BRANCH   9  24
ATOM     24  C   UNL     1      -0.400  -9.522   8.005  0.00  0.00    +0.101 C 
ATOM     25  N   UNL     1      -0.688 -10.205   8.867  0.00  0.00    -0.191 NA
ENDBRANCH   9  24
BRANCH   1  26
ATOM     26  O   UNL     1       0.068  -4.192   2.443  0.00  0.00    -0.422 OA
BRANCH  26  27
ATOM     27  C   UNL     1       1.188  -3.550   2.057  0.00  0.00    +0.344 C 
ATOM     28  O   UNL     1       2.172  -3.563   2.768  0.00  0.00    -0.245 OA
BRANCH  27  34
ATOM     29  C   UNL     1       3.646  -0.770  -1.279  0.00  0.00    +0.044 C 
ATOM     30  C   UNL     1       2.397  -1.491  -0.841  0.00  0.00    -0.050 A 
ATOM     31  C   UNL     1       1.273  -1.478  -1.649  0.00  0.00    +0.003 A 
ATOM     32  C   UNL     1       0.122  -2.138  -1.256  0.00  0.00    +0.001 A 
ATOM     33  C   UNL     1       0.088  -2.813  -0.053  0.00  0.00    +0.015 A 
ATOM     34  C   UNL     1       1.218  -2.830   0.767  0.00  0.00    +0.060 A 
ATOM     35  C   UNL     1       2.378  -2.167   0.361  0.00  0.00    +0.018 A 
ENDBRANCH  27  34
ENDBRANCH  26  27
ENDBRANCH   1  26
TORSDOF 8
