REMARK  Name = ZINC36491253
REMARK  17 active torsions:
REMARK  status: ('A' for Active; 'I' for Inactive)
REMARK    1  A    between atoms: C_1  and  C_2
REMARK    2  A    between atoms: C_2  and  C_4
REMARK    3  A    between atoms: N_6  and  C_7
REMARK    4  A    between atoms: N_6  and  C_13
REMARK    5  A    between atoms: C_13  and  C_15
REMARK    6  A    between atoms: C_13  and  C_24
REMARK    7  A    between atoms: C_16  and  O_23
REMARK    8  A    between atoms: C_18  and  O_22
REMARK    9  A    between atoms: C_20  and  O_21
REMARK   10  A    between atoms: N_26  and  C_27
REMARK   11  A    between atoms: C_27  and  C_28
REMARK   12  A    between atoms: C_27  and  C_29
REMARK   13  A    between atoms: C_27  and  C_30
REMARK   14  A    between atoms: C_30  and  C_31
REMARK   15  A    between atoms: C_31  and  C_32
REMARK   16  A    between atoms: C_31  and  C_33
REMARK   17  A    between atoms: C_31  and  C_34
REMARK                            x       y       z     vdW  Elec       q    Type
REMARK                         _______ _______ _______ _____ _____    ______ ____
ROOT
ATOM      1  C   UNL     1       0.412   0.815  -0.929  0.00  0.00    +0.200 C 
ENDROOT
BRANCH   1   2
ATOM      2  C   UNL     1       1.878   1.146  -0.817  0.00  0.00    +0.065 A 
ATOM      3  C   UNL     1       2.528   1.011   0.401  0.00  0.00    +0.129 A 
ATOM      4  C   UNL     1       3.877   1.315   0.504  0.00  0.00    +0.091 A 
ATOM      5  C   UNL     1       4.577   1.754  -0.610  0.00  0.00    +0.124 A 
ATOM      6  C   UNL     1       3.927   1.887  -1.828  0.00  0.00    +0.091 A 
ATOM      7  C   UNL     1       2.579   1.579  -1.933  0.00  0.00    +0.129 A 
BRANCH   7   8
ATOM      8  O   UNL     1       1.944   1.705  -3.127  0.00  0.00    -0.506 OA
ATOM      9  H   UNL     1       1.556   2.579  -3.276  0.00  0.00    +0.292 HD
ENDBRANCH   7   8
BRANCH   5  10
ATOM     10  O   UNL     1       5.898   2.053  -0.509  0.00  0.00    -0.507 OA
ATOM     11  H   UNL     1       6.485   1.303  -0.680  0.00  0.00    +0.292 HD
ENDBRANCH   5  10
BRANCH   3  12
ATOM     12  O   UNL     1       1.843   0.582   1.493  0.00  0.00    -0.506 OA
ATOM     13  H   UNL     1       2.012  -0.341   1.726  0.00  0.00    +0.292 HD
ENDBRANCH   3  12
ENDBRANCH   1   2
BRANCH   1  14
ATOM     14  C   UNL     1      -0.365   1.636   0.067  0.00  0.00    +0.239 C 
ATOM     15  O   UNL     1      -0.945   1.090   0.982  0.00  0.00    -0.273 OA
ATOM     16  N   UNL     1      -0.417   2.977  -0.059  0.00  0.00    -0.308 N 
ATOM     17  H   UNL     1       0.046   3.413  -0.791  0.00  0.00    +0.149 HD
BRANCH  16  18
ATOM     18  C   UNL     1      -1.173   3.775   0.909  0.00  0.00    +0.030 C 
ATOM     19  C   UNL     1      -2.668   3.489   0.749  0.00  0.00    +0.031 C 
ATOM     20  C   UNL     1      -0.732   3.409   2.327  0.00  0.00    +0.031 C 
BRANCH  18  21
ATOM     21  C   UNL     1      -0.910   5.262   0.661  0.00  0.00    +0.031 C 
BRANCH  21  22
ATOM     22  C   UNL     1       0.589   5.485   0.447  0.00  0.00    -0.036 C 
ATOM     23  C   UNL     1       0.943   5.204  -1.015  0.00  0.00    +0.010 C 
ATOM     24  C   UNL     1       0.942   6.934   0.787  0.00  0.00    +0.010 C 
ATOM     25  C   UNL     1       1.380   4.540   1.354  0.00  0.00    +0.010 C 
ENDBRANCH  21  22
ENDBRANCH  18  21
ENDBRANCH  16  18
ENDBRANCH   1  14
BRANCH   1  28
ATOM     26  C   UNL     1      -1.004  -1.165  -0.834  0.00  0.00    +0.243 C 
ATOM     27  O   UNL     1      -1.238  -2.273  -0.388  0.00  0.00    -0.270 OA
ATOM     28  N   UNL     1       0.210  -0.609  -0.652  0.00  0.00    -0.279 N 
BRANCH  28  29
ATOM     29  C   UNL     1       1.328  -1.429  -0.177  0.00  0.00    +0.077 C 
ATOM     30  C   UNL     1       1.880  -2.260  -1.337  0.00  0.00    +0.022 C 
ATOM     31  C   UNL     1       3.047  -3.116  -0.841  0.00  0.00    +0.002 C 
ATOM     32  C   UNL     1       2.559  -4.049   0.269  0.00  0.00    +0.000 C 
ATOM     33  C   UNL     1       2.007  -3.218   1.429  0.00  0.00    +0.002 C 
ATOM     34  C   UNL     1       0.840  -2.362   0.933  0.00  0.00    +0.022 C 
ENDBRANCH  28  29
BRANCH  26  36
ATOM     35  C   UNL     1      -1.662   0.493  -2.696  0.00  0.00    +0.048 C 
ATOM     36  C   UNL     1      -2.045  -0.433  -1.571  0.00  0.00    +0.004 C 
ATOM     37  C   UNL     1      -3.325  -0.589  -1.244  0.00  0.00    +0.017 C 
ENDBRANCH  26  36
ENDBRANCH   1  28
TORSDOF 11
