REMARK  Name = ZINC42072560
REMARK  5 active torsions:
REMARK  status: ('A' for Active; 'I' for Inactive)
REMARK    1  A    between atoms: C_1  and  C_2
REMARK    2  A    between atoms: C_2  and  C_4
REMARK    3  A    between atoms: C_2  and  N_11
REMARK    4  A    between atoms: C_8  and  O_10
REMARK    5  A    between atoms: N_11  and  C_12
REMARK                            x       y       z     vdW  Elec       q    Type
REMARK                         _______ _______ _______ _____ _____    ______ ____
ROOT
ATOM      1  N   UNL     1       0.713  -0.491   1.192  0.00  0.00    +0.394 N 
ATOM      2  H   UNL     1       0.290  -0.099   2.020  0.00  0.00    -0.083 HD
ATOM      3  H   UNL     1       0.655  -1.497   1.230  0.00  0.00    -0.083 HD
ENDROOT
BRANCH   1   4
ATOM      4  C   UNL     1       2.122  -0.083   1.122  0.00  0.00    +0.050 C 
ATOM      5  C   UNL     1       2.859  -0.506   2.372  0.00  0.00    -0.031 A 
ATOM      6  C   UNL     1       2.703  -0.190   3.703  0.00  0.00    +0.006 A 
ATOM      7  C   UNL     1       3.548  -0.744   4.648  0.00  0.00    +0.020 A 
ATOM      8  C   UNL     1       4.548  -1.615   4.250  0.00  0.00    +0.043 A 
ATOM      9  C   UNL     1       4.705  -1.934   2.917  0.00  0.00    +0.043 A 
ATOM     10  C   UNL     1       3.858  -1.379   1.960  0.00  0.00    +0.037 A 
ATOM     11  N   UNL     1       3.815  -1.541   0.575  0.00  0.00    -0.286 N 
ATOM     12  C   UNL     1       2.832  -0.818   0.005  0.00  0.00    +0.208 C 
ATOM     13  O   UNL     1       2.565  -0.765  -1.176  0.00  0.00    -0.277 OA
ATOM     14 CL   UNL     1       5.608  -2.311   5.436  0.00  0.00    -0.083 Cl
ATOM     15  H   UNL     1       4.425  -2.109   0.078  0.00  0.00    +0.155 HD
ENDBRANCH   1   4
BRANCH   1  17
ATOM     16  C   UNL     1      -0.019   1.526   0.010  0.00  0.00    -0.009 C 
ATOM     17  C   UNL     1       0.002  -0.004   0.002  0.00  0.00    -0.042 C 
BRANCH  17  18
ATOM     18  C   UNL     1      -1.412  -0.526   0.013  0.00  0.00    -0.058 A 
ATOM     19  C   UNL     1      -2.123  -0.571   1.198  0.00  0.00    +0.002 A 
ATOM     20  C   UNL     1      -3.420  -1.049   1.211  0.00  0.00    +0.004 A 
ATOM     21  C   UNL     1      -4.009  -1.483   0.040  0.00  0.00    +0.045 A 
ATOM     22  C   UNL     1      -3.298  -1.439  -1.151  0.00  0.00    +0.117 A 
ATOM     23  C   UNL     1      -1.998  -0.953  -1.162  0.00  0.00    +0.047 A 
BRANCH  22  24
ATOM     24  O   UNL     1      -3.876  -1.866  -2.305  0.00  0.00    -0.507 OA
ATOM     25  H   UNL     1      -4.345  -1.173  -2.789  0.00  0.00    +0.292 HD
ENDBRANCH  22  24
ENDBRANCH  17  18
ENDBRANCH   1  17
TORSDOF 4
