REMARK  Name = ZINC20551619
REMARK  7 active torsions:
REMARK  status: ('A' for Active; 'I' for Inactive)
REMARK    1  A    between atoms: C_1  and  C_2
REMARK    2  A    between atoms: C_2  and  C_3
REMARK    3  A    between atoms: C_3  and  C_19
REMARK    4  A    between atoms: N_4  and  N_5
REMARK    5  A    between atoms: N_5  and  S_6
REMARK    6  A    between atoms: S_6  and  C_9
REMARK    7  A    between atoms: C_24  and  O_25
REMARK                            x       y       z     vdW  Elec       q    Type
REMARK                         _______ _______ _______ _____ _____    ______ ____
ROOT
ATOM      1  N   UNL     1       1.048   8.184   1.616  0.00  0.00    -0.136 N 
ATOM      2  H   UNL     1       0.317   8.717   1.964  0.00  0.00    +0.197 HD
ENDROOT
BRANCH   1   3
ATOM      3  S   UNL     1       1.040   7.702   0.031  0.00  0.00    +0.086 S 
ATOM      4  O   UNL     1       2.275   8.128  -0.529  0.00  0.00    -0.149 OA
ATOM      5  O   UNL     1      -0.216   8.094  -0.506  0.00  0.00    -0.149 OA
BRANCH   3   6
ATOM      6  C   UNL     1       1.064   5.940   0.022  0.00  0.00    +0.111 A 
ATOM      7  C   UNL     1       2.286   5.270   0.008  0.00  0.00    +0.029 A 
ATOM      8  C   UNL     1       2.340   3.910  -0.000  0.00  0.00    +0.010 A 
ATOM      9  C   UNL     1       1.147   3.167   0.008  0.00  0.00    -0.018 A 
ATOM     10  C   UNL     1       1.163   1.762   0.000  0.00  0.00    +0.008 A 
ATOM     11  C   UNL     1      -0.013   1.076   0.008  0.00  0.00    +0.001 A 
ATOM     12  C   UNL     1      -1.235   1.746   0.017  0.00  0.00    +0.001 A 
ATOM     13  C   UNL     1      -1.288   3.106   0.030  0.00  0.00    +0.008 A 
ATOM     14  C   UNL     1      -0.096   3.849   0.023  0.00  0.00    -0.016 A 
ATOM     15  C   UNL     1      -0.111   5.254   0.030  0.00  0.00    +0.037 A 
ENDBRANCH   3   6
ENDBRANCH   1   3
BRANCH   1  17
ATOM     16  C   UNL     1       2.118   8.199   3.694  0.00  0.00    +0.071 C 
ATOM     17  N   UNL     1       2.112   7.821   2.452  0.00  0.00    -0.170 NA
BRANCH  16  18
ATOM     18  C   UNL     1       3.238   7.817   4.574  0.00  0.00    +0.039 A 
ATOM     19  C   UNL     1       3.248   8.222   5.911  0.00  0.00    +0.013 A 
ATOM     20  C   UNL     1       4.298   7.861   6.730  0.00  0.00    +0.001 A 
ATOM     21  C   UNL     1       5.342   7.100   6.232  0.00  0.00    +0.004 A 
ATOM     22  C   UNL     1       5.343   6.694   4.911  0.00  0.00    +0.046 A 
ATOM     23  C   UNL     1       4.294   7.043   4.076  0.00  0.00    +0.126 A 
BRANCH  23  24
ATOM     24  O   UNL     1       4.291   6.639   2.779  0.00  0.00    -0.506 OA
ATOM     25  H   UNL     1       5.121   6.031   2.390  0.00  0.00    +0.292 HD
ENDBRANCH  23  24
ENDBRANCH  16  18
BRANCH  16  27
ATOM     26  C   UNL     1      -0.104   8.102   4.789  0.00  0.00    +0.010 C 
ATOM     27  C   UNL     1       0.982   9.027   4.236  0.00  0.00    +0.054 C 
ENDBRANCH  16  27
ENDBRANCH   1  17
TORSDOF 6
