REMARK  Name = ZINC57142878
REMARK  6 active torsions:
REMARK  status: ('A' for Active; 'I' for Inactive)
REMARK    1  A    between atoms: C_1  and  C_2
REMARK    2  A    between atoms: C_5  and  C_9
REMARK    3  A    between atoms: C_6  and  O_8
REMARK    4  A    between atoms: C_14  and  C_17
REMARK    5  A    between atoms: C_24  and  O_27
REMARK    6  A    between atoms: O_27  and  C_28
REMARK                            x       y       z     vdW  Elec       q    Type
REMARK                         _______ _______ _______ _____ _____    ______ ____
ROOT
ATOM      1  C   UNL     1       0.059  -4.252  -0.036  0.00  0.00    +0.250 C 
ATOM      2  O   UNL     1       0.150  -4.869   1.008  0.00  0.00    -0.270 OA
ATOM      3  N   UNL     1      -0.040  -4.917  -1.204  0.00  0.00    -0.293 N 
ATOM      4  C   UNL     1      -0.139  -6.386  -1.244  0.00  0.00    +0.113 C 
ATOM      5  C   UNL     1      -1.486  -6.752  -1.872  0.00  0.00    +0.054 C 
ATOM      6  C   UNL     1      -1.731  -5.927  -3.101  0.00  0.00    -0.039 C 
ATOM      7  C   UNL     1      -1.110  -4.803  -3.375  0.00  0.00    -0.004 C 
ATOM      8  C   UNL     1      -0.059  -4.204  -2.490  0.00  0.00    +0.135 C 
ENDROOT
BRANCH   6   9
ATOM      9  C   UNL     1      -2.736  -6.412  -4.067  0.00  0.00    +0.003 A 
ATOM     10  C   UNL     1      -2.592  -7.443  -4.939  0.00  0.00    +0.091 A 
ATOM     11  N   UNL     1      -3.735  -7.593  -5.668  0.00  0.00    -0.360 N 
ATOM     12  H   UNL     1      -3.871  -8.264  -6.355  0.00  0.00    +0.165 HD
ATOM     13  C   UNL     1      -4.670  -6.651  -5.287  0.00  0.00    +0.047 A 
ATOM     14  C   UNL     1      -4.093  -5.875  -4.268  0.00  0.00    +0.010 A 
ATOM     15  C   UNL     1      -4.819  -4.840  -3.683  0.00  0.00    +0.056 A 
ATOM     16  C   UNL     1      -6.108  -4.583  -4.108  0.00  0.00    +0.121 A 
ATOM     17  C   UNL     1      -6.679  -5.355  -5.116  0.00  0.00    +0.047 A 
ATOM     18  C   UNL     1      -5.967  -6.376  -5.706  0.00  0.00    +0.030 A 
BRANCH  16  19
ATOM     19  O   UNL     1      -6.822  -3.575  -3.541  0.00  0.00    -0.495 OA
ATOM     20  C   UNL     1      -8.148  -3.364  -4.028  0.00  0.00    +0.277 C 
ENDBRANCH  16  19
ENDBRANCH   6   9
BRANCH   1  25
ATOM     21  C   UNL     1       0.052   1.503   0.005  0.00  0.00    +0.044 C 
ATOM     22  C   UNL     1       0.051  -0.004  -0.003  0.00  0.00    -0.047 A 
ATOM     23  C   UNL     1       0.912  -0.688  -0.846  0.00  0.00    +0.004 A 
ATOM     24  C   UNL     1       0.919  -2.066  -0.861  0.00  0.00    +0.017 A 
ATOM     25  C   UNL     1       0.056  -2.777  -0.024  0.00  0.00    +0.078 A 
ATOM     26  C   UNL     1      -0.813  -2.081   0.827  0.00  0.00    +0.129 A 
ATOM     27  C   UNL     1      -0.803  -0.694   0.834  0.00  0.00    +0.049 A 
BRANCH  26  28
ATOM     28  O   UNL     1      -1.656  -2.761   1.644  0.00  0.00    -0.506 OA
ATOM     29  H   UNL     1      -1.284  -2.962   2.514  0.00  0.00    +0.292 HD
ENDBRANCH  26  28
ENDBRANCH   1  25
TORSDOF 4
