REMARK  Name = ZINC16784170
REMARK  14 active torsions:
REMARK  status: ('A' for Active; 'I' for Inactive)
REMARK    1  A    between atoms: C_1  and  C_2
REMARK    2  A    between atoms: C_2  and  N_76
REMARK    3  A    between atoms: C_3  and  C_4
REMARK    4  A    between atoms: C_3  and  N_76
REMARK    5  A    between atoms: C_5  and  C_6
REMARK    6  A    between atoms: C_5  and  N_76
REMARK    7  A    between atoms: C_11  and  C_12
REMARK    8  A    between atoms: C_12  and  N_13
REMARK    9  A    between atoms: C_14  and  C_16
REMARK   10  A    between atoms: C_16  and  C_18
REMARK   11  A    between atoms: C_16  and  N_21
REMARK   12  A    between atoms: C_18  and  C_19
REMARK   13  A    between atoms: C_18  and  C_20
REMARK   14  A    between atoms: C_22  and  C_24
REMARK                            x       y       z     vdW  Elec       q    Type
REMARK                         _______ _______ _______ _____ _____    ______ ____
ROOT
ATOM      1  N   UNL     1      -4.164   9.355  -1.476  0.00  0.00    -0.310 N 
ATOM      2  C   UNL     1      -4.143   8.051  -1.138  0.00  0.00    +0.234 C 
ATOM      3  O   UNL     1      -5.031   7.314  -1.511  0.00  0.00    -0.274 OA
ATOM      4  H   UNL     1      -3.418   9.929  -1.240  0.00  0.00    +0.149 HD
ENDROOT
BRANCH   1   5
ATOM      5  C   UNL     1      -5.312   9.907  -2.199  0.00  0.00    +0.139 C 
BRANCH   5  11
ATOM      6  C   UNL     1      -4.296  11.777  -3.515  0.00  0.00    -0.059 A 
ATOM      7  C   UNL     1      -4.090  13.124  -3.751  0.00  0.00    +0.002 A 
ATOM      8  C   UNL     1      -4.674  14.067  -2.927  0.00  0.00    +0.000 A 
ATOM      9  C   UNL     1      -5.465  13.664  -1.867  0.00  0.00    +0.000 A 
ATOM     10  C   UNL     1      -5.676  12.318  -1.635  0.00  0.00    +0.005 A 
ATOM     11  C   UNL     1      -5.087  11.374  -2.456  0.00  0.00    -0.029 A 
BRANCH   6  12
ATOM     12  C   UNL     1      -3.659  10.749  -4.414  0.00  0.00    -0.043 C 
BRANCH  12  13
ATOM     13  N   UNL     1      -4.674  10.261  -5.372  0.00  0.00    +0.382 N 
ATOM     14  H   UNL     1      -5.534  10.032  -4.859  0.00  0.00    -0.081 HD
BRANCH  13  16
ATOM     15  C   UNL     1      -6.177  10.869  -7.204  0.00  0.00    -0.017 C 
ATOM     16  C   UNL     1      -4.974  11.311  -6.368  0.00  0.00    -0.082 C 
ENDBRANCH  13  16
BRANCH  13  17
ATOM     17  C   UNL     1      -4.182   9.045  -6.053  0.00  0.00    -0.082 C 
ATOM     18  C   UNL     1      -4.317   7.859  -5.096  0.00  0.00    -0.017 C 
ENDBRANCH  13  17
ENDBRANCH  12  13
ENDBRANCH   6  12
ENDBRANCH   5  11
ENDBRANCH   1   5
BRANCH   2  19
ATOM     19  C   UNL     1      -3.017   7.508  -0.297  0.00  0.00    +0.161 C 
BRANCH  19  20
ATOM     20  N   UNL     1      -3.463   6.295   0.393  0.00  0.00    -0.303 N 
ATOM     21  C   UNL     1      -2.869   5.915   1.542  0.00  0.00    +0.220 C 
ATOM     22  O   UNL     1      -1.966   6.578   2.005  0.00  0.00    -0.275 OA
ATOM     23  H   UNL     1      -4.186   5.765   0.023  0.00  0.00    +0.149 HD
BRANCH  21  24
ATOM     24  C   UNL     1      -3.329   4.668   2.251  0.00  0.00    +0.048 C 
ATOM     25  C   UNL     1      -3.151   3.461   1.327  0.00  0.00    +0.019 C 
ATOM     26  C   UNL     1      -3.617   2.194   2.047  0.00  0.00    -0.009 C 
ATOM     27  C   UNL     1      -2.785   1.992   3.315  0.00  0.00    +0.007 C 
ATOM     28  C   UNL     1      -2.962   3.199   4.239  0.00  0.00    -0.009 C 
ATOM     29  C   UNL     1      -2.496   4.466   3.519  0.00  0.00    +0.019 C 
ATOM     30  C   UNL     1      -4.439   3.340   4.615  0.00  0.00    +0.007 C 
ATOM     31  C   UNL     1      -5.271   3.542   3.347  0.00  0.00    -0.009 C 
ATOM     32  C   UNL     1      -5.093   2.335   2.423  0.00  0.00    +0.007 C 
ATOM     33  C   UNL     1      -4.805   4.809   2.627  0.00  0.00    +0.019 C 
ENDBRANCH  21  24
ENDBRANCH  19  20
BRANCH  19  34
ATOM     34  C   UNL     1      -1.824   7.174  -1.195  0.00  0.00    +0.012 C 
ATOM     35  C   UNL     1      -0.634   6.758  -0.329  0.00  0.00    +0.009 C 
ATOM     36  C   UNL     1      -2.198   6.026  -2.134  0.00  0.00    +0.009 C 
ENDBRANCH  19  34
ENDBRANCH   2  19
TORSDOF 10
