REMARK  Name = ZINC63137600
REMARK  10 active torsions:
REMARK  status: ('A' for Active; 'I' for Inactive)
REMARK    1  A    between atoms: C_1  and  O_2
REMARK    2  A    between atoms: O_2  and  C_3
REMARK    3  A    between atoms: C_6  and  C_9
REMARK    4  A    between atoms: C_9  and  C_10
REMARK    5  A    between atoms: C_10  and  N_11
REMARK    6  A    between atoms: C_31  and  C_33
REMARK    7  A    between atoms: C_36  and  O_41
REMARK    8  A    between atoms: C_37  and  O_39
REMARK    9  A    between atoms: O_39  and  C_40
REMARK   10  A    between atoms: O_41  and  C_42
REMARK                            x       y       z     vdW  Elec       q    Type
REMARK                         _______ _______ _______ _____ _____    ______ ____
ROOT
ATOM      1  N   UNL     1       2.215  -3.470   6.571  0.00  0.00    -0.291 N 
ATOM      2  C   UNL     1       2.263  -4.923   6.582  0.00  0.00    +0.203 C 
ATOM      3  C   UNL     1       2.977  -5.455   7.780  0.00  0.00    +0.234 C 
ATOM      4  O   UNL     1       3.073  -6.659   7.889  0.00  0.00    -0.274 OA
ATOM      5  N   UNL     1       3.520  -4.698   8.741  0.00  0.00    -0.279 N 
ATOM      6  C   UNL     1       3.485  -3.240   8.710  0.00  0.00    +0.167 C 
ATOM      7  C   UNL     1       2.764  -2.708   7.516  0.00  0.00    +0.237 C 
ATOM      8  O   UNL     1       2.669  -1.504   7.400  0.00  0.00    -0.274 OA
ATOM      9  C   UNL     1       4.918  -2.680   8.737  0.00  0.00    +0.065 C 
ATOM     10  C   UNL     1       5.655  -3.435   9.815  0.00  0.00    -0.034 C 
ATOM     11  C   UNL     1       6.380  -3.016  10.845  0.00  0.00    -0.001 A 
ATOM     12  C   UNL     1       6.824  -1.672  11.249  0.00  0.00    +0.010 A 
ATOM     13  C   UNL     1       7.552  -1.601  12.395  0.00  0.00    +0.001 A 
ATOM     14  C   UNL     1       7.878  -2.718  13.171  0.00  0.00    +0.002 A 
ATOM     15  C   UNL     1       7.520  -3.991  12.869  0.00  0.00    +0.026 A 
ATOM     16  C   UNL     1       6.758  -4.196  11.682  0.00  0.00    +0.043 A 
ATOM     17  N   UNL     1       6.308  -5.294  11.149  0.00  0.00    -0.375 N 
ATOM     18  C   UNL     1       5.647  -4.958   9.888  0.00  0.00    +0.131 C 
ATOM     19  C   UNL     1       4.178  -5.388   9.874  0.00  0.00    +0.134 C 
ATOM     20  H   UNL     1       6.396  -6.184  11.525  0.00  0.00    +0.160 HD
ENDROOT
BRANCH  19  21
ATOM     21  C   UNL     1       4.084  -6.880   9.688  0.00  0.00    -0.021 A 
ATOM     22  C   UNL     1       3.048  -7.584  10.274  0.00  0.00    +0.009 A 
ATOM     23  C   UNL     1       2.958  -8.954  10.107  0.00  0.00    +0.050 A 
ATOM     24  C   UNL     1       3.906  -9.623   9.350  0.00  0.00    +0.162 A 
ATOM     25  C   UNL     1       4.948  -8.915   8.760  0.00  0.00    +0.162 A 
ATOM     26  C   UNL     1       5.030  -7.542   8.928  0.00  0.00    +0.055 A 
BRANCH  25  27
ATOM     27  O   UNL     1       5.881  -9.568   8.017  0.00  0.00    -0.491 OA
ATOM     28  C   UNL     1       6.922  -8.776   7.441  0.00  0.00    +0.277 C 
ENDBRANCH  25  27
BRANCH  24  29
ATOM     29  O   UNL     1       3.818 -10.970   9.185  0.00  0.00    -0.491 OA
ATOM     30  C   UNL     1       2.723 -11.632   9.820  0.00  0.00    +0.277 C 
ENDBRANCH  24  29
ENDBRANCH  19  21
BRANCH   1  31
ATOM     31  C   UNL     1       1.531  -2.808   5.458  0.00  0.00    +0.113 C 
BRANCH  31  32
ATOM     32  C   UNL     1       2.530  -2.549   4.328  0.00  0.00    +0.054 C 
BRANCH  32  36
ATOM     33  C   UNL     1       0.535  -0.617   1.079  0.00  0.00    +0.120 A 
ATOM     34  C   UNL     1       1.120   0.140   2.084  0.00  0.00    +0.046 A 
ATOM     35  C   UNL     1       1.764  -0.487   3.133  0.00  0.00    +0.007 A 
ATOM     36  C   UNL     1       1.826  -1.868   3.182  0.00  0.00    -0.046 A 
ATOM     37  C   UNL     1       1.244  -2.624   2.182  0.00  0.00    +0.007 A 
ATOM     38  C   UNL     1       0.593  -2.002   1.134  0.00  0.00    +0.046 A 
BRANCH  33  40
ATOM     39  C   UNL     1      -0.121   1.426   0.055  0.00  0.00    +0.277 C 
ATOM     40  O   UNL     1      -0.100  -0.003   0.046  0.00  0.00    -0.495 OA
ENDBRANCH  33  40
ENDBRANCH  32  36
ENDBRANCH  31  32
ENDBRANCH   1  31
TORSDOF 7
