REMARK  Name = ZINC17303952
REMARK  6 active torsions:
REMARK  status: ('A' for Active; 'I' for Inactive)
REMARK    1  A    between atoms: C_1  and  C_2
REMARK    2  A    between atoms: C_4  and  C_30
REMARK    3  A    between atoms: N_6  and  S_8
REMARK    4  A    between atoms: S_8  and  C_11
REMARK    5  A    between atoms: C_15  and  C_17
REMARK    6  A    between atoms: C_17  and  N_19
REMARK                            x       y       z     vdW  Elec       q    Type
REMARK                         _______ _______ _______ _____ _____    ______ ____
ROOT
ATOM      1  C   UNL     1       2.609   2.441   2.036  0.00  0.00    +0.106 A 
ATOM      2  C   UNL     1       3.544   3.146   1.299  0.00  0.00    +0.028 A 
ATOM      3  C   UNL     1       3.368   4.496   1.056  0.00  0.00    +0.003 A 
ATOM      4  C   UNL     1       2.257   5.149   1.550  0.00  0.00    +0.013 A 
ATOM      5  C   UNL     1       1.311   4.445   2.293  0.00  0.00    +0.041 A 
ATOM      6  C   UNL     1       1.491   3.082   2.529  0.00  0.00    +0.041 A 
ENDROOT
BRANCH   1   7
ATOM      7  S   UNL     1       2.843   0.721   2.340  0.00  0.00    +0.061 S 
ATOM      8  O   UNL     1       2.100   0.411   3.510  0.00  0.00    -0.153 OA
ATOM      9  O   UNL     1       4.239   0.477   2.236  0.00  0.00    -0.153 OA
BRANCH   7  15
ATOM     10  C   UNL     1      -0.036   1.551  -0.038  0.00  0.00    +0.009 C 
ATOM     11  C   UNL     1      -0.022   0.021  -0.061  0.00  0.00    +0.002 C 
ATOM     12  C   UNL     1       0.697  -0.463  -1.322  0.00  0.00    +0.009 C 
ATOM     13  C   UNL     1       2.125   0.088  -1.341  0.00  0.00    +0.002 C 
ATOM     14  C   UNL     1       2.886  -0.435  -0.118  0.00  0.00    +0.112 C 
ATOM     15  N   UNL     1       2.125  -0.098   1.092  0.00  0.00    -0.176 NA
ATOM     16  C   UNL     1       0.715  -0.502   1.176  0.00  0.00    +0.112 C 
ATOM     17  C   UNL     1       2.832  -0.370  -2.617  0.00  0.00    +0.009 C 
ENDBRANCH   7  15
ENDBRANCH   1   7
BRANCH   5  18
ATOM     18  C   UNL     1       0.116   5.140   2.826  0.00  0.00    +0.270 C 
ATOM     19  O   UNL     1      -0.709   4.522   3.476  0.00  0.00    -0.268 OA
BRANCH  18  20
ATOM     20  N   UNL     1      -0.057   6.445   2.594  0.00  0.00    -0.143 NA
ATOM     21  C   UNL     1      -1.176   7.046   2.981  0.00  0.00    +0.199 A 
ATOM     22  N   UNL     1      -2.164   6.472   3.719  0.00  0.00    -0.326 N 
ATOM     23  H   UNL     1      -2.169   5.561   4.051  0.00  0.00    +0.169 HD
ATOM     24  C   UNL     1      -3.165   7.418   3.918  0.00  0.00    +0.065 A 
ATOM     25  C   UNL     1      -4.381   7.383   4.586  0.00  0.00    +0.028 A 
ATOM     26  C   UNL     1      -5.182   8.507   4.614  0.00  0.00    +0.002 A 
ATOM     27  C   UNL     1      -4.779   9.669   3.978  0.00  0.00    +0.002 A 
ATOM     28  C   UNL     1      -3.571   9.714   3.311  0.00  0.00    +0.028 A 
ATOM     29  C   UNL     1      -2.758   8.590   3.277  0.00  0.00    +0.065 A 
ATOM     30  N   UNL     1      -1.515   8.335   2.707  0.00  0.00    -0.326 N 
ATOM     31  H   UNL     1      -0.982   8.966   2.198  0.00  0.00    +0.169 HD
ENDBRANCH  18  20
ENDBRANCH   5  18
TORSDOF 4
