REMARK  Name = ZINC41331993
REMARK  5 active torsions:
REMARK  status: ('A' for Active; 'I' for Inactive)
REMARK    1  A    between atoms: C_5  and  C_11
REMARK    2  A    between atoms: N_13  and  C_14
REMARK    3  A    between atoms: C_15  and  C_22
REMARK    4  A    between atoms: N_24  and  C_25
REMARK    5  A    between atoms: C_25  and  C_26
REMARK                            x       y       z     vdW  Elec       q    Type
REMARK                         _______ _______ _______ _____ _____    ______ ____
ROOT
ATOM      1  C   UNL     1       7.991  -0.605  -0.078  0.00  0.00    +0.085 A 
ATOM      2  C   UNL     1       8.799  -1.728  -0.098  0.00  0.00    +0.069 A 
ATOM      3  C   UNL     1      10.245  -1.513  -0.109  0.00  0.00    -0.023 A 
ATOM      4  C   UNL     1      10.607  -0.217  -0.098  0.00  0.00    -0.004 A 
ATOM      5  S   UNL     1       9.073   0.676  -0.083  0.00  0.00    -0.077 S 
ATOM      6  C   UNL     1      12.102  -0.053  -0.106  0.00  0.00    +0.043 C 
ATOM      7  C   UNL     1      12.649  -1.437   0.308  0.00  0.00    +0.010 C 
ATOM      8  C   UNL     1      11.506  -2.373  -0.134  0.00  0.00    +0.037 C 
ENDROOT
BRANCH   1  11
ATOM      9  C   UNL     1       5.979   0.641  -0.052  0.00  0.00    +0.284 C 
ATOM     10  O   UNL     1       6.628   1.670  -0.053  0.00  0.00    -0.266 OA
ATOM     11  N   UNL     1       6.607  -0.551  -0.064  0.00  0.00    -0.273 N 
ATOM     12  H   UNL     1       6.090  -1.372  -0.064  0.00  0.00    +0.156 HD
BRANCH   9  17
ATOM     13  C   UNL     1      -0.017   1.384   0.010  0.00  0.00    +0.004 A 
ATOM     14  C   UNL     1       1.151   2.092   0.002  0.00  0.00    +0.012 A 
ATOM     15  C   UNL     1       2.373   1.415  -0.013  0.00  0.00    +0.024 A 
ATOM     16  C   UNL     1       3.773   1.839  -0.024  0.00  0.00    +0.063 A 
ATOM     17  C   UNL     1       4.511   0.698  -0.037  0.00  0.00    +0.191 A 
ATOM     18  O   UNL     1       3.692  -0.374  -0.035  0.00  0.00    -0.447 OA
ATOM     19  C   UNL     1       2.400   0.008  -0.021  0.00  0.00    +0.171 A 
ATOM     20  C   UNL     1       1.198  -0.693  -0.014  0.00  0.00    +0.166 A 
ATOM     21  C   UNL     1       0.002  -0.004   0.002  0.00  0.00    +0.042 A 
ATOM     22  F   UNL     1       1.202  -2.044  -0.021  0.00  0.00    -0.202 F 
ENDBRANCH   9  17
ENDBRANCH   1  11
BRANCH   2  23
ATOM     23  C   UNL     1       8.228  -3.078  -0.106  0.00  0.00    +0.247 C 
ATOM     24  O   UNL     1       7.981  -3.628  -1.163  0.00  0.00    -0.270 OA
ATOM     25  N   UNL     1       7.977  -3.711   1.058  0.00  0.00    -0.309 N 
ATOM     26  H   UNL     1       8.173  -3.272   1.900  0.00  0.00    +0.149 HD
BRANCH  25  27
ATOM     27  C   UNL     1       7.406  -5.060   1.050  0.00  0.00    +0.136 C 
BRANCH  27  28
ATOM     28  C   UNL     1       7.222  -5.544   2.489  0.00  0.00    +0.135 C 
ATOM     29  C   UNL     1       6.651  -6.985   2.503  0.00  0.00    +0.035 C 
ATOM     30  C   UNL     1       7.144  -7.484   3.889  0.00  0.00    +0.031 C 
ATOM     31  C   UNL     1       8.506  -6.769   4.029  0.00  0.00    +0.160 C 
ATOM     32  O   UNL     1       8.493  -5.635   3.152  0.00  0.00    -0.375 OA
ENDBRANCH  27  28
ENDBRANCH  25  27
ENDBRANCH   2  23
TORSDOF 5
