REMARK  Name = ZINC21327851
REMARK  7 active torsions:
REMARK  status: ('A' for Active; 'I' for Inactive)
REMARK    1  A    between atoms: C_1  and  C_2
REMARK    2  A    between atoms: C_7  and  N_8
REMARK    3  A    between atoms: C_9  and  C_11
REMARK    4  A    between atoms: C_11  and  S_12
REMARK    5  A    between atoms: S_12  and  C_13
REMARK    6  A    between atoms: N_17  and  N_18
REMARK    7  A    between atoms: N_19  and  N_20
REMARK                            x       y       z     vdW  Elec       q    Type
REMARK                         _______ _______ _______ _____ _____    ______ ____
ROOT
ATOM      1  C   UNL     1       4.866   8.518  -0.462  0.00  0.00    +0.210 A 
ATOM      2  N   UNL     1       6.016   7.886  -0.471  0.00  0.00    -0.119 NA
ATOM      3  N   UNL     1       7.033   8.841  -0.599  0.00  0.00    -0.109 NA
ATOM      4  C   UNL     1       6.473  10.025  -0.653  0.00  0.00    +0.254 A 
ATOM      5  N   UNL     1       5.119   9.856  -0.571  0.00  0.00    -0.211 N 
ATOM      6  N   UNL     1       7.138  11.237  -0.775  0.00  0.00    -0.204 N 
ATOM      7  H   UNL     1       6.567  12.177  -0.812  0.00  0.00    +0.177 HD
ENDROOT
BRANCH   6   8
ATOM      8  N   UNL     1       8.537  11.264  -0.850  0.00  0.00    -0.189 NA
ATOM      9  C   UNL     1       9.151  12.383  -0.962  0.00  0.00    +0.037 C 
ATOM     10  C   UNL     1       8.512  13.754  -1.033  0.00  0.00    +0.052 C 
ATOM     11  C   UNL     1       9.659  14.776  -1.169  0.00  0.00    +0.006 C 
ATOM     12  C   UNL     1      10.821  13.943  -1.769  0.00  0.00    +0.006 C 
ATOM     13  C   UNL     1      10.653  12.579  -1.055  0.00  0.00    +0.052 C 
ENDBRANCH   6   8
BRANCH   5  14
ATOM     14  N   UNL     1       4.183  10.851  -0.593  0.00  0.00    -0.294 N 
ATOM     15  H   UNL     1       4.499  11.901  -0.684  0.00  0.00    +0.163 HD
ATOM     16  H   UNL     1       3.114  10.602  -0.520  0.00  0.00    +0.163 HD
ENDBRANCH   5  14
BRANCH   1  17
ATOM     17  S   UNL     1       3.276   7.772  -0.325  0.00  0.00    -0.075 S 
BRANCH  17  18
ATOM     18  C   UNL     1       3.631   5.997  -0.218  0.00  0.00    +0.173 C 
BRANCH  18  20
ATOM     19  N   UNL     1       2.357   3.888  -0.001  0.00  0.00    -0.285 N 
ATOM     20  C   UNL     1       2.338   5.232  -0.095  0.00  0.00    +0.227 C 
ATOM     21  O   UNL     1       1.281   5.826  -0.082  0.00  0.00    -0.275 OA
ATOM     22  H   UNL     1       3.316   3.355   0.079  0.00  0.00    +0.155 HD
BRANCH  19  29
ATOM     23  C   UNL     1       2.322   1.324   1.234  0.00  0.00    +0.045 C 
ATOM     24  C   UNL     1       1.095   1.915   0.588  0.00  0.00    -0.029 A 
ATOM     25  C   UNL     1      -0.092   1.207   0.583  0.00  0.00    +0.006 A 
ATOM     26  C   UNL     1      -1.217   1.745  -0.014  0.00  0.00    +0.020 A 
ATOM     27  C   UNL     1      -1.161   2.998  -0.599  0.00  0.00    +0.043 A 
ATOM     28  C   UNL     1       0.024   3.710  -0.598  0.00  0.00    +0.043 A 
ATOM     29  C   UNL     1       1.156   3.170  -0.003  0.00  0.00    +0.038 A 
ATOM     30 CL   UNL     1      -2.577   3.672  -1.343  0.00  0.00    -0.083 Cl
ENDBRANCH  19  29
ENDBRANCH  18  20
ENDBRANCH  17  18
ENDBRANCH   1  17
TORSDOF 6
