REMARK  Name = ZINC39534196
REMARK  9 active torsions:
REMARK  status: ('A' for Active; 'I' for Inactive)
REMARK    1  A    between atoms: C_4  and  O_7
REMARK    2  A    between atoms: O_7  and  S_8
REMARK    3  A    between atoms: S_8  and  C_11
REMARK    4  A    between atoms: N_14  and  C_18
REMARK    5  A    between atoms: C_18  and  C_20
REMARK    6  A    between atoms: C_18  and  C_23
REMARK    7  A    between atoms: C_20  and  N_21
REMARK    8  A    between atoms: C_26  and  C_29
REMARK    9  A    between atoms: C_34  and  O_35
REMARK                            x       y       z     vdW  Elec       q    Type
REMARK                         _______ _______ _______ _____ _____    ______ ____
ROOT
ATOM      1  C   UNL     1       2.589  -4.107   5.168  0.00  0.00    +0.103 C 
ENDROOT
BRANCH   1   4
ATOM      2  C   UNL     1       2.169  -2.440   1.816  0.00  0.00    +0.130 C 
ATOM      3  C   UNL     1       2.844  -2.810   3.139  0.00  0.00    +0.095 C 
ATOM      4  N   UNL     1       1.952  -3.683   3.914  0.00  0.00    -0.296 NA
ATOM      5  C   UNL     1       0.667  -3.018   4.174  0.00  0.00    +0.066 C 
ATOM      6  C   UNL     1       0.010  -2.647   2.843  0.00  0.00    -0.064 C 
ATOM      7  N   UNL     1       0.900  -1.753   2.090  0.00  0.00    +0.398 N 
ATOM      8  H   UNL     1       1.078  -0.921   2.632  0.00  0.00    -0.083 HD
ATOM      9  H   UNL     1       0.461  -1.498   1.218  0.00  0.00    -0.083 HD
BRANCH   2  10
ATOM     10  S   UNL     1       3.258  -1.343   0.867  0.00  0.00    +0.109 S 
ATOM     11  O   UNL     1       4.401  -2.057   0.417  0.00  0.00    -0.138 OA
ATOM     12  O   UNL     1       3.400  -0.097   1.535  0.00  0.00    -0.138 OA
BRANCH  10  13
ATOM     13  O   UNL     1       2.479  -1.018  -0.399  0.00  0.00    -0.347 OA
BRANCH  13  17
ATOM     14  C   UNL     1       2.383  -4.095  -3.146  0.00  0.00    +0.000 A 
ATOM     15  C   UNL     1       1.431  -4.033  -2.146  0.00  0.00    +0.004 A 
ATOM     16  C   UNL     1       1.461  -3.004  -1.225  0.00  0.00    +0.048 A 
ATOM     17  C   UNL     1       2.448  -2.032  -1.304  0.00  0.00    +0.156 A 
ATOM     18  C   UNL     1       3.402  -2.096  -2.309  0.00  0.00    +0.048 A 
ATOM     19  C   UNL     1       3.368  -3.127  -3.228  0.00  0.00    +0.004 A 
ENDBRANCH  13  17
ENDBRANCH  10  13
ENDBRANCH   2  10
ENDBRANCH   1   4
BRANCH   1  20
ATOM     20  C   UNL     1       2.025  -5.438   5.593  0.00  0.00    -0.029 A 
ATOM     21  C   UNL     1       0.811  -5.866   5.085  0.00  0.00    +0.006 A 
ATOM     22  C   UNL     1       0.289  -7.084   5.472  0.00  0.00    +0.009 A 
ATOM     23  C   UNL     1       0.988  -7.884   6.374  0.00  0.00    -0.014 A 
ATOM     24  C   UNL     1       2.210  -7.448   6.882  0.00  0.00    +0.009 A 
ATOM     25  C   UNL     1       2.725  -6.230   6.485  0.00  0.00    +0.006 A 
BRANCH  23  26
ATOM     26  C   UNL     1       0.432  -9.193   6.794  0.00  0.00    +0.024 A 
ATOM     27  C   UNL     1      -0.886  -9.285   7.234  0.00  0.00    +0.012 A 
ATOM     28  C   UNL     1      -1.398 -10.506   7.623  0.00  0.00    +0.001 A 
ATOM     29  C   UNL     1      -0.607 -11.641   7.577  0.00  0.00    +0.004 A 
ATOM     30  C   UNL     1       0.702 -11.561   7.142  0.00  0.00    +0.046 A 
ATOM     31  C   UNL     1       1.227 -10.342   6.743  0.00  0.00    +0.125 A 
BRANCH  31  32
ATOM     32  O   UNL     1       2.512 -10.263   6.309  0.00  0.00    -0.506 OA
ATOM     33  H   UNL     1       3.154 -10.090   7.011  0.00  0.00    +0.292 HD
ENDBRANCH  31  32
ENDBRANCH  23  26
ENDBRANCH   1  20
BRANCH   1  34
ATOM     34  C   UNL     1       2.315  -3.066   6.256  0.00  0.00    +0.140 C 
BRANCH  34  35
ATOM     35  N   UNL     1       2.846  -1.764   5.832  0.00  0.00    -0.157 NA
ATOM     36  F   UNL     1       2.774  -0.895   6.796  0.00  0.00    -0.136 F 
ATOM     37  H   UNL     1       2.368  -1.430   5.008  0.00  0.00    +0.159 HD
ENDBRANCH  34  35
ENDBRANCH   1  34
TORSDOF 9
