REMARK  Name = ZINC13500092
REMARK  15 active torsions:
REMARK  status: ('A' for Active; 'I' for Inactive)
REMARK    1  A    between atoms: C_1  and  C_2
REMARK    2  A    between atoms: C_2  and  C_3
REMARK    3  A    between atoms: C_3  and  C_4
REMARK    4  A    between atoms: C_4  and  C_6
REMARK    5  A    between atoms: C_4  and  N_18
REMARK    6  A    between atoms: N_10  and  C_11
REMARK    7  A    between atoms: C_11  and  C_12
REMARK    8  A    between atoms: N_18  and  C_19
REMARK    9  A    between atoms: N_18  and  C_28
REMARK   10  A    between atoms: C_19  and  C_20
REMARK   11  A    between atoms: C_20  and  C_21
REMARK   12  A    between atoms: C_21  and  N_22
REMARK   13  A    between atoms: C_28  and  C_29
REMARK   14  A    between atoms: C_33  and  C_42
REMARK   15  A    between atoms: C_35  and  C_41
REMARK                            x       y       z     vdW  Elec       q    Type
REMARK                         _______ _______ _______ _____ _____    ______ ____
ROOT
ATOM      1  N   UNL     1      -2.972   0.837  -1.364  0.00  0.00    +0.389 N 
ATOM      2  H   UNL     1      -3.013   1.643  -2.111  0.00  0.00    -0.080 HD
ENDROOT
BRANCH   1   3
ATOM      3  C   UNL     1      -4.248   0.110  -1.414  0.00  0.00    +0.003 C 
BRANCH   3   4
ATOM      4  C   UNL     1      -5.364   1.075  -1.716  0.00  0.00    +0.138 A 
ATOM      5  N   UNL     1      -5.508   2.284  -1.228  0.00  0.00    -0.115 NA
ATOM      6  N   UNL     1      -6.582   2.789  -1.728  0.00  0.00    -0.023 NA
ATOM      7  N   UNL     1      -7.133   1.932  -2.515  0.00  0.00    -0.044 NA
ATOM      8  N   UNL     1      -6.412   0.862  -2.534  0.00  0.00    -0.228 N 
BRANCH   8   9
ATOM      9  C   UNL     1      -6.682  -0.355  -3.303  0.00  0.00    +0.178 C 
BRANCH   9  10
ATOM     10  C   UNL     1      -7.533  -1.310  -2.463  0.00  0.00    +0.140 C 
ATOM     11  C   UNL     1      -7.726  -2.642  -3.220  0.00  0.00    +0.035 C 
ATOM     12  C   UNL     1      -9.203  -2.994  -2.896  0.00  0.00    +0.031 C 
ATOM     13  C   UNL     1      -9.836  -1.581  -2.838  0.00  0.00    +0.160 C 
ATOM     14  O   UNL     1      -8.830  -0.743  -2.248  0.00  0.00    -0.375 OA
ENDBRANCH   9  10
ENDBRANCH   8   9
ENDBRANCH   3   4
BRANCH   3  15
ATOM     15  C   UNL     1      -4.505  -0.562  -0.063  0.00  0.00    -0.008 C 
BRANCH  15  17
ATOM     16  C   UNL     1      -3.778  -2.401   1.464  0.00  0.00    +0.004 C 
ATOM     17  C   UNL     1      -3.435  -1.625   0.190  0.00  0.00    -0.005 C 
ENDBRANCH  15  17
ENDBRANCH   3  15
ENDBRANCH   1   3
BRANCH   1  18
ATOM     18  C   UNL     1      -1.850  -0.045  -1.712  0.00  0.00    -0.076 C 
BRANCH  18  19
ATOM     19  C   UNL     1      -1.912  -0.385  -3.202  0.00  0.00    -0.003 C 
BRANCH  19  20
ATOM     20  C   UNL     1      -0.675  -1.197  -3.592  0.00  0.00    +0.083 C 
BRANCH  20  21
ATOM     21  N   UNL     1      -0.734  -1.524  -5.023  0.00  0.00    -0.298 NA
ATOM     22  C   UNL     1      -1.849  -2.439  -5.308  0.00  0.00    +0.112 C 
ATOM     23  C   UNL     1      -1.911  -2.705  -6.815  0.00  0.00    +0.175 C 
ATOM     24  O   UNL     1      -0.655  -3.229  -7.253  0.00  0.00    -0.377 OA
ATOM     25  C   UNL     1       0.454  -2.364  -6.991  0.00  0.00    +0.175 C 
ATOM     26  C   UNL     1       0.539  -2.094  -5.486  0.00  0.00    +0.112 C 
ENDBRANCH  20  21
ENDBRANCH  19  20
ENDBRANCH  18  19
ENDBRANCH   1  18
BRANCH   1  27
ATOM     27  C   UNL     1      -2.768   1.453  -0.046  0.00  0.00    -0.037 C 
BRANCH  27  28
ATOM     28  C   UNL     1      -1.598   2.400  -0.109  0.00  0.00    +0.001 A 
ATOM     29  C   UNL     1      -1.809   3.721  -0.329  0.00  0.00    +0.017 A 
ATOM     30  C   UNL     1      -0.651   4.614  -0.392  0.00  0.00    -0.001 A 
ATOM     31  C   UNL     1      -0.805   5.985  -0.623  0.00  0.00    +0.013 A 
ATOM     32  C   UNL     1       0.296   6.791  -0.677  0.00  0.00    -0.050 A 
ATOM     33  C   UNL     1       1.568   6.261  -0.504  0.00  0.00    +0.008 A 
ATOM     34  C   UNL     1       1.744   4.914  -0.274  0.00  0.00    -0.026 A 
ATOM     35  C   UNL     1       0.637   4.074  -0.216  0.00  0.00    +0.052 A 
ATOM     36  N   UNL     1       0.784   2.722   0.011  0.00  0.00    -0.322 N 
ATOM     37  H   UNL     1       1.787   2.293   0.149  0.00  0.00    +0.169 HD
ATOM     38  C   UNL     1      -0.286   1.909   0.066  0.00  0.00    +0.251 A 
ATOM     39  O   UNL     1      -0.119   0.719   0.269  0.00  0.00    -0.268 OA
ATOM     40  C   UNL     1       3.130   4.353  -0.087  0.00  0.00    +0.046 C 
ATOM     41  C   UNL     1       0.130   8.268  -0.926  0.00  0.00    +0.044 C 
ENDBRANCH  27  28
ENDBRANCH   1  27
TORSDOF 12
