REMARK  Name = ZINC10751746
REMARK  9 active torsions:
REMARK  status: ('A' for Active; 'I' for Inactive)
REMARK    1  A    between atoms: C_1  and  N_60
REMARK    2  A    between atoms: C_2  and  N_60
REMARK    3  A    between atoms: C_3  and  C_4
REMARK    4  A    between atoms: C_3  and  N_60
REMARK    5  A    between atoms: C_4  and  C_5
REMARK    6  A    between atoms: C_5  and  N_6
REMARK    7  A    between atoms: C_17  and  C_19
REMARK    8  A    between atoms: N_24  and  S_26
REMARK    9  A    between atoms: S_26  and  C_29
REMARK                            x       y       z     vdW  Elec       q    Type
REMARK                         _______ _______ _______ _____ _____    ______ ____
ROOT
ATOM      1  N   UNL     1       1.083   1.837   0.387  0.00  0.00    -0.250 N 
ATOM      2  C   UNL     1       1.019   3.176   0.739  0.00  0.00    +0.168 A 
ATOM      3  N   UNL     1       1.998   3.993   1.052  0.00  0.00    -0.221 NA
ATOM      4  C   UNL     1       1.788   5.288   1.374  0.00  0.00    +0.115 A 
ATOM      5  C   UNL     1       2.747   6.269   1.725  0.00  0.00    +0.150 A 
ATOM      6  C   UNL     1       2.360   7.548   2.033  0.00  0.00    +0.040 A 
ATOM      7  C   UNL     1       1.025   7.926   2.013  0.00  0.00    +0.004 A 
ATOM      8  C   UNL     1       0.062   6.994   1.675  0.00  0.00    +0.017 A 
ATOM      9  C   UNL     1       0.439   5.710   1.365  0.00  0.00    +0.044 A 
ATOM     10  S   UNL     1      -0.418   4.228   0.889  0.00  0.00    -0.052 S 
ATOM     11  F   UNL     1       4.057   5.940   1.756  0.00  0.00    -0.203 F 
ATOM     12  C   UNL     1      -0.051   1.127   0.228  0.00  0.00    +0.226 C 
ATOM     13  O   UNL     1      -0.000  -0.013  -0.181  0.00  0.00    -0.275 OA
ENDROOT
BRANCH  12  14
ATOM     14  C   UNL     1      -1.383   1.752   0.554  0.00  0.00    +0.091 C 
ATOM     15  C   UNL     1      -1.894   2.528  -0.663  0.00  0.00    +0.015 C 
ATOM     16  C   UNL     1      -3.231   3.190  -0.323  0.00  0.00    +0.018 C 
ATOM     17  C   UNL     1      -4.258   2.108   0.028  0.00  0.00    +0.109 C 
ATOM     18  N   UNL     1      -3.711   1.267   1.101  0.00  0.00    -0.175 NA
ATOM     19  C   UNL     1      -2.389   0.654   0.914  0.00  0.00    +0.122 C 
BRANCH  18  20
ATOM     20  S   UNL     1      -4.569   1.014   2.495  0.00  0.00    +0.067 S 
ATOM     21  O   UNL     1      -3.621   0.679   3.500  0.00  0.00    -0.152 OA
ATOM     22  O   UNL     1      -5.463   2.111   2.626  0.00  0.00    -0.152 OA
BRANCH  20  23
ATOM     23  C   UNL     1      -5.563  -0.419   2.242  0.00  0.00    +0.143 A 
ATOM     24  C   UNL     1      -5.264  -1.718   2.483  0.00  0.00    +0.036 A 
ATOM     25  C   UNL     1      -6.211  -2.687   2.208  0.00  0.00    +0.010 A 
ATOM     26  C   UNL     1      -7.408  -2.308   1.695  0.00  0.00    +0.047 A 
ATOM     27  S   UNL     1      -7.222  -0.536   1.594  0.00  0.00    -0.077 S 
ENDBRANCH  20  23
ENDBRANCH  18  20
ENDBRANCH  12  14
BRANCH   1  28
ATOM     28  C   UNL     1       2.384   1.194   0.186  0.00  0.00    +0.114 C 
BRANCH  28  29
ATOM     29  C   UNL     1       2.803   1.336  -1.278  0.00  0.00    +0.001 C 
BRANCH  29  30
ATOM     30  C   UNL     1       4.162   0.664  -1.488  0.00  0.00    -0.078 C 
BRANCH  30  33
ATOM     31  C   UNL     1       4.813   2.206  -3.237  0.00  0.00    -0.097 C 
ATOM     32  C   UNL     1       5.740  -0.030  -3.188  0.00  0.00    -0.097 C 
ATOM     33  N   UNL     1       4.542   0.790  -2.910  0.00  0.00    +0.376 N 
ATOM     34  H   UNL     1       3.766   0.456  -3.494  0.00  0.00    -0.083 HD
ENDBRANCH  30  33
ENDBRANCH  29  30
ENDBRANCH  28  29
ENDBRANCH   1  28
TORSDOF 7
