REMARK  Name = ZINC29456575
REMARK  6 active torsions:
REMARK  status: ('A' for Active; 'I' for Inactive)
REMARK    1  A    between atoms: C_1  and  C_2
REMARK    2  A    between atoms: C_3  and  C_18
REMARK    3  A    between atoms: C_4  and  C_17
REMARK    4  A    between atoms: C_7  and  C_8
REMARK    5  A    between atoms: C_11  and  N_13
REMARK    6  A    between atoms: C_18  and  C_20
REMARK                            x       y       z     vdW  Elec       q    Type
REMARK                         _______ _______ _______ _____ _____    ______ ____
ROOT
ATOM      1  C   UNL     1       0.457  -0.536   2.527  0.00  0.00    +0.097 A 
ATOM      2  C   UNL     1      -0.082  -1.343   3.493  0.00  0.00    +0.078 A 
ATOM      3  S   UNL     1      -0.079  -0.233   4.895  0.00  0.00    -0.056 S 
ATOM      4  C   UNL     1       0.632   1.180   4.062  0.00  0.00    +0.196 A 
ATOM      5  N   UNL     1       0.806   0.704   2.836  0.00  0.00    -0.220 NA
ENDROOT
BRANCH   1  12
ATOM      6  C   UNL     1       0.596   1.213  -0.056  0.00  0.00    +0.047 C 
ATOM      7  C   UNL     1       0.714  -0.287   0.029  0.00  0.00    -0.013 A 
ATOM      8  C   UNL     1       0.923  -1.217  -1.085  0.00  0.00    +0.041 A 
ATOM      9  C   UNL     1       0.966  -2.482  -0.527  0.00  0.00    +0.024 A 
ATOM     10  N   UNL     1       0.801  -2.365   0.804  0.00  0.00    -0.356 N 
ATOM     11  H   UNL     1       0.792  -3.108   1.428  0.00  0.00    +0.166 HD
ATOM     12  C   UNL     1       0.653  -1.046   1.153  0.00  0.00    +0.069 A 
ATOM     13  C   UNL     1       1.164  -3.772  -1.281  0.00  0.00    +0.064 C 
BRANCH   8  14
ATOM     14  C   UNL     1       1.059  -0.876  -2.504  0.00  0.00    +0.162 C 
ATOM     15  O   UNL     1       0.090  -0.919  -3.233  0.00  0.00    -0.292 OA
ATOM     16  C   UNL     1       2.401  -0.471  -3.056  0.00  0.00    +0.091 C 
ENDBRANCH   8  14
ENDBRANCH   1  12
BRANCH   4  17
ATOM     17  N   UNL     1       0.922   2.413   4.556  0.00  0.00    -0.189 NA
ATOM     18  C   UNL     1       1.382   3.350   3.755  0.00  0.00    +0.195 C 
ATOM     19  N   UNL     1       1.452   3.125   2.405  0.00  0.00    -0.370 N 
ATOM     20  N   UNL     1       1.792   4.552   4.271  0.00  0.00    -0.370 N 
ATOM     21  H   UNL     1       1.142   2.283   2.037  0.00  0.00    +0.159 HD
ATOM     22  H   UNL     1       1.812   3.808   1.817  0.00  0.00    +0.159 HD
ATOM     23  H   UNL     1       1.742   4.712   5.227  0.00  0.00    +0.159 HD
ATOM     24  H   UNL     1       2.131   5.243   3.682  0.00  0.00    +0.159 HD
ENDBRANCH   4  17
TORSDOF 3
