REMARK  Name = ZINC32655224
REMARK  8 active torsions:
REMARK  status: ('A' for Active; 'I' for Inactive)
REMARK    1  A    between atoms: C_1  and  C_2
REMARK    2  A    between atoms: C_2  and  S_3
REMARK    3  A    between atoms: S_3  and  C_4
REMARK    4  A    between atoms: C_13  and  C_28
REMARK    5  A    between atoms: C_14  and  C_24
REMARK    6  A    between atoms: C_15  and  C_17
REMARK    7  A    between atoms: C_24  and  O_26
REMARK    8  A    between atoms: O_26  and  C_27
REMARK                            x       y       z     vdW  Elec       q    Type
REMARK                         _______ _______ _______ _____ _____    ______ ____
ROOT
ATOM      1  C   UNL     1       1.153   2.045   0.002  0.00  0.00    +0.171 A 
ATOM      2  N   UNL     1      -0.016   1.345   0.009  0.00  0.00    -0.302 N 
ATOM      3  H   UNL     1      -0.977   1.881   0.021  0.00  0.00    +0.171 HD
ATOM      4  C   UNL     1       0.002  -0.004   0.002  0.00  0.00    +0.258 A 
ATOM      5  O   UNL     1      -1.040  -0.640   0.010  0.00  0.00    -0.267 OA
ATOM      6  C   UNL     1       1.238  -0.661  -0.015  0.00  0.00    +0.069 A 
ATOM      7  C   UNL     1       2.397   0.096  -0.026  0.00  0.00    +0.135 A 
ATOM      8  N   UNL     1       2.319   1.431  -0.015  0.00  0.00    -0.208 NA
ATOM      9  N   UNL     1       3.631  -0.527  -0.050  0.00  0.00    -0.302 N 
ATOM     10  C   UNL     1       3.730  -1.841  -0.415  0.00  0.00    +0.017 C 
ATOM     11  C   UNL     1       2.656  -2.647  -0.419  0.00  0.00    +0.065 C 
ATOM     12  C   UNL     1       1.294  -2.162  -0.017  0.00  0.00    +0.096 C 
ATOM     13  C   UNL     1       5.072  -2.395  -0.821  0.00  0.00    +0.061 C 
ATOM     14  H   UNL     1       4.536   0.034   0.225  0.00  0.00    +0.153 HD
ENDROOT
BRANCH  12  15
ATOM     15  C   UNL     1       0.976  -2.671   1.365  0.00  0.00    -0.035 A 
ATOM     16  C   UNL     1       1.772  -2.308   2.436  0.00  0.00    +0.005 A 
ATOM     17  C   UNL     1       1.477  -2.771   3.704  0.00  0.00    +0.015 A 
ATOM     18  C   UNL     1       0.392  -3.606   3.901  0.00  0.00    +0.018 A 
ATOM     19  C   UNL     1      -0.401  -3.973   2.829  0.00  0.00    +0.015 A 
ATOM     20  C   UNL     1      -0.109  -3.505   1.562  0.00  0.00    +0.005 A 
ATOM     21 BR   UNL     1      -0.007  -4.245   5.635  0.00  0.00    -0.050 Br
ENDBRANCH  12  15
BRANCH  11  22
ATOM     22  C   UNL     1       2.814  -3.994  -0.816  0.00  0.00    +0.337 C 
ATOM     23  O   UNL     1       3.910  -4.408  -1.146  0.00  0.00    -0.245 OA
BRANCH  22  24
ATOM     24  O   UNL     1       1.748  -4.823  -0.828  0.00  0.00    -0.465 OA
ATOM     25  C   UNL     1       1.980  -6.172  -1.239  0.00  0.00    +0.280 C 
ENDBRANCH  22  24
ENDBRANCH  11  22
BRANCH   1  26
ATOM     26  S   UNL     1       1.105   3.806   0.016  0.00  0.00    -0.088 S 
BRANCH  26  28
ATOM     27  C   UNL     1       3.088   5.685   0.008  0.00  0.00    +0.016 C 
ATOM     28  C   UNL     1       2.878   4.169  -0.001  0.00  0.00    +0.074 C 
ENDBRANCH  26  28
ENDBRANCH   1  26
TORSDOF 5
