REMARK  Name = ZINC02412648
REMARK  7 active torsions:
REMARK  status: ('A' for Active; 'I' for Inactive)
REMARK    1  A    between atoms: C_1  and  O_2
REMARK    2  A    between atoms: O_2  and  C_3
REMARK    3  A    between atoms: C_6  and  S_9
REMARK    4  A    between atoms: S_9  and  N_12
REMARK    5  A    between atoms: N_23  and  C_24
REMARK    6  A    between atoms: C_24  and  C_25
REMARK    7  A    between atoms: C_25  and  C_26
REMARK                            x       y       z     vdW  Elec       q    Type
REMARK                         _______ _______ _______ _____ _____    ______ ____
ROOT
ATOM      1  N   UNL     1       2.423  -0.407  -0.024  0.00  0.00    -0.197 N 
ATOM      2  C   UNL     1       2.414   0.980  -0.016  0.00  0.00    +0.179 A 
ATOM      3  C   UNL     1       1.180   1.675  -0.000  0.00  0.00    +0.161 A 
ATOM      4  N   UNL     1       1.158   2.992   0.002  0.00  0.00    -0.227 NA
ATOM      5  C   UNL     1       2.310   3.678  -0.000  0.00  0.00    +0.091 A 
ATOM      6  C   UNL     1       2.312   5.082   0.006  0.00  0.00    +0.030 A 
ATOM      7  C   UNL     1       3.496   5.757  -0.002  0.00  0.00    +0.002 A 
ATOM      8  C   UNL     1       4.708   5.073  -0.017  0.00  0.00    +0.002 A 
ATOM      9  C   UNL     1       4.744   3.711  -0.024  0.00  0.00    +0.030 A 
ATOM     10  C   UNL     1       3.543   2.983  -0.016  0.00  0.00    +0.091 A 
ATOM     11  N   UNL     1       3.552   1.642  -0.023  0.00  0.00    -0.226 NA
ATOM     12  N   UNL     1      -0.011   0.966   0.007  0.00  0.00    -0.326 N 
ATOM     13  H   UNL     1       1.586  -0.897  -0.019  0.00  0.00    +0.175 HD
ATOM     14  H   UNL     1       0.002  -0.004   0.002  0.00  0.00    +0.148 HD
ENDROOT
BRANCH   1  15
ATOM     15  S   UNL     1       3.862  -1.225  -0.042  0.00  0.00    +0.074 S 
ATOM     16  O   UNL     1       3.542  -2.610  -0.020  0.00  0.00    -0.150 OA
ATOM     17  O   UNL     1       4.648  -0.641  -1.071  0.00  0.00    -0.150 OA
BRANCH  15  21
ATOM     18  C   UNL     1       5.966  -0.320   3.865  0.00  0.00    +0.120 A 
ATOM     19  C   UNL     1       5.110  -1.408   3.772  0.00  0.00    +0.047 A 
ATOM     20  C   UNL     1       4.470  -1.682   2.579  0.00  0.00    +0.032 A 
ATOM     21  C   UNL     1       4.681  -0.873   1.478  0.00  0.00    +0.109 A 
ATOM     22  C   UNL     1       5.538   0.208   1.566  0.00  0.00    +0.032 A 
ATOM     23  C   UNL     1       6.177   0.490   2.758  0.00  0.00    +0.047 A 
BRANCH  18  25
ATOM     24  C   UNL     1       7.465   1.088   5.059  0.00  0.00    +0.277 C 
ATOM     25  O   UNL     1       6.598  -0.048   5.037  0.00  0.00    -0.495 OA
ENDBRANCH  18  25
ENDBRANCH  15  21
ENDBRANCH   1  15
BRANCH  12  26
ATOM     26  C   UNL     1      -1.290   1.681   0.017  0.00  0.00    +0.107 C 
BRANCH  26  27
ATOM     27  C   UNL     1      -2.439   0.671   0.017  0.00  0.00    +0.054 C 
BRANCH  27  28
ATOM     28  C   UNL     1      -3.754   1.407   0.028  0.00  0.00    -0.046 A 
ATOM     29  C   UNL     1      -4.354   1.733   1.229  0.00  0.00    +0.004 A 
ATOM     30  C   UNL     1      -5.558   2.412   1.239  0.00  0.00    +0.000 A 
ATOM     31  C   UNL     1      -6.167   2.756   0.046  0.00  0.00    +0.000 A 
ATOM     32  C   UNL     1      -5.570   2.425  -1.155  0.00  0.00    +0.000 A 
ATOM     33  C   UNL     1      -4.363   1.751  -1.165  0.00  0.00    +0.004 A 
ENDBRANCH  27  28
ENDBRANCH  26  27
ENDBRANCH  12  26
TORSDOF 6
