REMARK  Name = ZINC21243374
REMARK  9 active torsions:
REMARK  status: ('A' for Active; 'I' for Inactive)
REMARK    1  A    between atoms: C_1  and  O_2
REMARK    2  A    between atoms: O_2  and  C_3
REMARK    3  A    between atoms: C_7  and  C_10
REMARK    4  A    between atoms: C_8  and  O_9
REMARK    5  A    between atoms: C_15  and  C_20
REMARK    6  A    between atoms: C_23  and  O_28
REMARK    7  A    between atoms: C_24  and  O_26
REMARK    8  A    between atoms: O_26  and  C_27
REMARK    9  A    between atoms: O_28  and  C_29
REMARK                            x       y       z     vdW  Elec       q    Type
REMARK                         _______ _______ _______ _____ _____    ______ ____
ROOT
ATOM      1  C   UNL     1      -1.280   1.661   0.017  0.00  0.00    +0.140 C 
ATOM      2  C   UNL     1      -1.704   2.432   1.249  0.00  0.00    +0.037 C 
ATOM      3  C   UNL     1      -0.904   2.803   2.263  0.00  0.00    +0.017 C 
ATOM      4  C   UNL     1      -1.467   3.572   3.447  0.00  0.00    +0.059 C 
ATOM      5  C   UNL     1      -2.613   4.471   2.986  0.00  0.00    +0.032 C 
ATOM      6  C   UNL     1      -3.694   3.572   2.373  0.00  0.00    +0.088 C 
ATOM      7  C   UNL     1      -3.078   2.773   1.264  0.00  0.00    +0.163 C 
ATOM      8  O   UNL     1      -3.783   2.405   0.346  0.00  0.00    -0.292 OA
ATOM      9  N   UNL     1       0.423   2.529   2.341  0.00  0.00    -0.316 N 
ATOM     10  C   UNL     1       1.333   2.702   1.305  0.00  0.00    +0.052 A 
ATOM     11  C   UNL     1       2.401   3.577   1.398  0.00  0.00    +0.025 A 
ATOM     12  C   UNL     1       3.337   3.616   0.377  0.00  0.00    +0.002 A 
ATOM     13  C   UNL     1       3.203   2.790  -0.724  0.00  0.00    +0.002 A 
ATOM     14  C   UNL     1       2.123   1.931  -0.828  0.00  0.00    +0.025 A 
ATOM     15  C   UNL     1       1.175   1.902   0.182  0.00  0.00    +0.049 A 
ATOM     16  N   UNL     1       0.047   1.089   0.101  0.00  0.00    -0.331 N 
ATOM     17  H   UNL     1       0.850   2.139   3.276  0.00  0.00    +0.152 HD
ATOM     18  H   UNL     1       0.175  -0.004   0.101  0.00  0.00    +0.147 HD
ENDROOT
BRANCH   1  23
ATOM     19  C   UNL     1      -1.475   2.928  -3.545  0.00  0.00    +0.162 A 
ATOM     20  C   UNL     1      -1.410   4.298  -3.349  0.00  0.00    +0.049 A 
ATOM     21  C   UNL     1      -1.304   4.810  -2.069  0.00  0.00    +0.004 A 
ATOM     22  C   UNL     1      -1.267   3.957  -0.982  0.00  0.00    +0.009 A 
ATOM     23  C   UNL     1      -1.326   2.588  -1.170  0.00  0.00    +0.022 A 
ATOM     24  C   UNL     1      -1.432   2.070  -2.450  0.00  0.00    +0.164 A 
BRANCH  19  26
ATOM     25  C   UNL     1      -1.617   3.365  -5.878  0.00  0.00    +0.277 C 
ATOM     26  O   UNL     1      -1.579   2.424  -4.803  0.00  0.00    -0.491 OA
ENDBRANCH  19  26
BRANCH  24  27
ATOM     27  O   UNL     1      -1.495   0.724  -2.638  0.00  0.00    -0.503 OA
ATOM     28  H   UNL     1      -1.462   0.046  -1.772  0.00  0.00    +0.292 HD
ENDBRANCH  24  27
ENDBRANCH   1  23
BRANCH   5  29
ATOM     29  C   UNL     1      -3.179   5.221   4.165  0.00  0.00    -0.040 A 
ATOM     30  C   UNL     1      -3.714   4.525   5.233  0.00  0.00    +0.008 A 
ATOM     31  C   UNL     1      -4.234   5.208   6.316  0.00  0.00    +0.049 A 
ATOM     32  C   UNL     1      -4.220   6.594   6.333  0.00  0.00    +0.161 A 
ATOM     33  C   UNL     1      -3.682   7.294   5.258  0.00  0.00    +0.162 A 
ATOM     34  C   UNL     1      -3.157   6.603   4.177  0.00  0.00    +0.053 A 
BRANCH  33  35
ATOM     35  O   UNL     1      -3.666   8.654   5.270  0.00  0.00    -0.491 OA
ATOM     36  C   UNL     1      -3.098   9.306   4.132  0.00  0.00    +0.277 C 
ENDBRANCH  33  35
BRANCH  32  37
ATOM     37  O   UNL     1      -4.730   7.268   7.399  0.00  0.00    -0.491 OA
ATOM     38  C   UNL     1      -5.266   6.483   8.466  0.00  0.00    +0.277 C 
ENDBRANCH  32  37
ENDBRANCH   5  29
TORSDOF 6
