REMARK  Name = ZINC44713817
REMARK  9 active torsions:
REMARK  status: ('A' for Active; 'I' for Inactive)
REMARK    1  A    between atoms: C_1  and  C_2
REMARK    2  A    between atoms: C_3  and  C_9
REMARK    3  A    between atoms: C_4  and  C_8
REMARK    4  A    between atoms: C_9  and  C_11
REMARK    5  A    between atoms: C_9  and  N_12
REMARK    6  A    between atoms: C_13  and  C_15
REMARK    7  A    between atoms: C_26  and  C_28
REMARK    8  A    between atoms: C_29  and  C_40
REMARK    9  A    between atoms: C_32  and  C_33
REMARK                            x       y       z     vdW  Elec       q    Type
REMARK                         _______ _______ _______ _____ _____    ______ ____
ROOT
ATOM      1  C   UNL     1      -2.701  -1.535  -5.084  0.00  0.00    +0.100 C 
ATOM      2  C   UNL     1      -2.054  -2.801  -5.688  0.00  0.00    +0.121 C 
ATOM      3  N   UNL     1      -2.757  -3.002  -6.977  0.00  0.00    -0.296 N 
ATOM      4  C   UNL     1      -2.929  -1.633  -7.520  0.00  0.00    +0.115 C 
ATOM      5  C   UNL     1      -3.273  -0.770  -6.289  0.00  0.00    -0.004 C 
ATOM      6  C   UNL     1      -2.615   0.601  -6.406  0.00  0.00    -0.010 C 
ATOM      7  C   UNL     1      -3.241   1.365  -7.576  0.00  0.00    -0.082 C 
ATOM      8  N   UNL     1      -4.685   1.510  -7.351  0.00  0.00    +0.379 N 
ATOM      9  C   UNL     1      -5.324   0.189  -7.333  0.00  0.00    -0.082 C 
ATOM     10  C   UNL     1      -4.786  -0.624  -6.153  0.00  0.00    -0.010 C 
ATOM     11  C   UNL     1      -3.150  -4.166  -7.531  0.00  0.00    +0.252 C 
ATOM     12  O   UNL     1      -3.720  -4.166  -8.606  0.00  0.00    -0.270 OA
ATOM     13  H   UNL     1      -4.841   1.971  -6.467  0.00  0.00    -0.086 HD
ATOM     14  H   UNL     1      -5.085   2.066  -8.093  0.00  0.00    -0.086 HD
ENDROOT
BRANCH  11  15
ATOM     15  C   UNL     1      -2.889  -5.438  -6.836  0.00  0.00    +0.106 A 
ATOM     16  C   UNL     1      -3.712  -6.061  -5.945  0.00  0.00    +0.147 A 
ATOM     17  O   UNL     1      -3.117  -7.186  -5.541  0.00  0.00    -0.359 OA
ATOM     18  N   UNL     1      -1.864  -7.313  -6.183  0.00  0.00    -0.077 NA
ATOM     19  C   UNL     1      -1.694  -6.284  -6.974  0.00  0.00    +0.127 A 
ATOM     20  C   UNL     1      -5.061  -5.565  -5.492  0.00  0.00    +0.090 C 
BRANCH  19  21
ATOM     21  C   UNL     1      -0.520  -6.019  -7.840  0.00  0.00    +0.023 A 
ATOM     22  C   UNL     1      -0.475  -4.869  -8.626  0.00  0.00    +0.011 A 
ATOM     23  C   UNL     1       0.620  -4.628  -9.430  0.00  0.00    +0.001 A 
ATOM     24  C   UNL     1       1.673  -5.526  -9.458  0.00  0.00    +0.001 A 
ATOM     25  C   UNL     1       1.635  -6.669  -8.682  0.00  0.00    +0.020 A 
ATOM     26  C   UNL     1       0.546  -6.918  -7.867  0.00  0.00    +0.050 A 
ATOM     27 CL   UNL     1       0.503  -8.350  -6.887  0.00  0.00    -0.083 Cl
ENDBRANCH  19  21
ENDBRANCH  11  15
BRANCH   1  29
ATOM     28  N   UNL     1      -2.016   0.071  -3.332  0.00  0.00    -0.308 N 
ATOM     29  C   UNL     1      -1.663  -0.701  -4.378  0.00  0.00    +0.219 C 
ATOM     30  O   UNL     1      -0.509  -0.725  -4.752  0.00  0.00    -0.275 OA
ATOM     31  H   UNL     1      -2.939   0.090  -3.033  0.00  0.00    +0.149 HD
BRANCH  28  32
ATOM     32  C   UNL     1      -1.007   0.882  -2.646  0.00  0.00    +0.104 C 
ATOM     33  C   UNL     1      -0.293   0.028  -1.597  0.00  0.00    +0.033 C 
BRANCH  32  36
ATOM     34  C   UNL     1      -3.603   0.765  -0.905  0.00  0.00    +0.065 C 
ATOM     35  C   UNL     1      -2.799   2.001  -1.218  0.00  0.00    +0.038 A 
ATOM     36  C   UNL     1      -1.676   2.052  -1.971  0.00  0.00    +0.015 A 
ATOM     37  C   UNL     1      -1.245   3.382  -2.013  0.00  0.00    +0.065 A 
ATOM     38  N   UNL     1      -2.080   4.104  -1.309  0.00  0.00    -0.179 NA
ATOM     39  N   UNL     1      -3.072   3.255  -0.802  0.00  0.00    -0.281 N 
ATOM     40  H   UNL     1      -3.822   3.521  -0.247  0.00  0.00    +0.189 HD
ATOM     41  C   UNL     1      -0.030   3.895  -2.741  0.00  0.00    +0.068 C 
ENDBRANCH  32  36
ENDBRANCH  28  32
ENDBRANCH   1  29
TORSDOF 5
