REMARK  Name = ZINC25865794
REMARK  7 active torsions:
REMARK  status: ('A' for Active; 'I' for Inactive)
REMARK    1  A    between atoms: C_6  and  C_7
REMARK    2  A    between atoms: C_7  and  C_12
REMARK    3  A    between atoms: C_12  and  N_13
REMARK    4  A    between atoms: C_14  and  C_16
REMARK    5  A    between atoms: C_16  and  C_17
REMARK    6  A    between atoms: C_20  and  S_22
REMARK    7  A    between atoms: S_22  and  N_25
REMARK                            x       y       z     vdW  Elec       q    Type
REMARK                         _______ _______ _______ _____ _____    ______ ____
ROOT
ATOM      1  C   UNL     1       4.593  -0.252   1.111  0.00  0.00    +0.115 C 
ENDROOT
BRANCH   1   2
ATOM      2  C   UNL     1       3.695  -0.716  -0.038  0.00  0.00    +0.011 C 
ATOM      3  C   UNL     1       4.281  -0.252  -1.387  0.00  0.00    +0.013 C 
ATOM      4  C   UNL     1       5.091  -1.474  -1.889  0.00  0.00    +0.001 C 
ATOM      5  C   UNL     1       4.207  -2.671  -1.459  0.00  0.00    +0.001 C 
ATOM      6  C   UNL     1       3.648  -2.253  -0.083  0.00  0.00    +0.013 C 
BRANCH   2  12
ATOM      7  C   UNL     1       1.345  -0.383  -0.832  0.00  0.00    +0.008 A 
ATOM      8  C   UNL     1       0.069   0.125  -0.674  0.00  0.00    +0.050 A 
ATOM      9  C   UNL     1      -0.252   0.857   0.458  0.00  0.00    +0.162 A 
ATOM     10  C   UNL     1       0.712   1.077   1.436  0.00  0.00    +0.162 A 
ATOM     11  C   UNL     1       1.990   0.566   1.271  0.00  0.00    +0.053 A 
ATOM     12  C   UNL     1       2.304  -0.162   0.139  0.00  0.00    -0.036 A 
ATOM     13  O   UNL     1       0.415   1.786   2.559  0.00  0.00    -0.485 OA
ATOM     14  C   UNL     1      -0.763   2.598   2.516  0.00  0.00    +0.270 C 
ATOM     15  C   UNL     1      -1.901   1.762   1.913  0.00  0.00    +0.270 C 
ATOM     16  O   UNL     1      -1.510   1.358   0.596  0.00  0.00    -0.485 OA
ENDBRANCH   2  12
ENDBRANCH   1   2
BRANCH   1  17
ATOM     17  N   UNL     1       4.737   1.205   1.060  0.00  0.00    -0.314 N 
ATOM     18  C   UNL     1       5.557   1.831   1.927  0.00  0.00    +0.218 C 
ATOM     19  O   UNL     1       6.176   1.188   2.749  0.00  0.00    -0.275 OA
ATOM     20  H   UNL     1       4.176   1.788   0.315  0.00  0.00    +0.149 HD
BRANCH  18  21
ATOM     21  C   UNL     1       5.706   3.330   1.875  0.00  0.00    +0.138 C 
BRANCH  21  22
ATOM     22  C   UNL     1       6.673   3.776   2.941  0.00  0.00    +0.000 A 
ATOM     23  C   UNL     1       8.018   3.926   2.865  0.00  0.00    +0.013 A 
ATOM     24  C   UNL     1       8.710   4.353   3.982  0.00  0.00    +0.036 A 
ATOM     25  C   UNL     1       8.023   4.609   5.123  0.00  0.00    +0.142 A 
ATOM     26  S   UNL     1       6.344   4.251   4.630  0.00  0.00    -0.073 S 
BRANCH  25  27
ATOM     27  S   UNL     1       8.628   5.159   6.683  0.00  0.00    +0.062 S 
ATOM     28  O   UNL     1       7.676   4.750   7.655  0.00  0.00    -0.153 OA
ATOM     29  O   UNL     1       9.995   4.775   6.747  0.00  0.00    -0.153 OA
BRANCH  27  30
ATOM     30  N   UNL     1       8.602   6.814   6.663  0.00  0.00    -0.203 NA
ATOM     31  H   UNL     1       8.975   7.199   7.624  0.00  0.00    +0.144 HD
ATOM     32  H   UNL     1       7.572   7.163   6.503  0.00  0.00    +0.144 HD
ENDBRANCH  27  30
ENDBRANCH  25  27
ENDBRANCH  21  22
ENDBRANCH  18  21
ENDBRANCH   1  17
TORSDOF 7
