REMARK  Name = ZINC01410498
REMARK  8 active torsions:
REMARK  status: ('A' for Active; 'I' for Inactive)
REMARK    1  A    between atoms: C_1  and  C_2
REMARK    2  A    between atoms: C_4  and  C_17
REMARK    3  A    between atoms: C_5  and  C_16
REMARK    4  A    between atoms: N_6  and  C_7
REMARK    5  A    between atoms: C_18  and  C_19
REMARK    6  A    between atoms: C_18  and  C_21
REMARK    7  A    between atoms: N_23  and  C_24
REMARK    8  A    between atoms: C_27  and  O_30
REMARK                            x       y       z     vdW  Elec       q    Type
REMARK                         _______ _______ _______ _____ _____    ______ ____
ROOT
ATOM      1  C   UNL     1      -0.035  -3.333   1.628  0.00  0.00    +0.064 C 
ATOM      2  C   UNL     1       0.021  -2.151   0.696  0.00  0.00    +0.022 A 
ATOM      3  C   UNL     1      -0.086  -2.209  -0.642  0.00  0.00    +0.031 A 
ATOM      4  C   UNL     1       0.019  -0.826  -1.129  0.00  0.00    -0.003 A 
ATOM      5  C   UNL     1       0.192  -0.040  -0.001  0.00  0.00    +0.028 A 
ATOM      6  N   UNL     1       0.187  -0.848   1.077  0.00  0.00    -0.317 N 
ATOM      7  C   UNL     1       0.352   1.459   0.017  0.00  0.00    +0.064 C 
ENDROOT
BRANCH   6   8
ATOM      8  C   UNL     1       0.332  -0.415   2.403  0.00  0.00    +0.050 A 
ATOM      9  C   UNL     1      -0.638   0.394   2.979  0.00  0.00    +0.030 A 
ATOM     10  C   UNL     1      -0.497   0.822   4.285  0.00  0.00    +0.051 A 
ATOM     11  C   UNL     1       0.612   0.444   5.024  0.00  0.00    +0.166 A 
ATOM     12  C   UNL     1       1.587  -0.368   4.449  0.00  0.00    +0.168 A 
ATOM     13  C   UNL     1       1.442  -0.800   3.142  0.00  0.00    +0.075 A 
ATOM     14  O   UNL     1       2.565  -0.596   5.373  0.00  0.00    -0.453 OA
ATOM     15  C   UNL     1       2.385   0.415   6.382  0.00  0.00    +0.466 C 
ATOM     16  O   UNL     1       0.980   0.724   6.309  0.00  0.00    -0.453 OA
ENDBRANCH   6   8
BRANCH   4  17
ATOM     17  C   UNL     1      -0.043  -0.387  -2.475  0.00  0.00    +0.033 C 
ATOM     18  C   UNL     1      -0.562  -1.217  -3.450  0.00  0.00    +0.114 C 
BRANCH  18  19
ATOM     19  C   UNL     1      -0.449  -0.847  -4.867  0.00  0.00    +0.259 C 
ATOM     20  O   UNL     1       0.103   0.191  -5.182  0.00  0.00    -0.269 OA
ATOM     21  N   UNL     1      -0.955  -1.657  -5.817  0.00  0.00    -0.281 N 
ATOM     22  H   UNL     1      -1.432  -2.462  -5.564  0.00  0.00    +0.155 HD
BRANCH  21  23
ATOM     23  C   UNL     1      -0.792  -1.335  -7.171  0.00  0.00    +0.034 A 
ATOM     24  C   UNL     1      -0.831  -0.009  -7.579  0.00  0.00    +0.027 A 
ATOM     25  C   UNL     1      -0.665   0.308  -8.913  0.00  0.00    +0.047 A 
ATOM     26  C   UNL     1      -0.471  -0.700  -9.846  0.00  0.00    +0.117 A 
ATOM     27  C   UNL     1      -0.438  -2.026  -9.440  0.00  0.00    +0.047 A 
ATOM     28  C   UNL     1      -0.598  -2.344  -8.106  0.00  0.00    +0.027 A 
BRANCH  26  29
ATOM     29  O   UNL     1      -0.313  -0.388 -11.160  0.00  0.00    -0.507 OA
ATOM     30  H   UNL     1      -1.140  -0.356 -11.659  0.00  0.00    +0.292 HD
ENDBRANCH  26  29
ENDBRANCH  21  23
ENDBRANCH  18  19
BRANCH  18  31
ATOM     31  C   UNL     1      -1.210  -2.438  -3.078  0.00  0.00    +0.104 C 
ATOM     32  N   UNL     1      -1.725  -3.407  -2.784  0.00  0.00    -0.191 NA
ENDBRANCH  18  31
ENDBRANCH   4  17
TORSDOF 6
