REMARK  Name = ZINC63705110
REMARK  9 active torsions:
REMARK  status: ('A' for Active; 'I' for Inactive)
REMARK    1  A    between atoms: C_1  and  C_2
REMARK    2  A    between atoms: C_2  and  C_3
REMARK    3  A    between atoms: C_2  and  C_4
REMARK    4  A    between atoms: C_2  and  C_17
REMARK    5  A    between atoms: C_4  and  C_5
REMARK    6  A    between atoms: C_17  and  C_18
REMARK    7  A    between atoms: N_20  and  C_21
REMARK    8  A    between atoms: C_21  and  C_22
REMARK    9  A    between atoms: C_22  and  C_23
REMARK                            x       y       z     vdW  Elec       q    Type
REMARK                         _______ _______ _______ _____ _____    ______ ____
ROOT
ATOM      1  C   UNL     1      -0.019   1.526   0.010  0.00  0.00    +0.012 C 
ATOM      2  C   UNL     1       0.002  -0.004   0.002  0.00  0.00    -0.020 C 
ATOM      3  C   UNL     1       0.742  -0.511   1.242  0.00  0.00    +0.012 C 
ENDROOT
BRANCH   2   4
ATOM      4  C   UNL     1      -1.433  -0.534   0.013  0.00  0.00    +0.080 C 
BRANCH   4   5
ATOM      5  C   UNL     1      -2.139  -0.048   1.253  0.00  0.00    +0.122 C 
ATOM      6  N   UNL     1      -3.427  -0.434   1.421  0.00  0.00    -0.300 N 
ATOM      7  C   UNL     1      -4.340   0.205   2.256  0.00  0.00    +0.059 A 
ATOM      8  C   UNL     1      -5.706   0.008   2.093  0.00  0.00    +0.025 A 
ATOM      9  C   UNL     1      -6.598   0.647   2.931  0.00  0.00    +0.002 A 
ATOM     10  C   UNL     1      -6.139   1.483   3.933  0.00  0.00    +0.002 A 
ATOM     11  C   UNL     1      -4.779   1.684   4.099  0.00  0.00    +0.031 A 
ATOM     12  C   UNL     1      -3.888   1.050   3.264  0.00  0.00    +0.134 A 
ATOM     13  S   UNL     1      -2.149   1.288   3.444  0.00  0.00    +0.102 S 
ATOM     14  O   UNL     1      -1.925   2.692   3.445  0.00  0.00    -0.146 OA
ATOM     15  O   UNL     1      -1.725   0.444   4.505  0.00  0.00    -0.146 OA
ATOM     16  N   UNL     1      -1.464   0.690   2.057  0.00  0.00    -0.118 NA
ATOM     17  H   UNL     1      -3.735  -1.209   0.925  0.00  0.00    +0.153 HD
ENDBRANCH   4   5
ENDBRANCH   2   4
BRANCH   2  18
ATOM     18  C   UNL     1       0.718  -0.497  -1.257  0.00  0.00    +0.102 C 
BRANCH  18  19
ATOM     19  C   UNL     1       2.132   0.024  -1.268  0.00  0.00    +0.214 C 
ATOM     20  O   UNL     1       2.528   0.722  -0.358  0.00  0.00    -0.276 OA
ATOM     21  N   UNL     1       2.957  -0.285  -2.288  0.00  0.00    -0.315 N 
ATOM     22  H   UNL     1       2.640  -0.843  -3.015  0.00  0.00    +0.149 HD
BRANCH  21  23
ATOM     23  C   UNL     1       4.331   0.222  -2.298  0.00  0.00    +0.106 C 
BRANCH  23  24
ATOM     24  C   UNL     1       5.047  -0.271  -3.557  0.00  0.00    +0.047 C 
BRANCH  24  25
ATOM     25  C   UNL     1       6.482   0.259  -3.568  0.00  0.00    +0.104 C 
ATOM     26  C   UNL     1       7.225  -0.272  -4.774  0.00  0.00    +0.007 C 
ATOM     27  C   UNL     1       7.590   0.812  -5.496  0.00  0.00    -0.004 A 
ATOM     28  C   UNL     1       8.326   0.965  -6.757  0.00  0.00    +0.010 A 
ATOM     29  C   UNL     1       8.543   2.209  -7.243  0.00  0.00    +0.001 A 
ATOM     30  C   UNL     1       8.083   3.352  -6.574  0.00  0.00    +0.002 A 
ATOM     31  C   UNL     1       7.400   3.292  -5.412  0.00  0.00    +0.026 A 
ATOM     32  C   UNL     1       7.115   2.035  -4.810  0.00  0.00    +0.043 A 
ATOM     33  N   UNL     1       6.481   1.719  -3.704  0.00  0.00    -0.378 N 
ATOM     34  H   UNL     1       6.080   2.346  -3.082  0.00  0.00    +0.160 HD
ENDBRANCH  24  25
ENDBRANCH  23  24
ENDBRANCH  21  23
ENDBRANCH  18  19
ENDBRANCH   2  18
TORSDOF 7
