REMARK  Name = ZINC44593221
REMARK  5 active torsions:
REMARK  status: ('A' for Active; 'I' for Inactive)
REMARK    1  A    between atoms: C_1  and  C_2
REMARK    2  A    between atoms: C_2  and  C_3
REMARK    3  A    between atoms: C_2  and  N_4
REMARK    4  A    between atoms: C_5  and  C_21
REMARK    5  A    between atoms: C_8  and  C_15
REMARK                            x       y       z     vdW  Elec       q    Type
REMARK                         _______ _______ _______ _____ _____    ______ ____
ROOT
ATOM      1  N   UNL     1      -1.372  -0.511   0.012  0.00  0.00    -0.282 N 
ATOM      2  C   UNL     1      -1.973  -1.366  -1.018  0.00  0.00    +0.142 C 
ATOM      3  C   UNL     1      -3.388  -1.627  -0.579  0.00  0.00    +0.035 A 
ATOM      4  C   UNL     1      -4.577  -2.230  -0.838  0.00  0.00    +0.072 A 
ATOM      5  N   UNL     1      -5.411  -1.911   0.196  0.00  0.00    -0.276 N 
ATOM      6  H   UNL     1      -6.332  -2.205   0.279  0.00  0.00    +0.189 HD
ATOM      7  N   UNL     1      -4.795  -1.164   1.041  0.00  0.00    -0.168 NA
ATOM      8  C   UNL     1      -3.558  -0.942   0.646  0.00  0.00    +0.153 A 
ATOM      9  C   UNL     1      -2.285  -0.274   0.970  0.00  0.00    +0.268 C 
ATOM     10  O   UNL     1      -2.089   0.400   1.963  0.00  0.00    -0.268 OA
ENDROOT
BRANCH   2  11
ATOM     11  C   UNL     1      -1.214  -2.664  -1.121  0.00  0.00    -0.020 A 
ATOM     12  C   UNL     1      -0.767  -3.291   0.033  0.00  0.00    +0.006 A 
ATOM     13  C   UNL     1      -0.077  -4.469  -0.040  0.00  0.00    +0.010 A 
ATOM     14  C   UNL     1       0.179  -5.046  -1.285  0.00  0.00    -0.000 A 
ATOM     15  C   UNL     1       0.868  -6.263  -1.721  0.00  0.00    +0.027 A 
ATOM     16  C   UNL     1       0.797  -6.296  -3.061  0.00  0.00    +0.083 A 
ATOM     17  N   UNL     1       0.119  -5.199  -3.519  0.00  0.00    -0.361 N 
ATOM     18  H   UNL     1      -0.059  -5.003  -4.452  0.00  0.00    +0.165 HD
ATOM     19  C   UNL     1      -0.272  -4.414  -2.458  0.00  0.00    +0.047 A 
ATOM     20  C   UNL     1      -0.977  -3.218  -2.360  0.00  0.00    +0.032 A 
ENDBRANCH   2  11
BRANCH   4  21
ATOM     21  C   UNL     1      -4.905  -3.070  -2.011  0.00  0.00    +0.000 A 
ATOM     22  C   UNL     1      -4.525  -2.664  -3.291  0.00  0.00    +0.010 A 
ATOM     23  C   UNL     1      -4.833  -3.452  -4.381  0.00  0.00    +0.001 A 
ATOM     24  C   UNL     1      -5.518  -4.641  -4.207  0.00  0.00    +0.000 A 
ATOM     25  C   UNL     1      -5.898  -5.049  -2.941  0.00  0.00    +0.001 A 
ATOM     26  C   UNL     1      -5.591  -4.273  -1.842  0.00  0.00    +0.010 A 
ENDBRANCH   4  21
BRANCH   1  28
ATOM     27  C   UNL     1      -0.019   1.526   0.010  0.00  0.00    +0.028 C 
ATOM     28  C   UNL     1       0.002  -0.004   0.002  0.00  0.00    +0.071 C 
ATOM     29  C   UNL     1       0.742  -0.511   1.242  0.00  0.00    +0.028 C 
ENDBRANCH   1  28
TORSDOF 3
