REMARK  Name = ZINC23445701
REMARK  10 active torsions:
REMARK  status: ('A' for Active; 'I' for Inactive)
REMARK    1  A    between atoms: C_1  and  C_2
REMARK    2  A    between atoms: C_3  and  C_25
REMARK    3  A    between atoms: C_4  and  C_24
REMARK    4  A    between atoms: C_7  and  C_8
REMARK    5  A    between atoms: N_10  and  C_11
REMARK    6  A    between atoms: C_11  and  C_13
REMARK    7  A    between atoms: C_11  and  C_14
REMARK    8  A    between atoms: C_17  and  S_20
REMARK    9  A    between atoms: S_20  and  N_23
REMARK   10  A    between atoms: C_25  and  C_27
REMARK                            x       y       z     vdW  Elec       q    Type
REMARK                         _______ _______ _______ _____ _____    ______ ____
ROOT
ATOM      1  C   UNL     1      -2.344   3.539   7.194  0.00  0.00    +0.261 C 
ATOM      2  O   UNL     1      -3.321   2.952   7.622  0.00  0.00    -0.269 OA
ATOM      3  N   UNL     1      -1.962   3.367   5.914  0.00  0.00    -0.304 N 
ATOM      4  H   UNL     1      -1.079   3.897   5.527  0.00  0.00    +0.150 HD
ENDROOT
BRANCH   1  11
ATOM      5  C   UNL     1      -3.009   4.133  10.182  0.00  0.00    +0.047 C 
ATOM      6  C   UNL     1      -1.867   4.701   9.380  0.00  0.00    -0.010 A 
ATOM      7  C   UNL     1      -0.882   5.608   9.841  0.00  0.00    +0.041 A 
ATOM      8  C   UNL     1      -0.037   5.865   8.772  0.00  0.00    +0.024 A 
ATOM      9  N   UNL     1      -0.465   5.157   7.716  0.00  0.00    -0.354 N 
ATOM     10  H   UNL     1       0.073   5.220   6.758  0.00  0.00    +0.166 HD
ATOM     11  C   UNL     1      -1.583   4.436   8.073  0.00  0.00    +0.106 A 
ATOM     12  C   UNL     1       1.158   6.782   8.794  0.00  0.00    +0.064 C 
BRANCH   7  13
ATOM     13  C   UNL     1      -0.781   6.174  11.189  0.00  0.00    +0.162 C 
ATOM     14  O   UNL     1      -0.143   5.595  12.043  0.00  0.00    -0.292 OA
ATOM     15  C   UNL     1      -1.469   7.475  11.514  0.00  0.00    +0.091 C 
ENDBRANCH   7  13
ENDBRANCH   1  11
BRANCH   3  16
ATOM     16  C   UNL     1      -2.721   2.472   5.036  0.00  0.00    +0.100 C 
ATOM     17  C   UNL     1      -3.899   3.234   4.427  0.00  0.00    +0.033 C 
BRANCH  16  18
ATOM     18  C   UNL     1      -1.824   1.969   3.934  0.00  0.00    -0.027 A 
ATOM     19  C   UNL     1      -1.909   0.653   3.521  0.00  0.00    +0.007 A 
ATOM     20  C   UNL     1      -1.086   0.192   2.510  0.00  0.00    +0.029 A 
ATOM     21  C   UNL     1      -0.179   1.047   1.913  0.00  0.00    +0.105 A 
ATOM     22  C   UNL     1      -0.091   2.362   2.330  0.00  0.00    +0.029 A 
ATOM     23  C   UNL     1      -0.917   2.825   3.337  0.00  0.00    +0.007 A 
BRANCH  21  24
ATOM     24  S   UNL     1       0.870   0.459   0.625  0.00  0.00    +0.056 S 
ATOM     25  O   UNL     1       0.976  -0.948   0.797  0.00  0.00    -0.153 OA
ATOM     26  O   UNL     1       2.006   1.312   0.606  0.00  0.00    -0.153 OA
BRANCH  24  27
ATOM     27  N   UNL     1       0.072   0.702  -0.806  0.00  0.00    -0.204 NA
ATOM     28  H   UNL     1       0.696   0.346  -1.639  0.00  0.00    +0.144 HD
ATOM     29  H   UNL     1      -0.134   1.775  -0.933  0.00  0.00    +0.144 HD
ENDBRANCH  24  27
ENDBRANCH  21  24
ENDBRANCH  16  18
ENDBRANCH   3  16
TORSDOF 6
