REMARK  Name = ZINC62738776
REMARK  9 active torsions:
REMARK  status: ('A' for Active; 'I' for Inactive)
REMARK    1  A    between atoms: C_1  and  C_2
REMARK    2  A    between atoms: C_4  and  C_20
REMARK    3  A    between atoms: N_5  and  C_7
REMARK    4  A    between atoms: C_12  and  C_13
REMARK    5  A    between atoms: C_13  and  N_14
REMARK    6  A    between atoms: N_14  and  C_15
REMARK    7  A    between atoms: C_15  and  C_16
REMARK    8  A    between atoms: C_15  and  C_17
REMARK    9  A    between atoms: C_15  and  C_18
REMARK                            x       y       z     vdW  Elec       q    Type
REMARK                         _______ _______ _______ _____ _____    ______ ____
ROOT
ATOM      1  C   UNL     1      -0.503  -3.372   0.974  0.00  0.00    +0.070 A 
ATOM      2  C   UNL     1      -0.647  -4.602   0.345  0.00  0.00    +0.043 A 
ATOM      3  C   UNL     1      -0.621  -5.765   1.091  0.00  0.00    +0.020 A 
ATOM      4  C   UNL     1      -0.452  -5.704   2.463  0.00  0.00    +0.015 A 
ATOM      5  C   UNL     1      -0.309  -4.481   3.091  0.00  0.00    +0.005 A 
ATOM      6  C   UNL     1      -0.328  -3.316   2.350  0.00  0.00    -0.039 A 
ATOM      7 BR   UNL     1      -0.816  -7.440   0.236  0.00  0.00    -0.050 Br
ENDROOT
BRANCH   1  12
ATOM      8  C   UNL     1       0.706   1.059  -0.889  0.00  0.00    +0.090 C 
ATOM      9  C   UNL     1       0.007  -0.243  -0.596  0.00  0.00    +0.149 A 
ATOM     10  N   UNL     1      -1.121  -0.662  -1.169  0.00  0.00    -0.216 NA
ATOM     11  C   UNL     1      -1.456  -1.832  -0.689  0.00  0.00    +0.130 A 
ATOM     12  N   UNL     1      -0.528  -2.191   0.220  0.00  0.00    -0.217 N 
ATOM     13  N   UNL     1       0.411  -1.147   0.258  0.00  0.00    -0.150 NA
ATOM     14  C   UNL     1      -2.667  -2.637  -1.083  0.00  0.00    +0.088 C 
ENDBRANCH   1  12
BRANCH   6  15
ATOM     15  C   UNL     1      -0.166  -1.983   3.035  0.00  0.00    -0.044 C 
BRANCH  15  16
ATOM     16  N   UNL     1      -1.477  -1.331   3.155  0.00  0.00    +0.385 N 
ATOM     17  H   UNL     1      -1.855  -1.164   2.234  0.00  0.00    -0.085 HD
ATOM     18  H   UNL     1      -2.104  -1.928   3.672  0.00  0.00    -0.085 HD
BRANCH  16  19
ATOM     19  C   UNL     1      -1.324  -0.051   3.860  0.00  0.00    -0.077 C 
ATOM     20  C   UNL     1      -0.460   0.893   3.023  0.00  0.00    -0.011 C 
ATOM     21  C   UNL     1      -2.702   0.577   4.079  0.00  0.00    -0.011 C 
ATOM     22  C   UNL     1      -0.653  -0.292   5.214  0.00  0.00    -0.011 C 
ENDBRANCH  16  19
ENDBRANCH  15  16
ENDBRANCH   6  15
TORSDOF 4
