REMARK  Name = ZINC13113733
REMARK  3 active torsions:
REMARK  status: ('A' for Active; 'I' for Inactive)
REMARK    1  A    between atoms: C_1  and  C_2
REMARK    2  A    between atoms: C_2  and  C_18
REMARK    3  A    between atoms: N_15  and  O_16
REMARK                            x       y       z     vdW  Elec       q    Type
REMARK                         _______ _______ _______ _____ _____    ______ ____
ROOT
ATOM      1  C   UNL     1      -0.019   1.526   0.010  0.00  0.00    +0.011 C 
ATOM      2  C   UNL     1       0.002  -0.004   0.002  0.00  0.00    -0.024 C 
ATOM      3  C   UNL     1       0.717  -0.496  -1.253  0.00  0.00    +0.062 C 
ATOM      4  C   UNL     1       0.869  -1.994  -1.244  0.00  0.00    +0.051 A 
ATOM      5  C   UNL     1       0.844  -2.717  -0.053  0.00  0.00    +0.021 A 
ATOM      6  C   UNL     1       0.998  -4.103  -0.091  0.00  0.00    +0.017 A 
ATOM      7  C   UNL     1       1.168  -4.720  -1.325  0.00  0.00    -0.025 A 
ATOM      8  C   UNL     1       1.175  -3.947  -2.466  0.00  0.00    +0.045 A 
ATOM      9  N   UNL     1       1.031  -2.631  -2.387  0.00  0.00    -0.256 NA
ATOM     10  C   UNL     1       1.338  -4.547  -3.840  0.00  0.00    +0.056 C 
ATOM     11  C   UNL     1       1.923  -5.954  -3.746  0.00  0.00    +0.006 C 
ATOM     12  C   UNL     1       1.084  -6.763  -2.750  0.00  0.00    +0.005 C 
ATOM     13  C   UNL     1       1.341  -6.215  -1.348  0.00  0.00    +0.037 C 
ATOM     14  C   UNL     1       0.650  -2.025   1.239  0.00  0.00    +0.089 C 
ATOM     15  N   UNL     1       0.409  -2.686   2.324  0.00  0.00    -0.091 NA
ATOM     16  C   UNL     1       0.744  -0.512   1.245  0.00  0.00    +0.066 C 
ATOM     17  C   UNL     1      -1.433  -0.534   0.013  0.00  0.00    +0.011 C 
ENDROOT
BRANCH  15  18
ATOM     18  O   UNL     1       0.227  -1.996   3.548  0.00  0.00    -0.409 OA
ATOM     19  H   UNL     1       0.052  -2.575   4.303  0.00  0.00    +0.328 HD
ENDBRANCH  15  18
TORSDOF 1
