REMARK  Name = ZINC63985893
REMARK  10 active torsions:
REMARK  status: ('A' for Active; 'I' for Inactive)
REMARK    1  A    between atoms: C_1  and  C_2
REMARK    2  A    between atoms: C_2  and  C_3
REMARK    3  A    between atoms: C_2  and  C_4
REMARK    4  A    between atoms: C_4  and  N_5
REMARK    5  A    between atoms: N_8  and  C_28
REMARK    6  A    between atoms: N_14  and  C_17
REMARK    7  A    between atoms: C_17  and  C_18
REMARK    8  A    between atoms: C_28  and  C_29
REMARK    9  A    between atoms: C_32  and  O_35
REMARK   10  A    between atoms: O_35  and  C_36
REMARK                            x       y       z     vdW  Elec       q    Type
REMARK                         _______ _______ _______ _____ _____    ______ ____
ROOT
ATOM      1  N   UNL     1      -1.484  -1.959  -0.185  0.00  0.00    -0.271 N 
ATOM      2  C   UNL     1      -1.276  -2.720  -1.277  0.00  0.00    +0.312 C 
ATOM      3  O   UNL     1      -1.075  -2.268  -2.388  0.00  0.00    -0.252 OA
ATOM      4  N   UNL     1      -1.313  -4.029  -1.001  0.00  0.00    -0.220 N 
ATOM      5  C   UNL     1      -1.552  -4.255   0.308  0.00  0.00    +0.247 C 
ATOM      6  O   UNL     1      -1.643  -5.329   0.863  0.00  0.00    -0.273 OA
ATOM      7  C   UNL     1      -1.675  -2.887   0.936  0.00  0.00    +0.112 C 
ATOM      8  C   UNL     1      -0.592  -2.682   1.992  0.00  0.00    +0.017 C 
ATOM      9  C   UNL     1      -0.775  -1.309   2.644  0.00  0.00    -0.076 C 
ATOM     10  N   UNL     1      -2.106  -1.229   3.257  0.00  0.00    +0.381 N 
ATOM     11  C   UNL     1      -3.141  -1.332   2.221  0.00  0.00    -0.076 C 
ATOM     12  C   UNL     1      -3.059  -2.707   1.551  0.00  0.00    +0.017 C 
ATOM     13  H   UNL     1      -2.216  -1.984   3.918  0.00  0.00    -0.082 HD
ENDROOT
BRANCH   1  14
ATOM     14  C   UNL     1      -1.508  -0.495  -0.127  0.00  0.00    +0.113 C 
BRANCH  14  16
ATOM     15  C   UNL     1      -0.199   1.586  -0.573  0.00  0.00    +0.009 C 
ATOM     16  C   UNL     1      -0.160   0.057  -0.595  0.00  0.00    +0.000 C 
ATOM     17  C   UNL     1       0.946  -0.439   0.339  0.00  0.00    +0.009 C 
ENDBRANCH  14  16
ENDBRANCH   1  14
BRANCH  10  18
ATOM     18  C   UNL     1      -2.244   0.054   3.958  0.00  0.00    -0.050 C 
BRANCH  18  19
ATOM     19  C   UNL     1      -3.581   0.088   4.702  0.00  0.00    +0.086 C 
ATOM     20  C   UNL     1      -3.661   1.321   5.574  0.00  0.00    +0.005 C 
ATOM     21  C   UNL     1      -3.794   0.874   6.844  0.00  0.00    -0.004 A 
ATOM     22  C   UNL     1      -3.920   1.564   8.133  0.00  0.00    +0.010 A 
ATOM     23  C   UNL     1      -4.039   0.829   9.262  0.00  0.00    +0.001 A 
ATOM     24  C   UNL     1      -4.046  -0.572   9.232  0.00  0.00    +0.002 A 
ATOM     25  C   UNL     1      -3.934  -1.277   8.086  0.00  0.00    +0.026 A 
ATOM     26  C   UNL     1      -3.803  -0.606   6.839  0.00  0.00    +0.043 A 
ATOM     27  N   UNL     1      -3.682  -1.058   5.612  0.00  0.00    -0.380 N 
ATOM     28  H   UNL     1      -3.663  -1.992   5.351  0.00  0.00    +0.160 HD
ENDBRANCH  18  19
ENDBRANCH  10  18
BRANCH   4  29
ATOM     29  C   UNL     1      -1.120  -5.086  -1.997  0.00  0.00    +0.153 C 
BRANCH  29  30
ATOM     30  C   UNL     1       0.344  -5.435  -2.081  0.00  0.00    -0.029 A 
ATOM     31  C   UNL     1       1.164  -4.762  -2.967  0.00  0.00    +0.009 A 
ATOM     32  C   UNL     1       2.506  -5.080  -3.047  0.00  0.00    +0.046 A 
ATOM     33  C   UNL     1       3.030  -6.076  -2.236  0.00  0.00    +0.120 A 
ATOM     34  C   UNL     1       2.205  -6.750  -1.347  0.00  0.00    +0.046 A 
ATOM     35  C   UNL     1       0.865  -6.425  -1.268  0.00  0.00    +0.009 A 
BRANCH  33  36
ATOM     36  O   UNL     1       4.350  -6.392  -2.313  0.00  0.00    -0.495 OA
ATOM     37  C   UNL     1       4.821  -7.428  -1.448  0.00  0.00    +0.277 C 
ENDBRANCH  33  36
ENDBRANCH  29  30
ENDBRANCH   4  29
TORSDOF 7
