REMARK  Name = ZINC01426949
REMARK  10 active torsions:
REMARK  status: ('A' for Active; 'I' for Inactive)
REMARK    1  A    between atoms: C_1  and  O_2
REMARK    2  A    between atoms: O_2  and  C_3
REMARK    3  A    between atoms: C_6  and  C_9
REMARK    4  A    between atoms: C_11  and  C_28
REMARK    5  A    between atoms: C_11  and  O_36
REMARK    6  A    between atoms: N_12  and  C_16
REMARK    7  A    between atoms: C_16  and  C_17
REMARK    8  A    between atoms: C_17  and  C_18
REMARK    9  A    between atoms: C_31  and  O_34
REMARK   10  A    between atoms: O_34  and  C_35
REMARK                            x       y       z     vdW  Elec       q    Type
REMARK                         _______ _______ _______ _____ _____    ______ ____
ROOT
ATOM      1  C   UNL     1      -4.893  -3.274   1.585  0.00  0.00    +0.263 C 
ATOM      2  C   UNL     1      -4.037  -1.996   1.490  0.00  0.00    +0.206 C 
ATOM      3  N   UNL     1      -2.666  -2.503   1.333  0.00  0.00    -0.231 N 
ATOM      4  C   UNL     1      -2.695  -3.843   1.342  0.00  0.00    +0.406 C 
ATOM      5  O   UNL     1      -1.698  -4.529   1.232  0.00  0.00    -0.226 OA
ATOM      6  O   UNL     1      -3.923  -4.356   1.481  0.00  0.00    -0.437 OA
ENDROOT
BRANCH   1  10
ATOM      7  C   UNL     1      -7.701  -3.465  -1.630  0.00  0.00    +0.120 A 
ATOM      8  C   UNL     1      -8.104  -3.012  -0.382  0.00  0.00    +0.046 A 
ATOM      9  C   UNL     1      -7.194  -2.951   0.656  0.00  0.00    +0.011 A 
ATOM     10  C   UNL     1      -5.883  -3.341   0.451  0.00  0.00    -0.002 A 
ATOM     11  C   UNL     1      -5.478  -3.788  -0.793  0.00  0.00    +0.011 A 
ATOM     12  C   UNL     1      -6.386  -3.856  -1.832  0.00  0.00    +0.046 A 
BRANCH   7  14
ATOM     13  C   UNL     1      -8.110  -4.003  -3.909  0.00  0.00    +0.277 C 
ATOM     14  O   UNL     1      -8.595  -3.526  -2.652  0.00  0.00    -0.495 OA
ENDBRANCH   7  14
ENDBRANCH   1  10
BRANCH   2  15
ATOM     15  C   UNL     1      -4.441  -1.180   0.289  0.00  0.00    +0.007 A 
ATOM     16  C   UNL     1      -5.436  -0.227   0.405  0.00  0.00    +0.012 A 
ATOM     17  C   UNL     1      -5.803   0.526  -0.693  0.00  0.00    +0.046 A 
ATOM     18  C   UNL     1      -5.181   0.318  -1.916  0.00  0.00    +0.120 A 
ATOM     19  C   UNL     1      -4.187  -0.643  -2.030  0.00  0.00    +0.046 A 
ATOM     20  C   UNL     1      -3.819  -1.389  -0.928  0.00  0.00    +0.012 A 
BRANCH  18  21
ATOM     21  O   UNL     1      -5.545   1.054  -2.999  0.00  0.00    -0.495 OA
ATOM     22  C   UNL     1      -6.575   2.025  -2.807  0.00  0.00    +0.277 C 
ENDBRANCH  18  21
ENDBRANCH   2  15
BRANCH   2  23
ATOM     23  O   UNL     1      -4.152  -1.222   2.686  0.00  0.00    -0.364 OA
ATOM     24  H   UNL     1      -3.585  -0.439   2.704  0.00  0.00    +0.213 HD
ENDBRANCH   2  23
BRANCH   3  25
ATOM     25  C   UNL     1      -1.463  -1.678   1.196  0.00  0.00    +0.119 C 
BRANCH  25  26
ATOM     26  C   UNL     1      -0.811  -1.495   2.568  0.00  0.00    +0.056 C 
BRANCH  26  27
ATOM     27  C   UNL     1       0.490  -0.752   2.411  0.00  0.00    -0.021 A 
ATOM     28  C   UNL     1       1.712  -1.296   2.298  0.00  0.00    +0.087 A 
ATOM     29  N   UNL     1       2.652  -0.309   2.171  0.00  0.00    -0.360 N 
ATOM     30  H   UNL     1       3.606  -0.457   2.075  0.00  0.00    +0.165 HD
ATOM     31  C   UNL     1       2.042   0.925   2.200  0.00  0.00    +0.047 A 
ATOM     32  C   UNL     1       0.661   0.702   2.351  0.00  0.00    +0.003 A 
ATOM     33  C   UNL     1      -0.216   1.786   2.413  0.00  0.00    +0.010 A 
ATOM     34  C   UNL     1       0.271   3.059   2.324  0.00  0.00    +0.001 A 
ATOM     35  C   UNL     1       1.632   3.285   2.175  0.00  0.00    +0.002 A 
ATOM     36  C   UNL     1       2.517   2.230   2.112  0.00  0.00    +0.026 A 
ENDBRANCH  26  27
ENDBRANCH  25  26
ENDBRANCH   3  25
TORSDOF 8
