REMARK  Name = ZINC08201687
REMARK  9 active torsions:
REMARK  status: ('A' for Active; 'I' for Inactive)
REMARK    1  A    between atoms: C_1  and  C_2
REMARK    2  A    between atoms: C_2  and  C_3
REMARK    3  A    between atoms: C_6  and  N_9
REMARK    4  A    between atoms: C_10  and  O_32
REMARK    5  A    between atoms: C_11  and  C_18
REMARK    6  A    between atoms: C_22  and  O_30
REMARK    7  A    between atoms: C_23  and  O_28
REMARK    8  A    between atoms: O_28  and  C_29
REMARK    9  A    between atoms: O_30  and  C_31
REMARK                            x       y       z     vdW  Elec       q    Type
REMARK                         _______ _______ _______ _____ _____    ______ ____
ROOT
ATOM      1  N   UNL     1      -7.247   0.005   5.432  0.00  0.00    -0.233 N 
ATOM      2  C   UNL     1      -7.430  -0.010   4.071  0.00  0.00    +0.208 A 
ATOM      3  C   UNL     1      -6.608  -0.768   3.292  0.00  0.00    +0.067 A 
ATOM      4  C   UNL     1      -5.581  -1.510   3.902  0.00  0.00    +0.259 A 
ATOM      5  O   UNL     1      -4.830  -2.191   3.225  0.00  0.00    -0.267 OA
ATOM      6  N   UNL     1      -5.433  -1.464   5.241  0.00  0.00    -0.274 N 
ATOM      7  H   UNL     1      -4.704  -1.991   5.678  0.00  0.00    +0.173 HD
ATOM      8  C   UNL     1      -6.258  -0.714   5.994  0.00  0.00    +0.336 A 
ATOM      9  O   UNL     1      -6.107  -0.685   7.200  0.00  0.00    -0.246 OA
ENDROOT
BRANCH   3  10
ATOM     10  C   UNL     1      -6.792  -0.805   1.796  0.00  0.00    +0.001 C 
ATOM     11  C   UNL     1      -5.599  -0.169   1.133  0.00  0.00    -0.050 A 
ATOM     12  C   UNL     1      -5.086   0.999   1.681  0.00  0.00    +0.052 A 
ATOM     13  C   UNL     1      -3.992   1.620   1.107  0.00  0.00    +0.162 A 
ATOM     14  C   UNL     1      -3.409   1.075  -0.034  0.00  0.00    +0.162 A 
ATOM     15  C   UNL     1      -3.922  -0.090  -0.575  0.00  0.00    +0.053 A 
ATOM     16  C   UNL     1      -5.017  -0.712   0.008  0.00  0.00    -0.044 A 
ATOM     17  C   UNL     1      -5.536  -1.982  -0.617  0.00  0.00    +0.016 C 
ATOM     18  C   UNL     1      -6.948  -2.274  -0.108  0.00  0.00    -0.077 C 
ATOM     19  N   UNL     1      -6.940  -2.202   1.365  0.00  0.00    +0.387 N 
ATOM     20  H   UNL     1      -7.822  -2.580   1.729  0.00  0.00    -0.085 HD
ATOM     21  H   UNL     1      -6.155  -2.756   1.728  0.00  0.00    -0.085 HD
BRANCH  14  22
ATOM     22  O   UNL     1      -2.337   1.681  -0.610  0.00  0.00    -0.491 OA
ATOM     23  C   UNL     1      -1.788   1.061  -1.774  0.00  0.00    +0.277 C 
ENDBRANCH  14  22
BRANCH  13  24
ATOM     24  O   UNL     1      -3.491   2.761   1.651  0.00  0.00    -0.491 OA
ATOM     25  C   UNL     1      -4.141   3.262   2.821  0.00  0.00    +0.277 C 
ENDBRANCH  13  24
ENDBRANCH   3  10
BRANCH   1  29
ATOM     26  C   UNL     1      -9.758   2.304   7.835  0.00  0.00    -0.047 A 
ATOM     27  C   UNL     1      -8.593   2.853   7.331  0.00  0.00    +0.005 A 
ATOM     28  C   UNL     1      -7.759   2.093   6.535  0.00  0.00    +0.026 A 
ATOM     29  C   UNL     1      -8.091   0.778   6.240  0.00  0.00    +0.054 A 
ATOM     30  C   UNL     1      -9.265   0.232   6.742  0.00  0.00    +0.026 A 
ATOM     31  C   UNL     1     -10.092   0.994   7.543  0.00  0.00    +0.005 A 
BRANCH  26  33
ATOM     32  C   UNL     1     -11.689   3.860   7.827  0.00  0.00    +0.009 C 
ATOM     33  C   UNL     1     -10.666   3.136   8.704  0.00  0.00    +0.032 C 
ENDBRANCH  26  33
ENDBRANCH   1  29
BRANCH   2  34
ATOM     34  O   UNL     1      -8.420   0.717   3.509  0.00  0.00    -0.493 OA
ATOM     35  H   UNL     1      -8.898   1.279   4.134  0.00  0.00    +0.294 HD
ENDBRANCH   2  34
TORSDOF 6
