REMARK  Name = ZINC48765273
REMARK  4 active torsions:
REMARK  status: ('A' for Active; 'I' for Inactive)
REMARK    1  A    between atoms: C_1  and  C_2
REMARK    2  A    between atoms: C_12  and  C_16
REMARK    3  A    between atoms: C_16  and  O_18
REMARK    4  A    between atoms: O_18  and  C_19
REMARK                            x       y       z     vdW  Elec       q    Type
REMARK                         _______ _______ _______ _____ _____    ______ ____
ROOT
ATOM      1  C   UNL     1      -0.019   1.526   0.010  0.00  0.00    +0.008 C 
ATOM      2  C   UNL     1       0.002  -0.004   0.002  0.00  0.00    -0.009 C 
ATOM      3  C   UNL     1       0.720  -0.498  -1.257  0.00  0.00    +0.009 C 
ATOM      4  C   UNL     1       0.525  -2.013  -1.393  0.00  0.00    +0.054 C 
ATOM      5  C   UNL     1       0.882  -2.665  -0.079  0.00  0.00    +0.020 A 
ATOM      6  C   UNL     1       0.979  -1.994   1.089  0.00  0.00    -0.019 A 
ATOM      7  C   UNL     1       1.339  -2.962   2.105  0.00  0.00    +0.004 A 
ATOM      8  C   UNL     1       1.573  -2.851   3.479  0.00  0.00    +0.010 A 
ATOM      9  C   UNL     1       1.905  -4.012   4.159  0.00  0.00    +0.002 A 
ATOM     10  C   UNL     1       2.003  -5.234   3.523  0.00  0.00    +0.017 A 
ATOM     11  C   UNL     1       1.774  -5.376   2.149  0.00  0.00    +0.083 A 
ATOM     12  C   UNL     1       1.436  -4.209   1.438  0.00  0.00    +0.061 A 
ATOM     13  N   UNL     1       1.154  -3.993   0.127  0.00  0.00    -0.357 N 
ATOM     14  H   UNL     1       1.145  -4.676  -0.562  0.00  0.00    +0.166 HD
ATOM     15  C   UNL     1       0.745  -0.513   1.243  0.00  0.00    +0.040 C 
ENDROOT
BRANCH  11  16
ATOM     16  C   UNL     1       1.880  -6.685   1.480  0.00  0.00    +0.341 C 
ATOM     17  O   UNL     1       1.675  -6.775   0.286  0.00  0.00    -0.245 OA
BRANCH  16  18
ATOM     18  O   UNL     1       2.205  -7.782   2.192  0.00  0.00    -0.464 OA
ATOM     19  C   UNL     1       2.291  -9.017   1.479  0.00  0.00    +0.280 C 
ENDBRANCH  16  18
ENDBRANCH  11  16
TORSDOF 2
