REMARK  Name = ZINC22515400
REMARK  10 active torsions:
REMARK  status: ('A' for Active; 'I' for Inactive)
REMARK    1  A    between atoms: C_1  and  C_2
REMARK    2  A    between atoms: C_2  and  O_3
REMARK    3  A    between atoms: O_3  and  C_4
REMARK    4  A    between atoms: C_4  and  C_6
REMARK    5  A    between atoms: C_7  and  C_19
REMARK    6  A    between atoms: C_12  and  C_14
REMARK    7  A    between atoms: C_19  and  S_20
REMARK    8  A    between atoms: S_20  and  C_21
REMARK    9  A    between atoms: C_24  and  C_27
REMARK   10  A    between atoms: N_25  and  N_26
REMARK                            x       y       z     vdW  Elec       q    Type
REMARK                         _______ _______ _______ _____ _____    ______ ____
ROOT
ATOM      1  C   UNL     1       1.964  -2.374   1.310  0.00  0.00    +0.082 C 
ATOM      2  C   UNL     1       3.219  -2.391   1.809  0.00  0.00    +0.034 C 
ATOM      3  N   UNL     1       4.304  -2.256   0.991  0.00  0.00    -0.272 N 
ATOM      4  C   UNL     1       4.220  -2.101  -0.336  0.00  0.00    +0.304 C 
ATOM      5  O   UNL     1       5.244  -1.990  -0.981  0.00  0.00    -0.252 OA
ATOM      6  N   UNL     1       3.036  -2.065  -0.980  0.00  0.00    -0.285 N 
ATOM      7  C   UNL     1       1.803  -2.201  -0.187  0.00  0.00    +0.179 C 
ATOM      8  H   UNL     1       5.319  -2.272   1.417  0.00  0.00    +0.156 HD
ATOM      9  H   UNL     1       2.978  -1.937  -2.071  0.00  0.00    +0.151 HD
ENDROOT
BRANCH   7  10
ATOM     10  C   UNL     1       0.960  -0.975  -0.425  0.00  0.00    +0.130 A 
ATOM     11  C   UNL     1      -0.377  -0.957  -0.574  0.00  0.00    +0.047 A 
ATOM     12  C   UNL     1      -0.748   0.393  -0.776  0.00  0.00    +0.041 A 
ATOM     13  C   UNL     1       0.384   1.118  -0.737  0.00  0.00    +0.195 A 
ATOM     14  O   UNL     1       1.415   0.284  -0.525  0.00  0.00    -0.466 OA
ENDBRANCH   7  10
BRANCH   1  15
ATOM     15  C   UNL     1       0.839  -2.513   2.155  0.00  0.00    +0.339 C 
ATOM     16  O   UNL     1       0.992  -2.780   3.333  0.00  0.00    -0.245 OA
BRANCH  15  17
ATOM     17  O   UNL     1      -0.404  -2.348   1.657  0.00  0.00    -0.462 OA
BRANCH  17  19
ATOM     18  C   UNL     1      -2.814  -2.281   1.826  0.00  0.00    +0.048 C 
ATOM     19  C   UNL     1      -1.494  -2.503   2.568  0.00  0.00    +0.229 C 
ENDBRANCH  17  19
ENDBRANCH  15  17
ENDBRANCH   1  15
BRANCH   2  20
ATOM     20  C   UNL     1       3.424  -2.560   3.292  0.00  0.00    +0.128 C 
BRANCH  20  21
ATOM     21  S   UNL     1       3.622  -4.318   3.677  0.00  0.00    -0.079 S 
BRANCH  21  22
ATOM     22  C   UNL     1       3.839  -4.226   5.423  0.00  0.00    +0.209 A 
ATOM     23  N   UNL     1       3.847  -3.135   6.152  0.00  0.00    -0.121 NA
ATOM     24  N   UNL     1       4.028  -3.437   7.389  0.00  0.00    -0.132 NA
ATOM     25  C   UNL     1       4.152  -4.727   7.520  0.00  0.00    +0.154 A 
ATOM     26  N   UNL     1       4.037  -5.276   6.273  0.00  0.00    -0.228 N 
BRANCH  25  27
ATOM     27  C   UNL     1       4.382  -5.476   8.808  0.00  0.00    +0.059 C 
ATOM     28  C   UNL     1       3.220  -5.209   9.767  0.00  0.00    +0.011 C 
ATOM     29  C   UNL     1       3.452  -5.968  11.074  0.00  0.00    +0.001 C 
ATOM     30  C   UNL     1       4.759  -5.496  11.713  0.00  0.00    +0.000 C 
ATOM     31  C   UNL     1       5.921  -5.763  10.754  0.00  0.00    +0.001 C 
ATOM     32  C   UNL     1       5.689  -5.003   9.447  0.00  0.00    +0.011 C 
ENDBRANCH  25  27
BRANCH  26  33
ATOM     33  N   UNL     1       4.105  -6.601   5.945  0.00  0.00    -0.295 N 
ATOM     34  H   UNL     1       4.269  -7.354   6.730  0.00  0.00    +0.163 HD
ATOM     35  H   UNL     1       3.995  -6.914   4.897  0.00  0.00    +0.163 HD
ENDBRANCH  26  33
ENDBRANCH  21  22
ENDBRANCH  20  21
ENDBRANCH   2  20
TORSDOF 9
