REMARK  Name = ZINC15959688
REMARK  6 active torsions:
REMARK  status: ('A' for Active; 'I' for Inactive)
REMARK    1  A    between atoms: C_1  and  C_2
REMARK    2  A    between atoms: C_2  and  C_4
REMARK    3  A    between atoms: C_2  and  O_34
REMARK    4  A    between atoms: N_12  and  C_15
REMARK    5  A    between atoms: C_15  and  C_16
REMARK    6  A    between atoms: C_16  and  C_17
REMARK                            x       y       z     vdW  Elec       q    Type
REMARK                         _______ _______ _______ _____ _____    ______ ____
ROOT
ATOM      1  C   UNL     1       0.718  -0.497  -1.257  0.00  0.00    +0.096 C 
ATOM      2  C   UNL     1       0.718  -2.040  -1.305  0.00  0.00    +0.109 C 
ATOM      3  C   UNL     1       0.514  -2.393  -2.805  0.00  0.00    +0.122 C 
ATOM      4  C   UNL     1      -0.832  -3.082  -2.820  0.00  0.00    +0.228 C 
ATOM      5  O   UNL     1      -1.378  -3.531  -3.805  0.00  0.00    -0.275 OA
ATOM      6  N   UNL     1      -1.327  -3.119  -1.577  0.00  0.00    -0.241 N 
ATOM      7  C   UNL     1      -0.533  -2.561  -0.635  0.00  0.00    +0.227 C 
ATOM      8  O   UNL     1      -0.777  -2.483   0.550  0.00  0.00    -0.275 OA
ATOM      9  C   UNL     1       0.421  -1.035  -3.511  0.00  0.00    +0.136 C 
ATOM     10  N   UNL     1      -0.025  -0.074  -2.474  0.00  0.00    -0.293 NA
ATOM     11  C   UNL     1       1.736  -0.643  -4.124  0.00  0.00    +0.003 A 
ATOM     12  C   UNL     1       2.996  -0.435  -3.611  0.00  0.00    +0.008 A 
ATOM     13  C   UNL     1       4.034  -0.071  -4.451  0.00  0.00    +0.000 A 
ATOM     14  C   UNL     1       3.801   0.082  -5.806  0.00  0.00    +0.002 A 
ATOM     15  C   UNL     1       2.539  -0.124  -6.324  0.00  0.00    +0.023 A 
ATOM     16  C   UNL     1       1.489  -0.490  -5.485  0.00  0.00    +0.039 A 
ATOM     17  N   UNL     1       0.146  -0.750  -5.765  0.00  0.00    -0.283 N 
ATOM     18  C   UNL     1      -0.550  -1.076  -4.659  0.00  0.00    +0.243 C 
ATOM     19  O   UNL     1      -1.730  -1.350  -4.600  0.00  0.00    -0.273 OA
ATOM     20  H   UNL     1      -1.021  -0.126  -2.325  0.00  0.00    +0.124 HD
ATOM     21  H   UNL     1      -0.241  -0.701  -6.653  0.00  0.00    +0.155 HD
ENDROOT
BRANCH   1  23
ATOM     22  C   UNL     1       0.853  -0.327   1.232  0.00  0.00    +0.039 C 
ATOM     23  C   UNL     1       0.002  -0.004   0.002  0.00  0.00    +0.129 C 
BRANCH  23  24
ATOM     24  O   UNL     1      -0.194   1.409  -0.084  0.00  0.00    -0.390 OA
ATOM     25  H   UNL     1      -0.644   1.791   0.682  0.00  0.00    +0.210 HD
ENDBRANCH  23  24
ENDBRANCH   1  23
BRANCH   6  26
ATOM     26  C   UNL     1      -2.624  -3.722  -1.259  0.00  0.00    +0.121 C 
BRANCH  26  27
ATOM     27  C   UNL     1      -2.430  -5.203  -0.929  0.00  0.00    +0.054 C 
BRANCH  27  28
ATOM     28  C   UNL     1      -3.764  -5.823  -0.601  0.00  0.00    -0.046 A 
ATOM     29  C   UNL     1      -4.223  -5.825   0.703  0.00  0.00    +0.004 A 
ATOM     30  C   UNL     1      -5.446  -6.394   1.004  0.00  0.00    +0.000 A 
ATOM     31  C   UNL     1      -6.210  -6.961   0.001  0.00  0.00    +0.000 A 
ATOM     32  C   UNL     1      -5.751  -6.958  -1.303  0.00  0.00    +0.000 A 
ATOM     33  C   UNL     1      -4.530  -6.385  -1.605  0.00  0.00    +0.004 A 
ENDBRANCH  27  28
ENDBRANCH  26  27
ENDBRANCH   6  26
TORSDOF 5
