REMARK  Name = ZINC45728001
REMARK  12 active torsions:
REMARK  status: ('A' for Active; 'I' for Inactive)
REMARK    1  A    between atoms: C_1  and  C_2
REMARK    2  A    between atoms: C_2  and  C_3
REMARK    3  A    between atoms: C_3  and  C_4
REMARK    4  A    between atoms: C_4  and  N_5
REMARK    5  A    between atoms: C_6  and  N_31
REMARK    6  A    between atoms: C_7  and  N_14
REMARK    7  A    between atoms: N_14  and  C_15
REMARK    8  A    between atoms: N_14  and  C_16
REMARK    9  A    between atoms: C_16  and  C_17
REMARK   10  A    between atoms: N_19  and  C_20
REMARK   11  A    between atoms: C_20  and  C_22
REMARK   12  A    between atoms: C_20  and  C_23
REMARK                            x       y       z     vdW  Elec       q    Type
REMARK                         _______ _______ _______ _____ _____    ______ ____
ROOT
ATOM      1  N   UNL     1      -5.515  -4.273   2.401  0.00  0.00    -0.317 N 
ATOM      2  C   UNL     1      -5.169  -4.008   3.800  0.00  0.00    +0.130 C 
ENDROOT
BRANCH   1   5
ATOM      3  N   UNL     1      -3.870  -2.822  -0.542  0.00  0.00    -0.280 N 
ATOM      4  C   UNL     1      -4.805  -3.050   0.442  0.00  0.00    +0.127 A 
ATOM      5  C   UNL     1      -4.571  -4.019   1.379  0.00  0.00    +0.134 A 
ATOM      6  C   UNL     1      -3.377  -4.760   1.310  0.00  0.00    +0.277 A 
ATOM      7  O   UNL     1      -3.147  -5.630   2.133  0.00  0.00    -0.266 OA
ATOM      8  N   UNL     1      -2.490  -4.503   0.329  0.00  0.00    -0.273 N 
ATOM      9  H   UNL     1      -1.667  -5.014   0.280  0.00  0.00    +0.173 HD
ATOM     10  C   UNL     1      -2.739  -3.550  -0.587  0.00  0.00    +0.331 A 
ATOM     11  O   UNL     1      -1.926  -3.338  -1.466  0.00  0.00    -0.246 OA
BRANCH   4  12
ATOM     12  N   UNL     1      -5.964  -2.308   0.484  0.00  0.00    -0.343 N 
ATOM     13  H   UNL     1      -6.131  -1.631  -0.190  0.00  0.00    +0.144 HD
ATOM     14  H   UNL     1      -6.614  -2.463   1.188  0.00  0.00    +0.144 HD
ENDBRANCH   4  12
BRANCH   3  15
ATOM     15  C   UNL     1      -4.111  -1.787  -1.550  0.00  0.00    +0.128 C 
BRANCH  15  16
ATOM     16  C   UNL     1      -4.852  -2.397  -2.741  0.00  0.00    +0.021 C 
BRANCH  16  18
ATOM     17  C   UNL     1      -5.845  -1.926  -4.985  0.00  0.00    +0.004 C 
ATOM     18  C   UNL     1      -5.103  -1.316  -3.794  0.00  0.00    -0.002 C 
ENDBRANCH  16  18
ENDBRANCH  15  16
ENDBRANCH   3  15
ENDBRANCH   1   5
BRANCH   1  19
ATOM     19  C   UNL     1      -6.839  -4.800   2.061  0.00  0.00    +0.200 C 
BRANCH  19  20
ATOM     20  C   UNL     1      -6.833  -6.300   2.199  0.00  0.00    +0.231 C 
ATOM     21  O   UNL     1      -5.823  -6.873   2.546  0.00  0.00    -0.274 OA
ATOM     22  N   UNL     1      -7.951  -7.005   1.935  0.00  0.00    -0.307 N 
ATOM     23  H   UNL     1      -8.760  -6.547   1.657  0.00  0.00    +0.149 HD
BRANCH  22  24
ATOM     24  C   UNL     1      -7.946  -8.464   2.069  0.00  0.00    +0.102 C 
ATOM     25  C   UNL     1      -8.164  -8.843   3.535  0.00  0.00    +0.033 C 
BRANCH  24  26
ATOM     26  C   UNL     1      -9.051  -9.050   1.229  0.00  0.00    -0.009 A 
ATOM     27  C   UNL     1     -10.185  -8.305   0.963  0.00  0.00    +0.008 A 
ATOM     28  C   UNL     1     -11.200  -8.842   0.193  0.00  0.00    +0.020 A 
ATOM     29  C   UNL     1     -11.081 -10.125  -0.312  0.00  0.00    +0.042 A 
ATOM     30  C   UNL     1      -9.947 -10.870  -0.046  0.00  0.00    +0.040 A 
ATOM     31  C   UNL     1      -8.929 -10.331   0.721  0.00  0.00    +0.047 A 
ATOM     32 CL   UNL     1      -7.503 -11.264   1.051  0.00  0.00    -0.083 Cl
ATOM     33 CL   UNL     1     -12.356 -10.799  -1.279  0.00  0.00    -0.083 Cl
ENDBRANCH  24  26
ENDBRANCH  22  24
ENDBRANCH  19  20
ENDBRANCH   1  19
TORSDOF 9
