REMARK  Name = ZINC39695767
REMARK  7 active torsions:
REMARK  status: ('A' for Active; 'I' for Inactive)
REMARK    1  A    between atoms: C_1  and  C_2
REMARK    2  A    between atoms: C_10  and  C_12
REMARK    3  A    between atoms: C_12  and  C_13
REMARK    4  A    between atoms: C_12  and  N_14
REMARK    5  A    between atoms: C_15  and  C_17
REMARK    6  A    between atoms: C_27  and  C_29
REMARK    7  A    between atoms: C_29  and  C_35
REMARK                            x       y       z     vdW  Elec       q    Type
REMARK                         _______ _______ _______ _____ _____    ______ ____
ROOT
ATOM      1  C   UNL     1      -1.612  -8.804   0.995  0.00  0.00    +0.100 C 
ATOM      2  C   UNL     1      -2.900  -8.270   0.330  0.00  0.00    +0.121 C 
ATOM      3  N   UNL     1      -3.815  -9.436   0.297  0.00  0.00    -0.300 N 
ATOM      4  C   UNL     1      -3.589 -10.118   1.593  0.00  0.00    +0.115 C 
ATOM      5  C   UNL     1      -2.071 -10.015   1.825  0.00  0.00    -0.004 C 
ATOM      6  C   UNL     1      -1.779  -9.784   3.304  0.00  0.00    -0.010 C 
ATOM      7  C   UNL     1      -2.191 -11.025   4.101  0.00  0.00    -0.082 C 
ATOM      8  N   UNL     1      -1.448 -12.193   3.611  0.00  0.00    +0.379 N 
ATOM      9  C   UNL     1      -1.806 -12.464   2.214  0.00  0.00    -0.082 C 
ATOM     10  C   UNL     1      -1.377 -11.284   1.337  0.00  0.00    -0.010 C 
ATOM     11  C   UNL     1      -4.660  -9.794  -0.690  0.00  0.00    +0.222 C 
ATOM     12  O   UNL     1      -5.410 -10.735  -0.534  0.00  0.00    -0.275 OA
ATOM     13  H   UNL     1      -0.457 -12.010   3.674  0.00  0.00    -0.086 HD
ATOM     14  H   UNL     1      -1.675 -12.996   4.177  0.00  0.00    -0.086 HD
ENDROOT
BRANCH  11  15
ATOM     15  C   UNL     1      -4.675  -9.026  -1.986  0.00  0.00    +0.044 C 
ATOM     16  C   UNL     1      -4.913  -7.543  -1.698  0.00  0.00    +0.016 C 
ATOM     17  C   UNL     1      -6.258  -7.371  -0.989  0.00  0.00    +0.001 C 
ATOM     18  C   UNL     1      -7.379  -7.904  -1.885  0.00  0.00    +0.000 C 
ATOM     19  C   UNL     1      -7.140  -9.387  -2.173  0.00  0.00    +0.001 C 
ATOM     20  C   UNL     1      -5.795  -9.559  -2.882  0.00  0.00    +0.016 C 
ATOM     21  C   UNL     1      -3.330  -9.198  -2.695  0.00  0.00    +0.021 C 
ENDBRANCH  11  15
BRANCH   1  23
ATOM     22  N   UNL     1       0.291  -7.828   2.239  0.00  0.00    -0.305 N 
ATOM     23  C   UNL     1      -1.009  -7.753   1.891  0.00  0.00    +0.219 C 
ATOM     24  O   UNL     1      -1.694  -6.839   2.299  0.00  0.00    -0.275 OA
ATOM     25  H   UNL     1       0.839  -8.559   1.913  0.00  0.00    +0.149 HD
BRANCH  22  26
ATOM     26  C   UNL     1       0.876  -6.806   3.110  0.00  0.00    +0.136 C 
ATOM     27  C   UNL     1       0.615  -7.172   4.573  0.00  0.00    +0.036 C 
BRANCH  26  37
ATOM     28  C   UNL     1       8.101  -5.184   2.368  0.00  0.00    +0.044 C 
ATOM     29  C   UNL     1       6.787  -5.922   2.351  0.00  0.00    -0.048 A 
ATOM     30  C   UNL     1       6.741  -7.237   1.909  0.00  0.00    +0.005 A 
ATOM     31  C   UNL     1       5.560  -7.923   1.886  0.00  0.00    +0.030 A 
ATOM     32  C   UNL     1       4.384  -7.299   2.311  0.00  0.00    +0.089 A 
ATOM     33  C   UNL     1       4.430  -5.968   2.758  0.00  0.00    +0.067 A 
ATOM     34  C   UNL     1       5.641  -5.288   2.779  0.00  0.00    +0.031 A 
ATOM     35  N   UNL     1       3.135  -5.637   3.104  0.00  0.00    -0.340 N 
ATOM     36  H   UNL     1       2.833  -4.783   3.451  0.00  0.00    +0.167 HD
ATOM     37  C   UNL     1       2.362  -6.731   2.869  0.00  0.00    +0.128 A 
ATOM     38  N   UNL     1       3.091  -7.703   2.405  0.00  0.00    -0.231 NA
ENDBRANCH  26  37
ENDBRANCH  22  26
ENDBRANCH   1  23
TORSDOF 4
