REMARK  Name = ZINC02023053
REMARK  3 active torsions:
REMARK  status: ('A' for Active; 'I' for Inactive)
REMARK    1  A    between atoms: C_1  and  C_2
REMARK    2  A    between atoms: C_13  and  O_15
REMARK    3  A    between atoms: C_20  and  O_26
REMARK                            x       y       z     vdW  Elec       q    Type
REMARK                         _______ _______ _______ _____ _____    ______ ____
ROOT
ATOM      1  C   UNL     1       2.256  -1.330  -5.190  0.00  0.00    +0.014 C 
ATOM      2  C   UNL     1       1.574  -0.925  -3.882  0.00  0.00    -0.003 C 
ATOM      3  C   UNL     1       2.124   0.408  -3.433  0.00  0.00    +0.010 C 
ATOM      4  C   UNL     1       1.402   0.891  -2.179  0.00  0.00    +0.005 C 
ATOM      5  C   UNL     1      -0.092   1.056  -2.496  0.00  0.00    -0.000 C 
ATOM      6  C   UNL     1      -0.682  -0.285  -2.892  0.00  0.00    -0.003 C 
ATOM      7  C   UNL     1       0.052  -0.906  -4.088  0.00  0.00    +0.001 C 
ATOM      8  C   UNL     1      -0.316  -2.415  -4.089  0.00  0.00    +0.007 C 
ATOM      9  C   UNL     1       0.773  -3.125  -3.263  0.00  0.00    +0.032 C 
ATOM     10  C   UNL     1       1.782  -2.035  -2.834  0.00  0.00    +0.121 C 
ATOM     11  C   UNL     1      -2.155  -0.190  -3.280  0.00  0.00    +0.008 C 
ATOM     12  C   UNL     1      -2.900   0.882  -2.498  0.00  0.00    +0.031 C 
ATOM     13  C   UNL     1      -2.183   1.103  -1.164  0.00  0.00    -0.068 C 
ATOM     14  C   UNL     1      -2.774   0.864  -0.035  0.00  0.00    +0.003 C 
ATOM     15  C   UNL     1      -2.157   1.031   1.314  0.00  0.00    +0.137 C 
ATOM     16  C   UNL     1      -0.736   1.583   1.260  0.00  0.00    +0.036 C 
ATOM     17  C   UNL     1      -0.013   1.086   0.008  0.00  0.00    +0.011 C 
ATOM     18  C   UNL     1      -0.761   1.597  -1.226  0.00  0.00    +0.018 C 
ENDROOT
BRANCH  10  19
ATOM     19  O   UNL     1       1.478  -1.553  -1.524  0.00  0.00    -0.391 OA
ATOM     20  H   UNL     1       1.575  -2.222  -0.656  0.00  0.00    +0.210 HD
ENDBRANCH  10  19
BRANCH  15  21
ATOM     21  O   UNL     1      -2.129  -0.239   1.968  0.00  0.00    -0.388 OA
ATOM     22  H   UNL     1      -1.709  -0.328   2.980  0.00  0.00    +0.210 HD
ENDBRANCH  15  21
TORSDOF 2
