REMARK  Name = ZINC63515343
REMARK  9 active torsions:
REMARK  status: ('A' for Active; 'I' for Inactive)
REMARK    1  A    between atoms: C_1  and  C_2
REMARK    2  A    between atoms: C_2  and  C_3
REMARK    3  A    between atoms: C_8  and  C_14
REMARK    4  A    between atoms: C_9  and  C_13
REMARK    5  A    between atoms: C_14  and  C_15
REMARK    6  A    between atoms: C_15  and  N_16
REMARK    7  A    between atoms: C_22  and  O_27
REMARK    8  A    between atoms: O_27  and  C_28
REMARK    9  A    between atoms: C_32  and  N_34
REMARK                            x       y       z     vdW  Elec       q    Type
REMARK                         _______ _______ _______ _____ _____    ______ ____
ROOT
ATOM      1  N   UNL     1       5.545  -2.296  -5.587  0.00  0.00    -0.234 N 
ATOM      2  C   UNL     1       6.125  -1.497  -6.500  0.00  0.00    +0.254 C 
ATOM      3  O   UNL     1       5.913  -0.309  -6.638  0.00  0.00    -0.270 OA
ATOM      4  C   UNL     1       7.064  -2.304  -7.304  0.00  0.00    +0.050 A 
ATOM      5  C   UNL     1       7.918  -2.025  -8.362  0.00  0.00    +0.017 A 
ATOM      6  C   UNL     1       8.686  -3.036  -8.910  0.00  0.00    +0.047 A 
ATOM      7  C   UNL     1       8.607  -4.329  -8.409  0.00  0.00    +0.129 A 
ATOM      8  C   UNL     1       7.753  -4.621  -7.348  0.00  0.00    +0.060 A 
ATOM      9  C   UNL     1       6.982  -3.616  -6.793  0.00  0.00    +0.053 A 
ATOM     10  C   UNL     1       5.999  -3.559  -5.690  0.00  0.00    +0.254 C 
ATOM     11  O   UNL     1       5.657  -4.494  -4.995  0.00  0.00    -0.270 OA
ENDROOT
BRANCH   1  12
ATOM     12  C   UNL     1       4.553  -1.850  -4.606  0.00  0.00    +0.121 C 
BRANCH  12  13
ATOM     13  C   UNL     1       5.266  -1.389  -3.333  0.00  0.00    +0.053 C 
BRANCH  13  19
ATOM     14  C   UNL     1       0.862  -0.285  -1.196  0.00  0.00    -0.024 A 
ATOM     15  C   UNL     1       0.119  -0.662  -2.259  0.00  0.00    +0.005 A 
ATOM     16  C   UNL     1       0.684  -1.162  -3.440  0.00  0.00    +0.001 A 
ATOM     17  C   UNL     1       2.022  -1.298  -3.585  0.00  0.00    +0.010 A 
ATOM     18  C   UNL     1       2.902  -0.911  -2.476  0.00  0.00    -0.001 A 
ATOM     19  C   UNL     1       4.246  -0.930  -2.324  0.00  0.00    -0.037 C 
ATOM     20  C   UNL     1       4.517  -0.397  -0.934  0.00  0.00    +0.103 C 
ATOM     21  N   UNL     1       3.203  -0.091  -0.357  0.00  0.00    -0.378 N 
ATOM     22  C   UNL     1       2.280  -0.380  -1.242  0.00  0.00    +0.046 A 
ATOM     23  C   UNL     1       5.369   0.872  -1.014  0.00  0.00    +0.035 C 
ATOM     24  H   UNL     1       3.045   0.269   0.530  0.00  0.00    +0.160 HD
BRANCH  14  26
ATOM     25  C   UNL     1       0.141   1.772  -0.015  0.00  0.00    +0.009 C 
ATOM     26  C   UNL     1       0.186   0.244   0.042  0.00  0.00    +0.034 C 
ENDBRANCH  14  26
ENDBRANCH  13  19
ENDBRANCH  12  13
ENDBRANCH   1  12
BRANCH   7  27
ATOM     27  O   UNL     1       9.366  -5.312  -8.956  0.00  0.00    -0.456 OA
BRANCH  27  28
ATOM     28  C   UNL     1      10.713  -5.243  -8.794  0.00  0.00    +0.131 A 
ATOM     29  C   UNL     1      11.539  -6.149  -9.444  0.00  0.00    +0.046 A 
ATOM     30  C   UNL     1      12.908  -6.077  -9.278  0.00  0.00    +0.006 A 
ATOM     31  C   UNL     1      13.457  -5.103  -8.464  0.00  0.00    +0.033 A 
ATOM     32  C   UNL     1      12.636  -4.199  -7.814  0.00  0.00    +0.130 A 
ATOM     33  C   UNL     1      11.266  -4.263  -7.982  0.00  0.00    +0.079 A 
BRANCH  32  34
ATOM     34  N   UNL     1      13.226  -3.158  -6.943  0.00  0.00    +0.057 N 
ATOM     35  O   UNL     1      14.425  -3.098  -6.800  0.00  0.00    -0.126 OA
ATOM     36  O   UNL     1      12.510  -2.368  -6.375  0.00  0.00    -0.126 OA
ENDBRANCH  32  34
ENDBRANCH  27  28
ENDBRANCH   7  27
TORSDOF 7
