REMARK  Name = ZINC24276208
REMARK  11 active torsions:
REMARK  status: ('A' for Active; 'I' for Inactive)
REMARK    1  A    between atoms: C_1  and  C_2
REMARK    2  A    between atoms: C_2  and  N_3
REMARK    3  A    between atoms: N_3  and  C_4
REMARK    4  A    between atoms: N_3  and  S_6
REMARK    5  A    between atoms: C_4  and  C_5
REMARK    6  A    between atoms: S_6  and  C_9
REMARK    7  A    between atoms: C_12  and  C_15
REMARK    8  A    between atoms: C_16  and  C_17
REMARK    9  A    between atoms: N_19  and  C_20
REMARK   10  A    between atoms: N_23  and  C_26
REMARK   11  A    between atoms: C_26  and  C_27
REMARK                            x       y       z     vdW  Elec       q    Type
REMARK                         _______ _______ _______ _____ _____    ______ ____
ROOT
ATOM      1  C   UNL     1      -3.673   4.682   6.616  0.00  0.00    +0.237 C 
ATOM      2  O   UNL     1      -4.482   3.919   7.109  0.00  0.00    -0.271 OA
ATOM      3  N   UNL     1      -3.472   5.897   7.163  0.00  0.00    -0.309 N 
ATOM      4  H   UNL     1      -2.741   6.587   6.717  0.00  0.00    +0.149 HD
ENDROOT
BRANCH   3   5
ATOM      5  C   UNL     1      -4.229   6.299   8.351  0.00  0.00    +0.070 C 
ATOM      6  C   UNL     1      -5.578   6.884   7.925  0.00  0.00    +0.004 C 
ATOM      7  C   UNL     1      -6.338   7.358   9.166  0.00  0.00    -0.077 C 
ATOM      8  N   UNL     1      -5.545   8.374   9.869  0.00  0.00    +0.382 N 
ATOM      9  C   UNL     1      -4.264   7.822  10.330  0.00  0.00    -0.077 C 
ATOM     10  C   UNL     1      -3.442   7.362   9.123  0.00  0.00    +0.004 C 
ATOM     11  H   UNL     1      -5.324   9.181   9.155  0.00  0.00    -0.081 HD
BRANCH   8  12
ATOM     12  C   UNL     1      -6.301   8.952  10.988  0.00  0.00    -0.043 C 
BRANCH  12  13
ATOM     13  C   UNL     1      -7.482   9.719  10.452  0.00  0.00    -0.064 A 
ATOM     14  C   UNL     1      -7.355  11.063  10.153  0.00  0.00    +0.003 A 
ATOM     15  C   UNL     1      -8.436  11.767   9.657  0.00  0.00    +0.020 A 
ATOM     16  C   UNL     1      -9.649  11.128   9.469  0.00  0.00    +0.041 A 
ATOM     17  C   UNL     1      -9.777   9.785   9.773  0.00  0.00    +0.020 A 
ATOM     18  C   UNL     1      -8.694   9.081  10.265  0.00  0.00    +0.003 A 
ATOM     19 CL   UNL     1     -11.009  12.012   8.851  0.00  0.00    -0.084 Cl
ENDBRANCH  12  13
ENDBRANCH   8  12
ENDBRANCH   3   5
BRANCH   1  21
ATOM     20  C   UNL     1      -3.117   3.064   4.881  0.00  0.00    +0.013 C 
ATOM     21  C   UNL     1      -2.917   4.280   5.428  0.00  0.00    +0.068 C 
BRANCH  20  25
ATOM     22  C   UNL     1      -0.927   1.900   1.439  0.00  0.00    +0.106 A 
ATOM     23  C   UNL     1      -0.714   3.147   2.002  0.00  0.00    +0.029 A 
ATOM     24  C   UNL     1      -1.426   3.535   3.117  0.00  0.00    +0.010 A 
ATOM     25  C   UNL     1      -2.357   2.660   3.687  0.00  0.00    -0.025 A 
ATOM     26  C   UNL     1      -2.562   1.400   3.116  0.00  0.00    +0.010 A 
ATOM     27  C   UNL     1      -1.846   1.029   1.998  0.00  0.00    +0.029 A 
BRANCH  22  28
ATOM     28  S   UNL     1      -0.017   1.417   0.010  0.00  0.00    +0.061 S 
ATOM     29  O   UNL     1       0.002  -0.004   0.002  0.00  0.00    -0.153 OA
ATOM     30  O   UNL     1       1.172   2.195   0.003  0.00  0.00    -0.153 OA
BRANCH  28  31
ATOM     31  N   UNL     1      -0.897   1.885  -1.312  0.00  0.00    -0.177 NA
BRANCH  31  33
ATOM     32  C   UNL     1       0.306   3.112  -3.053  0.00  0.00    +0.022 C 
ATOM     33  C   UNL     1      -0.691   3.213  -1.897  0.00  0.00    +0.106 C 
ENDBRANCH  31  33
BRANCH  31  34
ATOM     34  C   UNL     1      -1.883   0.973  -1.897  0.00  0.00    +0.106 C 
ATOM     35  C   UNL     1      -3.267   1.280  -1.323  0.00  0.00    +0.022 C 
ENDBRANCH  31  34
ENDBRANCH  28  31
ENDBRANCH  22  28
ENDBRANCH  20  25
ENDBRANCH   1  21
TORSDOF 9
