REMARK  Name = ZINC38799191
REMARK  4 active torsions:
REMARK  status: ('A' for Active; 'I' for Inactive)
REMARK    1  A    between atoms: C_4  and  C_7
REMARK    2  A    between atoms: C_18  and  C_20
REMARK    3  A    between atoms: C_20  and  C_22
REMARK    4  A    between atoms: C_23  and  C_24
REMARK                            x       y       z     vdW  Elec       q    Type
REMARK                         _______ _______ _______ _____ _____    ______ ____
ROOT
ATOM      1  C   UNL     1       3.691  -0.679  -0.038  0.00  0.00    -0.016 C 
ATOM      2  C   UNL     1       4.561  -0.607   1.007  0.00  0.00    -0.017 C 
ATOM      3  C   UNL     1       4.239   0.156   2.143  0.00  0.00    +0.026 C 
ATOM      4  C   UNL     1       5.002   0.088   3.259  0.00  0.00    +0.041 C 
ATOM      5  C   UNL     1       6.171  -0.788   3.291  0.00  0.00    +0.018 C 
ATOM      6  C   UNL     1       6.562  -1.454   2.214  0.00  0.00    +0.001 C 
ATOM      7  C   UNL     1       5.857  -1.365   0.899  0.00  0.00    +0.127 C 
ATOM      8  N   UNL     1       5.576  -2.707   0.371  0.00  0.00    -0.304 N 
ATOM      9  C   UNL     1       4.716  -2.809  -0.676  0.00  0.00    +0.229 C 
ATOM     10  O   UNL     1       4.441  -3.888  -1.158  0.00  0.00    -0.275 OA
ATOM     11  C   UNL     1       4.109  -1.536  -1.218  0.00  0.00    +0.176 C 
ATOM     12 CL   UNL     1       4.592   1.042   4.650  0.00  0.00    -0.084 Cl
ATOM     13  H   UNL     1       5.990  -3.495   0.758  0.00  0.00    +0.150 HD
ENDROOT
BRANCH   1  17
ATOM     14  C   UNL     1      -0.017   1.380   0.010  0.00  0.00    +0.000 A 
ATOM     15  C   UNL     1       1.168   2.095   0.002  0.00  0.00    +0.001 A 
ATOM     16  C   UNL     1       2.377   1.433  -0.013  0.00  0.00    +0.008 A 
ATOM     17  C   UNL     1       2.405   0.035  -0.021  0.00  0.00    -0.020 A 
ATOM     18  C   UNL     1       1.203  -0.681  -0.013  0.00  0.00    +0.008 A 
ATOM     19  C   UNL     1       0.002  -0.004   0.002  0.00  0.00    +0.001 A 
ENDBRANCH   1  17
BRANCH  11  20
ATOM     20  C   UNL     1       5.131  -0.801  -2.047  0.00  0.00    +0.172 C 
ATOM     21  O   UNL     1       5.883  -0.009  -1.520  0.00  0.00    -0.292 OA
BRANCH  20  22
ATOM     22  C   UNL     1       5.215  -1.043  -3.487  0.00  0.00    +0.044 C 
ATOM     23  C   UNL     1       6.120  -0.392  -4.221  0.00  0.00    -0.007 C 
BRANCH  23  24
ATOM     24  C   UNL     1       6.207  -0.641  -5.705  0.00  0.00    +0.121 C 
ATOM     25  C   UNL     1       7.565  -1.250  -5.996  0.00  0.00    -0.001 C 
ATOM     26  C   UNL     1       8.370  -0.589  -6.875  0.00  0.00    -0.007 A 
ATOM     27  C   UNL     1       9.697  -1.106  -7.212  0.00  0.00    +0.009 A 
ATOM     28  C   UNL     1      10.465  -0.414  -8.092  0.00  0.00    +0.001 A 
ATOM     29  C   UNL     1      10.015   0.771  -8.675  0.00  0.00    +0.002 A 
ATOM     30  C   UNL     1       8.794   1.303  -8.404  0.00  0.00    +0.024 A 
ATOM     31  C   UNL     1       7.920   0.664  -7.505  0.00  0.00    +0.040 A 
ATOM     32  N   UNL     1       6.725   1.195  -7.247  0.00  0.00    -0.284 N 
ATOM     33  C   UNL     1       5.858   0.648  -6.413  0.00  0.00    +0.228 C 
ATOM     34  O   UNL     1       4.781   1.180  -6.217  0.00  0.00    -0.274 OA
ATOM     35  H   UNL     1       6.481   2.022  -7.692  0.00  0.00    +0.155 HD
ENDBRANCH  23  24
ENDBRANCH  20  22
ENDBRANCH  11  20
TORSDOF 4
