REMARK  Name = ZINC13498784
REMARK  9 active torsions:
REMARK  status: ('A' for Active; 'I' for Inactive)
REMARK    1  A    between atoms: C_1  and  C_2
REMARK    2  A    between atoms: C_2  and  C_3
REMARK    3  A    between atoms: C_2  and  C_4
REMARK    4  A    between atoms: C_4  and  C_6
REMARK    5  A    between atoms: C_4  and  N_72
REMARK    6  A    between atoms: N_10  and  C_11
REMARK    7  A    between atoms: C_16  and  C_17
REMARK    8  A    between atoms: C_16  and  N_72
REMARK    9  A    between atoms: C_33  and  N_72
REMARK                            x       y       z     vdW  Elec       q    Type
REMARK                         _______ _______ _______ _____ _____    ______ ____
ROOT
ATOM      1  N   UNL     1       0.939  -2.588  -1.271  0.00  0.00    +0.391 N 
ATOM      2  H   UNL     1       0.321  -1.991  -1.834  0.00  0.00    -0.080 HD
ENDROOT
BRANCH   1   3
ATOM      3  C   UNL     1       2.339  -2.164  -1.484  0.00  0.00    -0.067 C 
ATOM      4  C   UNL     1       2.706  -2.325  -2.974  0.00  0.00    -0.015 C 
ATOM      5  C   UNL     1       4.187  -2.778  -2.952  0.00  0.00    -0.002 C 
ATOM      6  C   UNL     1       4.238  -3.725  -1.728  0.00  0.00    -0.002 C 
ATOM      7  C   UNL     1       3.313  -3.054  -0.692  0.00  0.00    -0.015 C 
ENDBRANCH   1   3
BRANCH   1   8
ATOM      8  C   UNL     1       0.767  -3.993  -1.696  0.00  0.00    +0.006 C 
BRANCH   8   9
ATOM      9  C   UNL     1       1.162  -4.931  -0.585  0.00  0.00    +0.139 A 
ATOM     10  N   UNL     1       0.997  -4.735   0.701  0.00  0.00    -0.115 NA
ATOM     11  N   UNL     1       1.461  -5.764   1.323  0.00  0.00    -0.023 NA
ATOM     12  N   UNL     1       1.925  -6.607   0.468  0.00  0.00    -0.044 NA
ATOM     13  N   UNL     1       1.760  -6.129  -0.719  0.00  0.00    -0.228 N 
BRANCH  13  14
ATOM     14  C   UNL     1       2.150  -6.771  -1.977  0.00  0.00    +0.111 C 
ATOM     15  C   UNL     1       1.464  -8.147  -2.103  0.00  0.00    +0.027 C 
ATOM     16  C   UNL     1       2.533  -9.044  -2.776  0.00  0.00    +0.002 C 
ATOM     17  C   UNL     1       3.849  -8.558  -2.120  0.00  0.00    +0.002 C 
ATOM     18  C   UNL     1       3.666  -7.032  -1.988  0.00  0.00    +0.027 C 
ENDBRANCH  13  14
ENDBRANCH   8   9
BRANCH   8  20
ATOM     19  C   UNL     1      -1.085  -3.318  -3.231  0.00  0.00    +0.006 C 
ATOM     20  C   UNL     1      -0.704  -4.218  -2.054  0.00  0.00    -0.024 C 
ATOM     21  C   UNL     1      -0.915  -5.683  -2.442  0.00  0.00    +0.006 C 
ENDBRANCH   8  20
ENDBRANCH   1   8
BRANCH   1  22
ATOM     22  C   UNL     1       0.578  -2.443   0.155  0.00  0.00    -0.036 C 
BRANCH  22  23
ATOM     23  C   UNL     1       0.279  -0.992   0.432  0.00  0.00    +0.001 A 
ATOM     24  C   UNL     1      -0.997  -0.538   0.351  0.00  0.00    +0.017 A 
ATOM     25  C   UNL     1      -1.255   0.875   0.626  0.00  0.00    +0.002 A 
ATOM     26  C   UNL     1      -2.552   1.398   0.564  0.00  0.00    +0.059 A 
ATOM     27  C   UNL     1      -2.764   2.736   0.823  0.00  0.00    +0.163 A 
ATOM     28  C   UNL     1      -1.691   3.567   1.159  0.00  0.00    +0.164 A 
ATOM     29  C   UNL     1      -0.406   3.057   1.229  0.00  0.00    +0.075 A 
ATOM     30  C   UNL     1      -0.175   1.713   0.965  0.00  0.00    +0.053 A 
ATOM     31  N   UNL     1       1.100   1.188   1.029  0.00  0.00    -0.322 N 
ATOM     32  H   UNL     1       1.843   1.766   1.262  0.00  0.00    +0.169 HD
ATOM     33  C   UNL     1       1.326  -0.113   0.775  0.00  0.00    +0.251 A 
ATOM     34  O   UNL     1       2.465  -0.542   0.842  0.00  0.00    -0.268 OA
ATOM     35  O   UNL     1      -1.893   4.885   1.426  0.00  0.00    -0.485 OA
ATOM     36  C   UNL     1      -3.133   5.449   0.985  0.00  0.00    +0.270 C 
ATOM     37  C   UNL     1      -4.265   4.494   1.383  0.00  0.00    +0.270 C 
ATOM     38  O   UNL     1      -4.031   3.232   0.749  0.00  0.00    -0.485 OA
ENDBRANCH  22  23
ENDBRANCH   1  22
TORSDOF 7
