REMARK  Name = ZINC17175466
REMARK  7 active torsions:
REMARK  status: ('A' for Active; 'I' for Inactive)
REMARK    1  A    between atoms: C_1  and  S_2
REMARK    2  A    between atoms: S_2  and  C_3
REMARK    3  A    between atoms: C_5  and  N_11
REMARK    4  A    between atoms: N_11  and  C_12
REMARK    5  A    between atoms: C_14  and  O_24
REMARK    6  A    between atoms: C_16  and  O_23
REMARK    7  A    between atoms: C_18  and  O_22
REMARK                            x       y       z     vdW  Elec       q    Type
REMARK                         _______ _______ _______ _____ _____    ______ ____
ROOT
ATOM      1  N   UNL     1       2.766   3.659   0.133  0.00  0.00    -0.301 N 
ATOM      2  H   UNL     1       3.547   3.091   0.658  0.00  0.00    +0.150 HD
ENDROOT
BRANCH   1   5
ATOM      3  C   UNL     1       2.422   6.749  -1.740  0.00  0.00    +0.171 A 
ATOM      4  N   UNL     1       2.110   5.566  -1.140  0.00  0.00    -0.207 NA
ATOM      5  C   UNL     1       3.076   4.853  -0.479  0.00  0.00    +0.147 A 
ATOM      6  C   UNL     1       4.351   5.340  -0.440  0.00  0.00    +0.145 A 
ATOM      7  C   UNL     1       4.631   6.565  -1.078  0.00  0.00    +0.272 A 
ATOM      8  O   UNL     1       5.765   7.023  -1.057  0.00  0.00    -0.266 OA
ATOM      9  N   UNL     1       3.648   7.227  -1.708  0.00  0.00    -0.301 N 
ATOM     10 CL   UNL     1       5.606   4.465   0.381  0.00  0.00    -0.074 Cl
ATOM     11  H   UNL     1       3.879   8.182  -2.202  0.00  0.00    +0.171 HD
BRANCH   3  13
ATOM     12  C   UNL     1       2.126   9.071  -3.157  0.00  0.00    +0.093 C 
ATOM     13  S   UNL     1       1.163   7.652  -2.579  0.00  0.00    -0.091 S 
ENDBRANCH   3  13
ENDBRANCH   1   5
BRANCH   1  14
ATOM     14  C   UNL     1       1.394   3.146   0.085  0.00  0.00    +0.236 C 
ATOM     15  C   UNL     1       1.424   1.618  -0.003  0.00  0.00    +0.192 C 
ATOM     16  C   UNL     1      -0.013   1.086   0.008  0.00  0.00    +0.178 C 
ATOM     17  C   UNL     1      -0.720   1.582   1.273  0.00  0.00    +0.171 C 
ATOM     18  C   UNL     1      -0.666   3.111   1.312  0.00  0.00    +0.196 C 
ATOM     19  O   UNL     1       0.696   3.540   1.268  0.00  0.00    -0.354 OA
BRANCH  17  20
ATOM     20  O   UNL     1      -2.082   1.152   1.258  0.00  0.00    -0.387 OA
ATOM     21  H   UNL     1      -2.751   1.415   2.091  0.00  0.00    +0.210 HD
ENDBRANCH  17  20
BRANCH  16  22
ATOM     22  O   UNL     1      -0.707   1.561  -1.147  0.00  0.00    -0.386 OA
ATOM     23  H   UNL     1      -1.758   1.280  -1.311  0.00  0.00    +0.210 HD
ENDBRANCH  16  22
BRANCH  15  24
ATOM     24  O   UNL     1       2.138   1.087   1.116  0.00  0.00    -0.385 OA
ATOM     25  H   UNL     1       2.263  -0.000   1.223  0.00  0.00    +0.210 HD
ENDBRANCH  15  24
ENDBRANCH   1  14
TORSDOF 6
