REMARK  Name = ZINC35747426
REMARK  13 active torsions:
REMARK  status: ('A' for Active; 'I' for Inactive)
REMARK    1  A    between atoms: C_1  and  O_2
REMARK    2  A    between atoms: O_2  and  C_3
REMARK    3  A    between atoms: C_3  and  C_4
REMARK    4  A    between atoms: C_4  and  C_6
REMARK    5  A    between atoms: C_4  and  O_34
REMARK    6  A    between atoms: C_6  and  N_7
REMARK    7  A    between atoms: N_7  and  C_8
REMARK    8  A    between atoms: N_7  and  C_14
REMARK    9  A    between atoms: C_8  and  C_9
REMARK   10  A    between atoms: C_14  and  C_15
REMARK   11  A    between atoms: C_21  and  C_26
REMARK   12  A    between atoms: C_29  and  O_32
REMARK   13  A    between atoms: O_32  and  C_33
REMARK                            x       y       z     vdW  Elec       q    Type
REMARK                         _______ _______ _______ _____ _____    ______ ____
ROOT
ATOM      1  C   UNL     1       2.202  -6.619   2.202  0.00  0.00    +0.094 A 
ATOM      2  N   UNL     1       2.880  -7.551   2.920  0.00  0.00    -0.312 N 
ATOM      3  H   UNL     1       3.437  -7.266   3.662  0.00  0.00    +0.170 HD
ATOM      4  C   UNL     1       2.796  -8.861   2.623  0.00  0.00    +0.260 A 
ATOM      5  O   UNL     1       3.410  -9.685   3.278  0.00  0.00    -0.267 OA
ATOM      6  C   UNL     1       1.972  -9.272   1.527  0.00  0.00    +0.080 A 
ATOM      7  C   UNL     1       1.719 -10.613   1.014  0.00  0.00    +0.004 A 
ATOM      8  C   UNL     1       0.892 -10.760  -0.048  0.00  0.00    +0.056 A 
ATOM      9  S   UNL     1       0.401  -9.088  -0.423  0.00  0.00    -0.076 S 
ATOM     10  C   UNL     1       1.309  -8.239   0.843  0.00  0.00    +0.116 A 
ATOM     11  N   UNL     1       1.438  -6.964   1.200  0.00  0.00    -0.229 NA
ENDROOT
BRANCH   7  12
ATOM     12  C   UNL     1       2.357 -11.794   1.644  0.00  0.00    -0.016 A 
ATOM     13  C   UNL     1       3.730 -11.802   1.885  0.00  0.00    +0.012 A 
ATOM     14  C   UNL     1       4.320 -12.902   2.471  0.00  0.00    +0.046 A 
ATOM     15  C   UNL     1       3.547 -14.001   2.822  0.00  0.00    +0.120 A 
ATOM     16  C   UNL     1       2.180 -13.997   2.583  0.00  0.00    +0.046 A 
ATOM     17  C   UNL     1       1.583 -12.898   2.002  0.00  0.00    +0.012 A 
BRANCH  15  18
ATOM     18  O   UNL     1       4.132 -15.084   3.399  0.00  0.00    -0.495 OA
ATOM     19  C   UNL     1       3.278 -16.180   3.735  0.00  0.00    +0.277 C 
ENDBRANCH  15  18
ENDBRANCH   7  12
BRANCH   1  20
ATOM     20  C   UNL     1       2.326  -5.164   2.572  0.00  0.00    -0.003 C 
BRANCH  20  21
ATOM     21  N   UNL     1       1.502  -4.355   1.664  0.00  0.00    +0.391 N 
ATOM     22  H   UNL     1       1.763  -4.551   0.709  0.00  0.00    -0.080 HD
BRANCH  21  23
ATOM     23  C   UNL     1       1.716  -2.930   1.947  0.00  0.00    -0.044 C 
BRANCH  23  24
ATOM     24  C   UNL     1       3.158  -2.552   1.602  0.00  0.00    +0.124 C 
BRANCH  24  25
ATOM     25  O   UNL     1       3.388  -2.769   0.209  0.00  0.00    -0.391 OA
ATOM     26  H   UNL     1       2.860  -2.202  -0.370  0.00  0.00    +0.210 HD
ENDBRANCH  24  25
BRANCH  24  27
ATOM     27  C   UNL     1       3.392  -1.077   1.934  0.00  0.00    +0.188 C 
BRANCH  27  29
ATOM     28  C   UNL     1       5.095   0.609   2.005  0.00  0.00    +0.194 C 
ATOM     29  O   UNL     1       4.768  -0.754   1.723  0.00  0.00    -0.381 OA
ENDBRANCH  27  29
ENDBRANCH  24  27
ENDBRANCH  23  24
ENDBRANCH  21  23
BRANCH  21  30
ATOM     30  C   UNL     1       0.085  -4.687   1.862  0.00  0.00    -0.002 C 
BRANCH  30  31
ATOM     31  C   UNL     1      -0.749  -3.966   0.834  0.00  0.00    +0.089 A 
ATOM     32  C   UNL     1      -0.993  -4.391  -0.418  0.00  0.00    +0.042 A 
ATOM     33  C   UNL     1      -1.813  -3.414  -1.029  0.00  0.00    +0.041 A 
ATOM     34  C   UNL     1      -2.020  -2.451  -0.113  0.00  0.00    +0.195 A 
ATOM     35  O   UNL     1      -1.378  -2.793   1.016  0.00  0.00    -0.470 OA
ENDBRANCH  30  31
ENDBRANCH  21  30
ENDBRANCH  20  21
ENDBRANCH   1  20
TORSDOF 11
