REMARK  Name = ZINC64612913
REMARK  6 active torsions:
REMARK  status: ('A' for Active; 'I' for Inactive)
REMARK    1  A    between atoms: C_1  and  C_2
REMARK    2  A    between atoms: C_6  and  N_8
REMARK    3  A    between atoms: N_8  and  S_9
REMARK    4  A    between atoms: S_9  and  C_12
REMARK    5  A    between atoms: C_15  and  C_17
REMARK    6  A    between atoms: C_21  and  C_24
REMARK                            x       y       z     vdW  Elec       q    Type
REMARK                         _______ _______ _______ _____ _____    ______ ____
ROOT
ATOM      1  C   UNL     1       0.088  -4.986   4.057  0.00  0.00    +0.111 C 
ATOM      2  C   UNL     1       1.119  -5.471   4.741  0.00  0.00    +0.135 C 
ATOM      3  N   UNL     1       0.788  -5.786   6.015  0.00  0.00    -0.258 NA
ATOM      4  C   UNL     1      -0.449  -5.551   6.297  0.00  0.00    +0.069 C 
ATOM      5  C   UNL     1      -1.071  -4.983   5.037  0.00  0.00    +0.113 C 
ENDROOT
BRANCH   4   6
ATOM      6  C   UNL     1      -1.136  -5.787   7.618  0.00  0.00    +0.248 C 
ATOM      7  N   UNL     1      -0.472  -6.888   8.365  0.00  0.00    -0.222 NA
ATOM      8  N   UNL     1      -1.527  -7.388   9.254  0.00  0.00    -0.223 NA
ATOM      9  C   UNL     1      -2.805  -6.986   8.630  0.00  0.00    +0.233 C 
ATOM     10  O   UNL     1      -2.477  -6.286   7.413  0.00  0.00    -0.332 OA
ATOM     11  H   UNL     1      -0.154  -7.611   7.738  0.00  0.00    +0.144 HD
ATOM     12  H   UNL     1      -1.437  -6.996  10.179  0.00  0.00    +0.144 HD
BRANCH   9  13
ATOM     13  C   UNL     1      -3.632  -8.206   8.318  0.00  0.00    -0.003 A 
ATOM     14  C   UNL     1      -3.011  -9.406   8.027  0.00  0.00    +0.007 A 
ATOM     15  C   UNL     1      -3.771 -10.526   7.741  0.00  0.00    +0.000 A 
ATOM     16  C   UNL     1      -5.151 -10.445   7.747  0.00  0.00    +0.000 A 
ATOM     17  C   UNL     1      -5.771  -9.245   8.038  0.00  0.00    +0.000 A 
ATOM     18  C   UNL     1      -5.012  -8.126   8.328  0.00  0.00    +0.007 A 
ENDBRANCH   9  13
ENDBRANCH   4   6
BRANCH   1  19
ATOM     19  S   UNL     1       0.073  -4.452   2.378  0.00  0.00    +0.090 S 
ATOM     20  O   UNL     1      -1.169  -4.871   1.830  0.00  0.00    -0.149 OA
ATOM     21  O   UNL     1       1.321  -4.838   1.818  0.00  0.00    -0.149 OA
BRANCH  19  22
ATOM     22  N   UNL     1       0.051  -2.796   2.390  0.00  0.00    -0.098 NA
BRANCH  22  28
ATOM     23  C   UNL     1      -0.018   1.503   0.010  0.00  0.00    +0.044 C 
ATOM     24  C   UNL     1       0.002  -0.004   0.002  0.00  0.00    -0.049 A 
ATOM     25  C   UNL     1       0.006  -0.688  -1.200  0.00  0.00    +0.003 A 
ATOM     26  C   UNL     1       0.024  -2.071  -1.212  0.00  0.00    +0.002 A 
ATOM     27  C   UNL     1       0.039  -2.773  -0.023  0.00  0.00    +0.027 A 
ATOM     28  C   UNL     1       0.036  -2.089   1.186  0.00  0.00    +0.075 A 
ATOM     29  C   UNL     1       0.023  -0.700   1.194  0.00  0.00    +0.030 A 
ENDBRANCH  22  28
ENDBRANCH  19  22
ENDBRANCH   1  19
TORSDOF 5
