REMARK  Name = ZINC62497139
REMARK  4 active torsions:
REMARK  status: ('A' for Active; 'I' for Inactive)
REMARK    1  A    between atoms: C_1  and  N_2
REMARK    2  A    between atoms: C_5  and  O_22
REMARK    3  A    between atoms: C_10  and  C_14
REMARK    4  A    between atoms: C_14  and  C_15
REMARK                            x       y       z     vdW  Elec       q    Type
REMARK                         _______ _______ _______ _____ _____    ______ ____
ROOT
ATOM      1  C   UNL     1      -0.018   1.461   0.010  0.00  0.00    +0.138 C 
ATOM      2  N   UNL     1       0.002  -0.004   0.002  0.00  0.00    -0.268 N 
ATOM      3  C   UNL     1      -1.197  -0.729   0.004  0.00  0.00    +0.082 A 
ATOM      4  C   UNL     1      -2.406  -0.090  -0.216  0.00  0.00    +0.072 A 
ATOM      5  C   UNL     1      -3.583  -0.823  -0.224  0.00  0.00    +0.119 A 
ATOM      6  C   UNL     1      -3.549  -2.194  -0.014  0.00  0.00    +0.049 A 
ATOM      7  C   UNL     1      -2.344  -2.833   0.210  0.00  0.00    +0.051 A 
ATOM      8  C   UNL     1      -1.167  -2.104   0.226  0.00  0.00    +0.143 A 
ATOM      9  O   UNL     1       0.021  -2.720   0.477  0.00  0.00    -0.477 OA
ATOM     10  C   UNL     1       1.181  -2.172  -0.152  0.00  0.00    +0.263 C 
ATOM     11  C   UNL     1       1.175  -0.671  -0.013  0.00  0.00    +0.261 C 
ATOM     12  O   UNL     1       2.221  -0.065   0.090  0.00  0.00    -0.271 OA
ENDROOT
BRANCH   5  13
ATOM     13  O   UNL     1      -4.772  -0.199  -0.438  0.00  0.00    -0.507 OA
ATOM     14  H   UNL     1      -5.028  -0.148  -1.369  0.00  0.00    +0.292 HD
ENDBRANCH   5  13
BRANCH  10  15
ATOM     15  C   UNL     1       1.178  -2.539  -1.637  0.00  0.00    +0.089 C 
BRANCH  15  16
ATOM     16  C   UNL     1       1.312  -4.033  -1.785  0.00  0.00    -0.043 A 
ATOM     17  C   UNL     1       2.565  -4.608  -1.878  0.00  0.00    +0.005 A 
ATOM     18  C   UNL     1       2.689  -5.978  -2.014  0.00  0.00    +0.020 A 
ATOM     19  C   UNL     1       1.558  -6.774  -2.057  0.00  0.00    +0.041 A 
ATOM     20  C   UNL     1       0.304  -6.197  -1.965  0.00  0.00    +0.020 A 
ATOM     21  C   UNL     1       0.181  -4.828  -1.823  0.00  0.00    +0.005 A 
ATOM     22 CL   UNL     1       1.712  -8.494  -2.228  0.00  0.00    -0.084 Cl
ENDBRANCH  15  16
ENDBRANCH  10  15
TORSDOF 3
