REMARK  Name = ZINC32939833
REMARK  7 active torsions:
REMARK  status: ('A' for Active; 'I' for Inactive)
REMARK    1  A    between atoms: C_4  and  C_7
REMARK    2  A    between atoms: C_7  and  C_9
REMARK    3  A    between atoms: C_7  and  C_23
REMARK    4  A    between atoms: C_9  and  N_10
REMARK    5  A    between atoms: C_11  and  C_13
REMARK    6  A    between atoms: N_16  and  S_19
REMARK    7  A    between atoms: S_19  and  N_22
REMARK                            x       y       z     vdW  Elec       q    Type
REMARK                         _______ _______ _______ _____ _____    ______ ____
ROOT
ATOM      1  C   UNL     1      -0.013   1.086   0.008  0.00  0.00    +0.068 C 
ENDROOT
BRANCH   1   2
ATOM      2  C   UNL     1      -0.718   1.572   1.248  0.00  0.00    -0.013 A 
ATOM      3  C   UNL     1      -0.929   2.851   1.597  0.00  0.00    +0.088 A 
ATOM      4  N   UNL     1      -1.602   2.905   2.787  0.00  0.00    -0.360 N 
ATOM      5  H   UNL     1      -1.862   3.878   3.228  0.00  0.00    +0.165 HD
ATOM      6  C   UNL     1      -1.847   1.629   3.244  0.00  0.00    +0.047 A 
ATOM      7  C   UNL     1      -1.309   0.738   2.298  0.00  0.00    +0.003 A 
ATOM      8  C   UNL     1      -1.415  -0.639   2.498  0.00  0.00    +0.010 A 
ATOM      9  C   UNL     1      -2.045  -1.116   3.613  0.00  0.00    +0.001 A 
ATOM     10  C   UNL     1      -2.580  -0.241   4.549  0.00  0.00    +0.002 A 
ATOM     11  C   UNL     1      -2.480   1.122   4.374  0.00  0.00    +0.026 A 
ENDBRANCH   1   2
BRANCH   1  15
ATOM     12  C   UNL     1       3.995   2.564  -0.023  0.00  0.00    +0.000 A 
ATOM     13  C   UNL     1       3.761   1.202  -0.027  0.00  0.00    +0.000 A 
ATOM     14  C   UNL     1       2.464   0.724  -0.018  0.00  0.00    +0.004 A 
ATOM     15  C   UNL     1       1.401   1.607  -0.003  0.00  0.00    -0.038 A 
ATOM     16  C   UNL     1       1.635   2.970  -0.003  0.00  0.00    +0.004 A 
ATOM     17  C   UNL     1       2.932   3.448  -0.009  0.00  0.00    +0.000 A 
ENDBRANCH   1  15
BRANCH   1  18
ATOM     18  C   UNL     1      -0.753   1.593  -1.232  0.00  0.00    +0.117 C 
BRANCH  18  19
ATOM     19  N   UNL     1      -0.139   1.023  -2.434  0.00  0.00    -0.314 N 
ATOM     20  C   UNL     1      -0.628   1.332  -3.651  0.00  0.00    +0.216 C 
ATOM     21  O   UNL     1      -1.577   2.081  -3.751  0.00  0.00    -0.276 OA
ATOM     22  H   UNL     1       0.722   0.344  -2.343  0.00  0.00    +0.149 HD
BRANCH  20  23
ATOM     23  C   UNL     1       0.004   0.746  -4.888  0.00  0.00    +0.077 C 
ATOM     24  C   UNL     1       1.472   1.170  -4.959  0.00  0.00    +0.030 C 
ATOM     25  C   UNL     1       2.120   0.545  -6.199  0.00  0.00    +0.111 C 
ATOM     26  N   UNL     1       1.328   0.910  -7.381  0.00  0.00    -0.167 NA
ATOM     27  C   UNL     1      -0.114   0.629  -7.380  0.00  0.00    +0.111 C 
ATOM     28  C   UNL     1      -0.737   1.254  -6.127  0.00  0.00    +0.030 C 
BRANCH  26  29
ATOM     29  S   UNL     1       2.047   1.625  -8.691  0.00  0.00    +0.095 S 
ATOM     30  O   UNL     1       3.421   1.262  -8.648  0.00  0.00    -0.141 OA
ATOM     31  O   UNL     1       1.220   1.345  -9.812  0.00  0.00    -0.141 OA
BRANCH  29  32
ATOM     32  N   UNL     1       1.983   3.262  -8.451  0.00  0.00    -0.193 NA
ATOM     33  H   UNL     1       2.452   3.776  -9.303  0.00  0.00    +0.145 HD
ATOM     34  H   UNL     1       2.520   3.519  -7.527  0.00  0.00    +0.145 HD
ENDBRANCH  29  32
ENDBRANCH  26  29
ENDBRANCH  20  23
ENDBRANCH  18  19
ENDBRANCH   1  18
TORSDOF 7
