REMARK  Name = ZINC15959688
REMARK  6 active torsions:
REMARK  status: ('A' for Active; 'I' for Inactive)
REMARK    1  A    between atoms: C_1  and  C_2
REMARK    2  A    between atoms: C_2  and  C_4
REMARK    3  A    between atoms: C_2  and  O_34
REMARK    4  A    between atoms: N_12  and  C_15
REMARK    5  A    between atoms: C_15  and  C_16
REMARK    6  A    between atoms: C_16  and  C_17
REMARK                            x       y       z     vdW  Elec       q    Type
REMARK                         _______ _______ _______ _____ _____    ______ ____
ROOT
ATOM      1  C   UNL     1       0.718  -0.497  -1.257  0.00  0.00    +0.096 C 
ATOM      2  C   UNL     1       0.609  -2.033  -1.370  0.00  0.00    +0.109 C 
ATOM      3  C   UNL     1       0.443  -2.309  -2.890  0.00  0.00    +0.122 C 
ATOM      4  C   UNL     1       1.716  -3.038  -3.254  0.00  0.00    +0.228 C 
ATOM      5  O   UNL     1       2.003  -3.436  -4.362  0.00  0.00    -0.275 OA
ATOM      6  N   UNL     1       2.477  -3.175  -2.162  0.00  0.00    -0.241 N 
ATOM      7  C   UNL     1       1.947  -2.651  -1.032  0.00  0.00    +0.227 C 
ATOM      8  O   UNL     1       2.453  -2.667   0.069  0.00  0.00    -0.275 OA
ATOM      9  C   UNL     1       0.420  -0.919  -3.537  0.00  0.00    +0.136 C 
ATOM     10  N   UNL     1       0.044   0.025  -2.474  0.00  0.00    -0.293 NA
ATOM     11  C   UNL     1       1.758  -0.555  -4.117  0.00  0.00    +0.003 A 
ATOM     12  C   UNL     1       3.020  -0.427  -3.582  0.00  0.00    +0.008 A 
ATOM     13  C   UNL     1       4.082  -0.067  -4.393  0.00  0.00    +0.000 A 
ATOM     14  C   UNL     1       3.873   0.162  -5.740  0.00  0.00    +0.002 A 
ATOM     15  C   UNL     1       2.610   0.034  -6.281  0.00  0.00    +0.023 A 
ATOM     16  C   UNL     1       1.535  -0.327  -5.472  0.00  0.00    +0.039 A 
ATOM     17  N   UNL     1       0.186  -0.519  -5.779  0.00  0.00    -0.283 N 
ATOM     18  C   UNL     1      -0.536  -0.869  -4.697  0.00  0.00    +0.243 C 
ATOM     19  O   UNL     1      -1.726  -1.099  -4.665  0.00  0.00    -0.273 OA
ATOM     20  H   UNL     1      -0.958   0.039  -2.355  0.00  0.00    +0.124 HD
ATOM     21  H   UNL     1      -0.187  -0.411  -6.668  0.00  0.00    +0.155 HD
ENDROOT
BRANCH   1  23
ATOM     22  C   UNL     1      -0.019   1.526   0.010  0.00  0.00    +0.039 C 
ATOM     23  C   UNL     1       0.002  -0.004   0.002  0.00  0.00    +0.129 C 
BRANCH  23  24
ATOM     24  O   UNL     1      -1.339  -0.499   0.012  0.00  0.00    -0.390 OA
ATOM     25  H   UNL     1      -1.853  -0.225   0.784  0.00  0.00    +0.210 HD
ENDBRANCH  23  24
ENDBRANCH   1  23
BRANCH   6  26
ATOM     26  C   UNL     1       3.780  -3.846  -2.183  0.00  0.00    +0.121 C 
BRANCH  26  27
ATOM     27  C   UNL     1       4.876  -2.821  -2.480  0.00  0.00    +0.054 C 
BRANCH  27  28
ATOM     28  C   UNL     1       6.216  -3.511  -2.501  0.00  0.00    -0.046 A 
ATOM     29  C   UNL     1       6.953  -3.626  -1.338  0.00  0.00    +0.004 A 
ATOM     30  C   UNL     1       8.182  -4.258  -1.357  0.00  0.00    +0.000 A 
ATOM     31  C   UNL     1       8.673  -4.776  -2.541  0.00  0.00    +0.000 A 
ATOM     32  C   UNL     1       7.936  -4.662  -3.705  0.00  0.00    +0.000 A 
ATOM     33  C   UNL     1       6.705  -4.033  -3.684  0.00  0.00    +0.004 A 
ENDBRANCH  27  28
ENDBRANCH  26  27
ENDBRANCH   6  26
TORSDOF 5
