REMARK  Name = ZINC33253748
REMARK  7 active torsions:
REMARK  status: ('A' for Active; 'I' for Inactive)
REMARK    1  A    between atoms: C_5  and  S_7
REMARK    2  A    between atoms: S_7  and  N_10
REMARK    3  A    between atoms: N_10  and  C_11
REMARK    4  A    between atoms: C_14  and  N_20
REMARK    5  A    between atoms: C_15  and  C_17
REMARK    6  A    between atoms: C_24  and  C_27
REMARK    7  A    between atoms: C_27  and  N_28
REMARK                            x       y       z     vdW  Elec       q    Type
REMARK                         _______ _______ _______ _____ _____    ______ ____
ROOT
ATOM      1  C   UNL     1       2.344   4.058   0.061  0.00  0.00    +0.049 A 
ATOM      2  C   UNL     1       1.771   3.361  -0.998  0.00  0.00    +0.026 A 
ATOM      3  C   UNL     1       1.878   1.988  -1.068  0.00  0.00    +0.026 A 
ATOM      4  C   UNL     1       2.561   1.290  -0.080  0.00  0.00    +0.044 A 
ATOM      5  C   UNL     1       3.141   1.986   0.991  0.00  0.00    +0.086 A 
ATOM      6  C   UNL     1       3.022   3.377   1.057  0.00  0.00    +0.041 A 
ENDROOT
BRANCH   4   7
ATOM      7  N   UNL     1       2.669  -0.095  -0.153  0.00  0.00    -0.329 N 
ATOM      8  C   UNL     1       3.451  -0.501  -1.327  0.00  0.00    +0.105 C 
ATOM      9  C   UNL     1       3.673  -2.015  -1.296  0.00  0.00    +0.019 C 
ATOM     10  C   UNL     1       2.316  -2.725  -1.293  0.00  0.00    +0.005 C 
ATOM     11  C   UNL     1       1.503  -2.248  -0.086  0.00  0.00    -0.010 C 
ATOM     12  C   UNL     1       1.344  -0.728  -0.153  0.00  0.00    +0.106 C 
BRANCH  11  13
ATOM     13  C   UNL     1       0.122  -2.908  -0.108  0.00  0.00    -0.074 C 
BRANCH  13  14
ATOM     14  N   UNL     1       0.270  -4.359   0.071  0.00  0.00    +0.380 N 
ATOM     15  C   UNL     1       1.081  -4.666   1.277  0.00  0.00    -0.079 C 
ATOM     16  C   UNL     1       0.696  -6.131   1.600  0.00  0.00    -0.020 C 
ATOM     17  C   UNL     1      -0.813  -6.174   1.267  0.00  0.00    -0.020 C 
ATOM     18  C   UNL     1      -1.043  -5.002   0.294  0.00  0.00    -0.079 C 
ATOM     19  H   UNL     1       0.749  -4.727  -0.848  0.00  0.00    -0.082 HD
ENDBRANCH  13  14
ENDBRANCH  11  13
ENDBRANCH   4   7
BRANCH   5  20
ATOM     20  C   UNL     1       3.867   1.254   2.043  0.00  0.00    +0.388 C 
ATOM     21  O   UNL     1       3.887   0.039   2.035  0.00  0.00    -0.241 OA
ATOM     22  O   UNL     1       4.505   1.932   3.018  0.00  0.00    -0.241 OA
ENDBRANCH   5  20
BRANCH   1  23
ATOM     23  N   UNL     1       2.229   5.452   0.123  0.00  0.00    -0.216 N 
ATOM     24  H   UNL     1       3.108   6.066   0.371  0.00  0.00    +0.174 HD
BRANCH  23  25
ATOM     25  S   UNL     1       0.771   6.177  -0.177  0.00  0.00    +0.072 S 
ATOM     26  O   UNL     1       0.970   7.574  -0.012  0.00  0.00    -0.150 OA
ATOM     27  O   UNL     1       0.279   5.614  -1.386  0.00  0.00    -0.150 OA
BRANCH  25  32
ATOM     28  C   UNL     1      -1.301   6.022   3.263  0.00  0.00    +0.005 A 
ATOM     29  C   UNL     1      -2.068   4.882   3.105  0.00  0.00    +0.038 A 
ATOM     30  C   UNL     1      -1.967   4.136   1.943  0.00  0.00    +0.125 A 
ATOM     31  C   UNL     1      -1.103   4.536   0.938  0.00  0.00    +0.067 A 
ATOM     32  C   UNL     1      -0.334   5.672   1.100  0.00  0.00    +0.111 A 
ATOM     33  C   UNL     1      -0.435   6.416   2.260  0.00  0.00    +0.029 A 
ATOM     34  F   UNL     1      -2.716   3.022   1.788  0.00  0.00    -0.205 F 
ENDBRANCH  25  32
ENDBRANCH  23  25
ENDBRANCH   1  23
TORSDOF 7
