REMARK  Name = ZINC03377175
REMARK  2 active torsions:
REMARK  status: ('A' for Active; 'I' for Inactive)
REMARK    1  A    between atoms: C_15  and  C_17
REMARK    2  A    between atoms: C_17  and  N_18
REMARK                            x       y       z     vdW  Elec       q    Type
REMARK                         _______ _______ _______ _____ _____    ______ ____
ROOT
ATOM      1  C   UNL     1      -1.232   1.747   0.017  0.00  0.00    +0.001 A 
ATOM      2  C   UNL     1      -0.013   1.076   0.008  0.00  0.00    +0.001 A 
ATOM      3  C   UNL     1       1.164   1.766   0.000  0.00  0.00    +0.010 A 
ATOM      4  C   UNL     1       1.144   3.165   0.008  0.00  0.00    +0.009 A 
ATOM      5  C   UNL     1      -0.090   3.850   0.024  0.00  0.00    -0.016 A 
ATOM      6  C   UNL     1      -1.284   3.108   0.032  0.00  0.00    +0.008 A 
ATOM      7  C   UNL     1      -0.123   5.259   0.032  0.00  0.00    +0.010 A 
ATOM      8  C   UNL     1       1.039   5.966   0.024  0.00  0.00    +0.018 A 
ATOM      9  C   UNL     1       2.267   5.331   0.008  0.00  0.00    +0.041 A 
ATOM     10  C   UNL     1       2.407   3.930  -0.000  0.00  0.00    +0.088 A 
ATOM     11  N   UNL     1       3.663   3.465  -0.015  0.00  0.00    -0.224 NA
ATOM     12  C   UNL     1       4.713   4.257  -0.021  0.00  0.00    +0.166 A 
ATOM     13  S   UNL     1       3.958   5.877  -0.006  0.00  0.00    -0.052 S 
ATOM     14  N   UNL     1       6.058   3.921  -0.035  0.00  0.00    -0.263 N 
ATOM     15  C   UNL     1       6.994   4.891  -0.039  0.00  0.00    +0.240 C 
ATOM     16  O   UNL     1       6.660   6.056  -0.030  0.00  0.00    -0.273 OA
ATOM     17  H   UNL     1       6.325   2.989  -0.042  0.00  0.00    +0.157 HD
ENDROOT
BRANCH  15  18
ATOM     18  C   UNL     1       8.456   4.526  -0.054  0.00  0.00    +0.241 C 
BRANCH  18  19
ATOM     19  N   UNL     1       9.264   5.748  -0.056  0.00  0.00    -0.240 N 
ATOM     20  C   UNL     1       9.636   6.287   1.121  0.00  0.00    +0.274 A 
ATOM     21  O   UNL     1       9.303   5.764   2.167  0.00  0.00    -0.266 OA
ATOM     22  C   UNL     1      10.451   7.521   1.132  0.00  0.00    +0.053 A 
ATOM     23  C   UNL     1      10.859   8.114   2.319  0.00  0.00    +0.014 A 
ATOM     24  C   UNL     1      11.622   9.268   2.280  0.00  0.00    +0.001 A 
ATOM     25  C   UNL     1      11.981   9.833   1.070  0.00  0.00    +0.001 A 
ATOM     26  C   UNL     1      11.583   9.254  -0.123  0.00  0.00    +0.014 A 
ATOM     27  C   UNL     1      10.817   8.097  -0.101  0.00  0.00    +0.053 A 
ATOM     28  C   UNL     1      10.368   7.441  -1.348  0.00  0.00    +0.271 A 
ATOM     29  O   UNL     1      10.665   7.911  -2.429  0.00  0.00    -0.266 OA
ATOM     30  N   UNL     1       9.631   6.316  -1.277  0.00  0.00    -0.260 N 
ATOM     31  H   UNL     1       9.344   5.889  -2.099  0.00  0.00    +0.190 HD
ENDBRANCH  18  19
ENDBRANCH  15  18
TORSDOF 2
