REMARK  Name = ZINC59004742
REMARK  9 active torsions:
REMARK  status: ('A' for Active; 'I' for Inactive)
REMARK    1  A    between atoms: C_2  and  C_3
REMARK    2  A    between atoms: C_3  and  C_4
REMARK    3  A    between atoms: C_8  and  C_11
REMARK    4  A    between atoms: C_9  and  O_10
REMARK    5  A    between atoms: N_12  and  N_13
REMARK    6  A    between atoms: C_16  and  S_19
REMARK    7  A    between atoms: S_19  and  C_20
REMARK    8  A    between atoms: C_20  and  C_21
REMARK    9  A    between atoms: N_23  and  C_24
REMARK                            x       y       z     vdW  Elec       q    Type
REMARK                         _______ _______ _______ _____ _____    ______ ____
ROOT
ATOM      1  N   UNL     1       5.266  -8.482  -1.770  0.00  0.00    -0.205 N 
ATOM      2  C   UNL     1       5.079  -8.579  -0.404  0.00  0.00    +0.232 A 
ATOM      3  N   UNL     1       5.707  -7.877   0.516  0.00  0.00    -0.186 NA
ATOM      4  C   UNL     1       5.274  -8.235   1.730  0.00  0.00    +0.211 A 
ATOM      5  N   UNL     1       4.363  -9.170   1.599  0.00  0.00    -0.144 NA
ATOM      6  N   UNL     1       4.214  -9.406   0.223  0.00  0.00    -0.245 N 
ATOM      7  H   UNL     1       4.750  -9.042  -2.371  0.00  0.00    +0.177 HD
ATOM      8  H   UNL     1       3.611 -10.040  -0.196  0.00  0.00    +0.192 HD
ENDROOT
BRANCH   1  10
ATOM      9  C   UNL     1       6.378  -7.485  -3.569  0.00  0.00    +0.142 C 
ATOM     10  N   UNL     1       6.202  -7.576  -2.286  0.00  0.00    -0.187 NA
BRANCH   9  15
ATOM     11  C   UNL     1       9.032  -4.829  -3.767  0.00  0.00    -0.002 A 
ATOM     12  C   UNL     1       9.213  -4.739  -5.135  0.00  0.00    +0.007 A 
ATOM     13  C   UNL     1       8.477  -5.537  -5.993  0.00  0.00    +0.001 A 
ATOM     14  C   UNL     1       7.554  -6.431  -5.491  0.00  0.00    +0.013 A 
ATOM     15  C   UNL     1       7.362  -6.532  -4.112  0.00  0.00    +0.036 A 
ATOM     16  C   UNL     1       8.114  -5.725  -3.247  0.00  0.00    +0.129 A 
BRANCH  16  17
ATOM     17  O   UNL     1       7.939  -5.819  -1.903  0.00  0.00    -0.506 OA
ATOM     18  H   UNL     1       7.261  -5.226  -1.552  0.00  0.00    +0.292 HD
ENDBRANCH  16  17
BRANCH  11  19
ATOM     19  C   UNL     1       9.838  -3.955  -2.842  0.00  0.00    +0.065 C 
BRANCH  19  21
ATOM     20  C   UNL     1      12.250  -4.196  -2.544  0.00  0.00    +0.004 C 
ATOM     21  C   UNL     1      11.056  -4.709  -2.373  0.00  0.00    -0.030 C 
ENDBRANCH  19  21
ENDBRANCH  11  19
ENDBRANCH   9  15
ENDBRANCH   1  10
BRANCH   4  22
ATOM     22  S   UNL     1       5.836  -7.560   3.257  0.00  0.00    -0.075 S 
BRANCH  22  23
ATOM     23  C   UNL     1       4.874  -8.451   4.511  0.00  0.00    +0.173 C 
BRANCH  23  24
ATOM     24  C   UNL     1       5.263  -7.963   5.883  0.00  0.00    +0.228 C 
ATOM     25  O   UNL     1       6.106  -7.099   6.003  0.00  0.00    -0.275 OA
ATOM     26  N   UNL     1       4.674  -8.486   6.976  0.00  0.00    -0.280 N 
ATOM     27  H   UNL     1       3.949  -9.124   6.878  0.00  0.00    +0.155 HD
BRANCH  26  28
ATOM     28  C   UNL     1       5.109  -8.110   8.254  0.00  0.00    +0.105 A 
ATOM     29  C   UNL     1       6.135  -8.813   8.876  0.00  0.00    +0.147 A 
ATOM     30  C   UNL     1       6.561  -8.438  10.138  0.00  0.00    +0.040 A 
ATOM     31  C   UNL     1       5.968  -7.367  10.780  0.00  0.00    +0.006 A 
ATOM     32  C   UNL     1       4.948  -6.666  10.165  0.00  0.00    +0.040 A 
ATOM     33  C   UNL     1       4.520  -7.030   8.901  0.00  0.00    +0.147 A 
ATOM     34  F   UNL     1       3.526  -6.341   8.298  0.00  0.00    -0.203 F 
ATOM     35  F   UNL     1       6.714  -9.860   8.249  0.00  0.00    -0.203 F 
ENDBRANCH  26  28
ENDBRANCH  23  24
ENDBRANCH  22  23
ENDBRANCH   4  22
TORSDOF 9
