REMARK  Name = ZINC39631478
REMARK  14 active torsions:
REMARK  status: ('A' for Active; 'I' for Inactive)
REMARK    1  A    between atoms: C_1  and  C_2
REMARK    2  A    between atoms: C_2  and  C_3
REMARK    3  A    between atoms: C_3  and  C_5
REMARK    4  A    between atoms: C_3  and  C_6
REMARK    5  A    between atoms: C_10  and  C_19
REMARK    6  A    between atoms: N_21  and  C_22
REMARK    7  A    between atoms: C_22  and  C_24
REMARK    8  A    between atoms: C_22  and  C_25
REMARK    9  A    between atoms: C_25  and  C_26
REMARK   10  A    between atoms: C_26  and  C_27
REMARK   11  A    between atoms: C_27  and  C_28
REMARK   12  A    between atoms: C_28  and  C_29
REMARK   13  A    between atoms: C_28  and  C_30
REMARK   14  A    between atoms: C_28  and  O_31
REMARK                            x       y       z     vdW  Elec       q    Type
REMARK                         _______ _______ _______ _____ _____    ______ ____
ROOT
ATOM      1  C   UNL     1      -1.105  -1.750  -1.090  0.00  0.00    +0.218 C 
ATOM      2  O   UNL     1      -1.080  -0.590  -1.442  0.00  0.00    -0.275 OA
ATOM      3  N   UNL     1      -2.283  -2.353  -0.837  0.00  0.00    -0.300 N 
ATOM      4  C   UNL     1      -3.645  -1.794  -1.012  0.00  0.00    +0.121 C 
ATOM      5  C   UNL     1      -4.481  -2.970  -1.564  0.00  0.00    +0.100 C 
ATOM      6  C   UNL     1      -3.733  -4.233  -1.107  0.00  0.00    -0.004 C 
ATOM      7  C   UNL     1      -2.511  -3.726  -0.327  0.00  0.00    +0.115 C 
ATOM      8  C   UNL     1      -3.280  -5.046  -2.316  0.00  0.00    -0.010 C 
ATOM      9  C   UNL     1      -2.589  -6.325  -1.835  0.00  0.00    -0.082 C 
ATOM     10  N   UNL     1      -3.521  -7.108  -1.014  0.00  0.00    +0.379 N 
ATOM     11  C   UNL     1      -3.880  -6.355   0.194  0.00  0.00    -0.082 C 
ATOM     12  C   UNL     1      -4.625  -5.077  -0.201  0.00  0.00    -0.010 C 
ATOM     13  H   UNL     1      -4.355  -7.303  -1.548  0.00  0.00    -0.086 HD
ATOM     14  H   UNL     1      -3.084  -7.979  -0.749  0.00  0.00    -0.086 HD
ENDROOT
BRANCH   5  15
ATOM     15  C   UNL     1      -4.542  -2.909  -3.069  0.00  0.00    +0.218 C 
ATOM     16  O   UNL     1      -3.640  -2.390  -3.692  0.00  0.00    -0.275 OA
ATOM     17  N   UNL     1      -5.598  -3.432  -3.723  0.00  0.00    -0.312 N 
ATOM     18  H   UNL     1      -6.352  -3.784  -3.223  0.00  0.00    +0.149 HD
BRANCH  17  19
ATOM     19  C   UNL     1      -5.608  -3.469  -5.187  0.00  0.00    +0.070 C 
ATOM     20  C   UNL     1      -4.894  -4.734  -5.670  0.00  0.00    +0.028 C 
BRANCH  19  21
ATOM     21  C   UNL     1      -7.054  -3.477  -5.687  0.00  0.00    +0.022 C 
BRANCH  21  22
ATOM     22  C   UNL     1      -7.728  -2.154  -5.319  0.00  0.00    +0.005 C 
BRANCH  22  23
ATOM     23  C   UNL     1      -9.204  -2.205  -5.718  0.00  0.00    +0.034 C 
BRANCH  23  24
ATOM     24  C   UNL     1      -9.848  -0.840  -5.468  0.00  0.00    +0.061 C 
ATOM     25  C   UNL     1     -11.332  -0.901  -5.834  0.00  0.00    +0.041 C 
ATOM     26  C   UNL     1      -9.702  -0.471  -3.990  0.00  0.00    +0.041 C 
BRANCH  24  27
ATOM     27  O   UNL     1      -9.199   0.147  -6.271  0.00  0.00    -0.389 OA
ATOM     28  H   UNL     1      -9.252  -0.023  -7.222  0.00  0.00    +0.210 HD
ENDBRANCH  24  27
ENDBRANCH  23  24
ENDBRANCH  22  23
ENDBRANCH  21  22
ENDBRANCH  19  21
ENDBRANCH  17  19
ENDBRANCH   5  15
BRANCH   1  29
ATOM     29  C   UNL     1       0.183  -2.518  -0.936  0.00  0.00    +0.072 C 
ATOM     30  C   UNL     1       0.624  -2.486   0.528  0.00  0.00    +0.017 C 
BRANCH  29  32
ATOM     31  C   UNL     1       2.535  -2.731  -1.750  0.00  0.00    +0.004 C 
ATOM     32  C   UNL     1       1.265  -1.880  -1.809  0.00  0.00    +0.009 C 
ENDBRANCH  29  32
ENDBRANCH   1  29
TORSDOF 9
