REMARK  Name = ZINC36551574
REMARK  11 active torsions:
REMARK  status: ('A' for Active; 'I' for Inactive)
REMARK    1  A    between atoms: C_1  and  C_2
REMARK    2  A    between atoms: C_2  and  C_3
REMARK    3  A    between atoms: C_3  and  C_4
REMARK    4  A    between atoms: N_6  and  C_7
REMARK    5  A    between atoms: N_6  and  C_14
REMARK    6  A    between atoms: C_14  and  C_16
REMARK    7  A    between atoms: C_14  and  C_25
REMARK    8  A    between atoms: C_17  and  O_24
REMARK    9  A    between atoms: C_19  and  O_23
REMARK   10  A    between atoms: C_21  and  O_22
REMARK   11  A    between atoms: N_27  and  C_28
REMARK                            x       y       z     vdW  Elec       q    Type
REMARK                         _______ _______ _______ _____ _____    ______ ____
ROOT
ATOM      1  C   UNL     1       2.050  -2.576  -3.860  0.00  0.00    +0.204 C 
ENDROOT
BRANCH   1   2
ATOM      2  C   UNL     1       0.859  -1.677  -3.655  0.00  0.00    +0.065 A 
ATOM      3  C   UNL     1       0.808  -0.833  -2.555  0.00  0.00    +0.129 A 
ATOM      4  C   UNL     1      -0.289  -0.006  -2.367  0.00  0.00    +0.091 A 
ATOM      5  C   UNL     1      -1.334  -0.021  -3.278  0.00  0.00    +0.124 A 
ATOM      6  C   UNL     1      -1.282  -0.864  -4.378  0.00  0.00    +0.091 A 
ATOM      7  C   UNL     1      -0.184  -1.688  -4.569  0.00  0.00    +0.129 A 
BRANCH   7   8
ATOM      8  O   UNL     1      -0.131  -2.510  -5.650  0.00  0.00    -0.506 OA
ATOM      9  H   UNL     1      -0.516  -3.385  -5.498  0.00  0.00    +0.292 HD
ENDBRANCH   7   8
BRANCH   5  10
ATOM     10  O   UNL     1      -2.409   0.789  -3.093  0.00  0.00    -0.507 OA
ATOM     11  H   UNL     1      -2.322   1.659  -3.507  0.00  0.00    +0.292 HD
ENDBRANCH   5  10
BRANCH   3  12
ATOM     12  O   UNL     1       1.832  -0.819  -1.662  0.00  0.00    -0.506 OA
ATOM     13  H   UNL     1       2.483  -0.122  -1.822  0.00  0.00    +0.292 HD
ENDBRANCH   3  12
ENDBRANCH   1   2
BRANCH   1  14
ATOM     14  C   UNL     1       3.310  -1.829  -3.505  0.00  0.00    +0.239 C 
ATOM     15  O   UNL     1       3.697  -1.805  -2.356  0.00  0.00    -0.273 OA
ATOM     16  N   UNL     1       4.007  -1.189  -4.465  0.00  0.00    -0.311 N 
ATOM     17  H   UNL     1       3.698  -1.208  -5.384  0.00  0.00    +0.149 HD
BRANCH  16  18
ATOM     18  C   UNL     1       5.232  -0.463  -4.119  0.00  0.00    +0.073 C 
ATOM     19  C   UNL     1       4.873   0.946  -3.644  0.00  0.00    +0.022 C 
ATOM     20  C   UNL     1       6.152   1.704  -3.284  0.00  0.00    +0.002 C 
ATOM     21  C   UNL     1       7.055   1.796  -4.516  0.00  0.00    +0.000 C 
ATOM     22  C   UNL     1       7.414   0.387  -4.991  0.00  0.00    +0.002 C 
ATOM     23  C   UNL     1       6.135  -0.371  -5.351  0.00  0.00    +0.022 C 
ENDBRANCH  16  18
ENDBRANCH   1  14
BRANCH   1  26
ATOM     24  C   UNL     1       0.956  -3.809  -2.066  0.00  0.00    +0.221 C 
ATOM     25  O   UNL     1       0.154  -2.905  -1.972  0.00  0.00    -0.275 OA
ATOM     26  N   UNL     1       1.924  -3.757  -3.002  0.00  0.00    -0.255 N 
BRANCH  26  27
ATOM     27  C   UNL     1       2.809  -4.830  -3.154  0.00  0.00    +0.039 A 
ATOM     28  C   UNL     1       4.172  -4.595  -3.285  0.00  0.00    +0.023 A 
ATOM     29  C   UNL     1       5.043  -5.656  -3.435  0.00  0.00    +0.003 A 
ATOM     30  C   UNL     1       4.561  -6.952  -3.455  0.00  0.00    +0.020 A 
ATOM     31  C   UNL     1       3.204  -7.190  -3.324  0.00  0.00    +0.043 A 
ATOM     32  C   UNL     1       2.328  -6.132  -3.168  0.00  0.00    +0.043 A 
ATOM     33 CL   UNL     1       2.603  -8.818  -3.350  0.00  0.00    -0.083 Cl
ENDBRANCH  26  27
BRANCH  24  34
ATOM     34  C   UNL     1       0.870  -4.993  -1.137  0.00  0.00    +0.096 C 
BRANCH  34  36
ATOM     35  C   UNL     1       0.558  -5.703   1.238  0.00  0.00    +0.004 C 
ATOM     36  C   UNL     1       0.645  -4.501   0.295  0.00  0.00    +0.006 C 
ENDBRANCH  34  36
ENDBRANCH  24  34
ENDBRANCH   1  26
TORSDOF 10
