REMARK  Name = ZINC13084555
REMARK  7 active torsions:
REMARK  status: ('A' for Active; 'I' for Inactive)
REMARK    1  A    between atoms: C_13  and  C_15
REMARK    2  A    between atoms: C_15  and  C_16
REMARK    3  A    between atoms: C_16  and  C_17
REMARK    4  A    between atoms: C_17  and  N_18
REMARK    5  A    between atoms: N_18  and  S_19
REMARK    6  A    between atoms: S_19  and  C_22
REMARK    7  A    between atoms: C_25  and  C_28
REMARK                            x       y       z     vdW  Elec       q    Type
REMARK                         _______ _______ _______ _____ _____    ______ ____
ROOT
ATOM      1  C   UNL     1      -2.191  -3.438   1.186  0.00  0.00    +0.024 C 
ENDROOT
BRANCH   1   2
ATOM      2  C   UNL     1      -1.230  -3.423  -0.005  0.00  0.00    +0.075 C 
BRANCH   2  15
ATOM      3  C   UNL     1       3.598   3.473  -0.012  0.00  0.00    +0.001 A 
ATOM      4  C   UNL     1       2.386   4.165   0.002  0.00  0.00    +0.001 A 
ATOM      5  C   UNL     1       1.201   3.500   0.010  0.00  0.00    +0.008 A 
ATOM      6  C   UNL     1       1.190   2.091   0.002  0.00  0.00    -0.016 A 
ATOM      7  C   UNL     1      -0.017   1.382   0.010  0.00  0.00    +0.038 A 
ATOM      8  C   UNL     1       0.002  -0.004   0.002  0.00  0.00    +0.090 A 
ATOM      9  C   UNL     1       1.234  -0.699  -0.013  0.00  0.00    +0.067 A 
ATOM     10  C   UNL     1       2.427  -0.014  -0.021  0.00  0.00    +0.036 A 
ATOM     11  C   UNL     1       2.424   1.388  -0.013  0.00  0.00    -0.016 A 
ATOM     12  C   UNL     1       3.630   2.114  -0.021  0.00  0.00    +0.008 A 
ATOM     13  N   UNL     1       0.908  -2.045  -0.018  0.00  0.00    -0.342 N 
ATOM     14  H   UNL     1       1.551  -2.811  -0.028  0.00  0.00    +0.167 HD
ATOM     15  C   UNL     1      -0.451  -2.133  -0.005  0.00  0.00    +0.108 A 
ATOM     16  N   UNL     1      -0.980  -0.946   0.006  0.00  0.00    -0.232 NA
ENDBRANCH   2  15
ENDBRANCH   1   2
BRANCH   1  17
ATOM     17  C   UNL     1      -2.982  -4.748   1.185  0.00  0.00    +0.106 C 
BRANCH  17  18
ATOM     18  N   UNL     1      -3.902  -4.763   2.326  0.00  0.00    -0.190 NA
ATOM     19  H   UNL     1      -3.788  -4.127   3.049  0.00  0.00    +0.148 HD
BRANCH  18  20
ATOM     20  S   UNL     1      -5.136  -5.865   2.379  0.00  0.00    +0.058 S 
ATOM     21  O   UNL     1      -5.824  -5.646   3.603  0.00  0.00    -0.153 OA
ATOM     22  O   UNL     1      -5.788  -5.806   1.118  0.00  0.00    -0.153 OA
BRANCH  20  23
ATOM     23  C   UNL     1      -4.403  -7.463   2.493  0.00  0.00    +0.105 A 
ATOM     24  C   UNL     1      -4.103  -8.170   1.344  0.00  0.00    +0.029 A 
ATOM     25  C   UNL     1      -3.524  -9.421   1.433  0.00  0.00    +0.014 A 
ATOM     26  C   UNL     1      -3.253  -9.971   2.672  0.00  0.00    +0.055 A 
ATOM     27  C   UNL     1      -3.557  -9.266   3.822  0.00  0.00    +0.014 A 
ATOM     28  C   UNL     1      -4.132  -8.013   3.733  0.00  0.00    +0.029 A 
BRANCH  26  29
ATOM     29  C   UNL     1      -2.625 -11.338   2.770  0.00  0.00    +0.417 C 
ATOM     30  F   UNL     1      -3.630 -12.310   2.819  0.00  0.00    -0.166 F 
ATOM     31  F   UNL     1      -1.816 -11.560   1.651  0.00  0.00    -0.166 F 
ATOM     32  F   UNL     1      -1.847 -11.412   3.930  0.00  0.00    -0.166 F 
ENDBRANCH  26  29
ENDBRANCH  20  23
ENDBRANCH  18  20
ENDBRANCH  17  18
ENDBRANCH   1  17
TORSDOF 7
