REMARK  Name = ZINC22429820
REMARK  10 active torsions:
REMARK  status: ('A' for Active; 'I' for Inactive)
REMARK    1  A    between atoms: C_1  and  C_2
REMARK    2  A    between atoms: N_6  and  C_7
REMARK    3  A    between atoms: C_10  and  C_13
REMARK    4  A    between atoms: C_13  and  N_14
REMARK    5  A    between atoms: C_15  and  C_17
REMARK    6  A    between atoms: C_17  and  N_18
REMARK    7  A    between atoms: N_18  and  C_19
REMARK    8  A    between atoms: N_18  and  S_28
REMARK    9  A    between atoms: C_22  and  N_25
REMARK   10  A    between atoms: S_28  and  C_31
REMARK                            x       y       z     vdW  Elec       q    Type
REMARK                         _______ _______ _______ _____ _____    ______ ____
ROOT
ATOM      1  C   UNL     1       0.370   0.885  -0.440  0.00  0.00    +0.227 C 
ENDROOT
BRANCH   1   3
ATOM      2  N   UNL     1       0.819   0.151   1.879  0.00  0.00    -0.310 N 
ATOM      3  C   UNL     1      -0.018   0.752   1.010  0.00  0.00    +0.232 C 
ATOM      4  O   UNL     1      -1.083   1.184   1.395  0.00  0.00    -0.274 OA
ATOM      5  H   UNL     1       1.786  -0.241   1.530  0.00  0.00    +0.149 HD
BRANCH   2   6
ATOM      6  C   UNL     1       0.442   0.021   3.289  0.00  0.00    +0.139 C 
BRANCH   6  10
ATOM      7  C   UNL     1       3.564  -1.972   5.421  0.00  0.00    +0.048 A 
ATOM      8  C   UNL     1       3.571  -0.588   5.310  0.00  0.00    +0.026 A 
ATOM      9  C   UNL     1       2.561   0.053   4.620  0.00  0.00    +0.007 A 
ATOM     10  C   UNL     1       1.543  -0.682   4.040  0.00  0.00    -0.030 A 
ATOM     11  C   UNL     1       1.530  -2.059   4.154  0.00  0.00    +0.007 A 
ATOM     12  C   UNL     1       2.541  -2.707   4.839  0.00  0.00    +0.026 A 
BRANCH   7  18
ATOM     13  C   UNL     1       3.116  -4.073   7.618  0.00  0.00    +0.084 C 
ATOM     14  C   UNL     1       4.433  -3.558   7.096  0.00  0.00    +0.088 A 
ATOM     15  N   UNL     1       5.614  -3.934   7.504  0.00  0.00    -0.350 N 
ATOM     16  C   UNL     1       6.554  -3.263   6.822  0.00  0.00    +0.102 A 
ATOM     17  C   UNL     1       5.936  -2.440   5.954  0.00  0.00    +0.110 A 
ATOM     18  N   UNL     1       4.588  -2.626   6.121  0.00  0.00    -0.305 N 
ATOM     19  H   UNL     1       5.707  -4.695   8.293  0.00  0.00    +0.166 HD
ENDBRANCH   7  18
ENDBRANCH   6  10
ENDBRANCH   2   6
ENDBRANCH   1   3
BRANCH   1  20
ATOM     20  N   UNL     1      -0.700   1.569  -1.171  0.00  0.00    -0.194 N 
BRANCH  20  21
ATOM     21  C   UNL     1      -1.783   0.839  -1.667  0.00  0.00    +0.052 A 
ATOM     22  C   UNL     1      -2.079   0.867  -3.024  0.00  0.00    +0.027 A 
ATOM     23  C   UNL     1      -3.147   0.140  -3.511  0.00  0.00    +0.034 A 
ATOM     24  C   UNL     1      -3.929  -0.606  -2.648  0.00  0.00    +0.126 A 
ATOM     25  C   UNL     1      -3.641  -0.632  -1.296  0.00  0.00    +0.034 A 
ATOM     26  C   UNL     1      -2.571   0.088  -0.803  0.00  0.00    +0.027 A 
BRANCH  24  27
ATOM     27  N   UNL     1      -5.076  -1.380  -3.174  0.00  0.00    +0.056 N 
ATOM     28  O   UNL     1      -5.766  -2.037  -2.415  0.00  0.00    -0.126 OA
ATOM     29  O   UNL     1      -5.331  -1.358  -4.365  0.00  0.00    -0.126 OA
ENDBRANCH  24  27
ENDBRANCH  20  21
BRANCH  20  30
ATOM     30  S   UNL     1      -0.626   3.205  -1.409  0.00  0.00    +0.075 S 
ATOM     31  O   UNL     1      -1.941   3.627  -1.745  0.00  0.00    -0.150 OA
ATOM     32  O   UNL     1       0.089   3.745  -0.306  0.00  0.00    -0.150 OA
BRANCH  30  33
ATOM     33  C   UNL     1       0.370   3.479  -2.837  0.00  0.00    +0.109 A 
ATOM     34  C   UNL     1       1.747   3.529  -2.720  0.00  0.00    +0.029 A 
ATOM     35  C   UNL     1       2.528   3.739  -3.841  0.00  0.00    +0.002 A 
ATOM     36  C   UNL     1       1.933   3.909  -5.076  0.00  0.00    +0.000 A 
ATOM     37  C   UNL     1       0.556   3.865  -5.192  0.00  0.00    +0.002 A 
ATOM     38  C   UNL     1      -0.225   3.650  -4.073  0.00  0.00    +0.029 A 
ENDBRANCH  30  33
ENDBRANCH  20  30
ENDBRANCH   1  20
TORSDOF 9
