REMARK  Name = ZINC43221183
REMARK  9 active torsions:
REMARK  status: ('A' for Active; 'I' for Inactive)
REMARK    1  A    between atoms: C_1  and  C_2
REMARK    2  A    between atoms: C_2  and  C_3
REMARK    3  A    between atoms: C_2  and  C_4
REMARK    4  A    between atoms: C_2  and  N_5
REMARK    5  A    between atoms: C_10  and  C_28
REMARK    6  A    between atoms: C_13  and  C_18
REMARK    7  A    between atoms: C_13  and  C_25
REMARK    8  A    between atoms: C_18  and  C_19
REMARK    9  A    between atoms: C_33  and  O_34
REMARK                            x       y       z     vdW  Elec       q    Type
REMARK                         _______ _______ _______ _____ _____    ______ ____
ROOT
ATOM      1  N   UNL     1       0.713  -0.536  -1.290  0.00  0.00    -0.236 N 
ATOM      2  C   UNL     1       0.087  -1.348  -2.203  0.00  0.00    +0.225 C 
ATOM      3  O   UNL     1      -1.098  -1.583  -2.296  0.00  0.00    -0.275 OA
ATOM      4  C   UNL     1       1.157  -1.861  -3.028  0.00  0.00    +0.077 C 
ATOM      5  C   UNL     1       1.366  -2.493  -4.338  0.00  0.00    -0.023 C 
ATOM      6  N   UNL     1       2.824  -2.284  -4.621  0.00  0.00    +0.396 N 
ATOM      7  C   UNL     1       3.380  -1.430  -3.522  0.00  0.00    +0.052 C 
ATOM      8  C   UNL     1       2.139  -0.624  -3.082  0.00  0.00    +0.086 C 
ATOM      9  C   UNL     1       2.007  -0.258  -1.630  0.00  0.00    +0.225 C 
ATOM     10  O   UNL     1       2.872   0.191  -0.908  0.00  0.00    -0.275 OA
ATOM     11  H   UNL     1       3.301  -3.174  -4.638  0.00  0.00    -0.083 HD
ATOM     12  H   UNL     1       2.938  -1.817  -5.508  0.00  0.00    -0.083 HD
ENDROOT
BRANCH   5  13
ATOM     13  C   UNL     1       0.521  -1.821  -5.389  0.00  0.00    -0.019 A 
ATOM     14  C   UNL     1       1.036  -0.768  -6.121  0.00  0.00    +0.005 A 
ATOM     15  C   UNL     1       0.261  -0.150  -7.084  0.00  0.00    +0.000 A 
ATOM     16  C   UNL     1      -1.031  -0.584  -7.319  0.00  0.00    +0.004 A 
ATOM     17  C   UNL     1      -1.550  -1.637  -6.591  0.00  0.00    +0.045 A 
ATOM     18  C   UNL     1      -0.772  -2.262  -5.627  0.00  0.00    +0.118 A 
BRANCH  18  19
ATOM     19  O   UNL     1      -1.279  -3.301  -4.912  0.00  0.00    -0.507 OA
ATOM     20  H   UNL     1      -1.730  -3.037  -4.099  0.00  0.00    +0.292 HD
ENDBRANCH  18  19
ENDBRANCH   5  13
BRANCH   1  22
ATOM     21  C   UNL     1       0.059   1.510  -0.122  0.00  0.00    +0.031 C 
ATOM     22  C   UNL     1       0.062  -0.019  -0.084  0.00  0.00    +0.036 C 
ATOM     23  C   UNL     1       0.826  -0.497   1.153  0.00  0.00    +0.031 C 
ATOM     24  C   UNL     1      -1.378  -0.531  -0.022  0.00  0.00    +0.031 C 
ENDBRANCH   1  22
BRANCH   7  25
ATOM     25  C   UNL     1       4.447  -0.507  -4.050  0.00  0.00    +0.347 C 
ATOM     26  O   UNL     1       4.763  -0.550  -5.227  0.00  0.00    -0.248 OA
ATOM     27  O   UNL     1       4.995   0.283  -3.301  0.00  0.00    -0.248 OA
ENDBRANCH   7  25
BRANCH   7  28
ATOM     28  C   UNL     1       3.924  -2.297  -2.384  0.00  0.00    +0.035 C 
BRANCH  28  29
ATOM     29  C   UNL     1       5.080  -3.121  -2.890  0.00  0.00    -0.048 A 
ATOM     30  C   UNL     1       4.852  -4.372  -3.431  0.00  0.00    +0.003 A 
ATOM     31  C   UNL     1       5.912  -5.129  -3.895  0.00  0.00    +0.000 A 
ATOM     32  C   UNL     1       7.200  -4.634  -3.818  0.00  0.00    +0.000 A 
ATOM     33  C   UNL     1       7.428  -3.382  -3.278  0.00  0.00    +0.000 A 
ATOM     34  C   UNL     1       6.368  -2.624  -2.818  0.00  0.00    +0.003 A 
ENDBRANCH  28  29
ENDBRANCH   7  28
TORSDOF 6
