REMARK  Name = ZINC14538965
REMARK  11 active torsions:
REMARK  status: ('A' for Active; 'I' for Inactive)
REMARK    1  A    between atoms: C_1  and  C_2
REMARK    2  A    between atoms: C_2  and  C_4
REMARK    3  A    between atoms: C_2  and  N_15
REMARK    4  A    between atoms: C_4  and  C_5
REMARK    5  A    between atoms: C_5  and  C_6
REMARK    6  A    between atoms: N_23  and  C_31
REMARK    7  A    between atoms: N_26  and  C_27
REMARK    8  A    between atoms: C_27  and  C_28
REMARK    9  A    between atoms: C_28  and  C_29
REMARK   10  A    between atoms: C_28  and  C_30
REMARK   11  A    between atoms: C_31  and  C_32
REMARK                            x       y       z     vdW  Elec       q    Type
REMARK                         _______ _______ _______ _____ _____    ______ ____
ROOT
ATOM      1  N   UNL     1      -1.677  -0.399   0.200  0.00  0.00    +0.382 N 
ATOM      2  C   UNL     1      -1.828  -1.807   0.586  0.00  0.00    -0.076 C 
ATOM      3  C   UNL     1      -3.316  -2.147   0.713  0.00  0.00    +0.017 C 
ATOM      4  C   UNL     1      -4.007  -1.888  -0.622  0.00  0.00    +0.112 C 
ATOM      5  C   UNL     1      -3.770  -0.450  -1.074  0.00  0.00    +0.017 C 
ATOM      6  C   UNL     1      -2.264  -0.179  -1.128  0.00  0.00    -0.076 C 
ATOM      7  C   UNL     1      -5.487  -2.172  -0.516  0.00  0.00    +0.247 C 
ATOM      8  O   UNL     1      -6.289  -1.623   0.208  0.00  0.00    -0.273 OA
ATOM      9  N   UNL     1      -5.727  -3.165  -1.398  0.00  0.00    -0.218 N 
ATOM     10  C   UNL     1      -4.611  -3.538  -2.036  0.00  0.00    +0.312 C 
ATOM     11  O   UNL     1      -4.574  -4.414  -2.878  0.00  0.00    -0.252 OA
ATOM     12  N   UNL     1      -3.533  -2.833  -1.641  0.00  0.00    -0.271 N 
ATOM     13  H   UNL     1      -2.147   0.185   0.875  0.00  0.00    -0.081 HD
ENDROOT
BRANCH   1  15
ATOM     14  C   UNL     1      -0.094   1.440  -0.132  0.00  0.00    -0.013 C 
ATOM     15  C   UNL     1      -0.250  -0.052   0.166  0.00  0.00    -0.071 C 
BRANCH  15  16
ATOM     16  C   UNL     1       0.385  -0.371   1.521  0.00  0.00    -0.011 C 
BRANCH  16  17
ATOM     17  C   UNL     1       1.893  -0.122   1.449  0.00  0.00    +0.036 C 
BRANCH  17  18
ATOM     18  C   UNL     1       2.535  -0.554   2.742  0.00  0.00    -0.022 A 
ATOM     19  C   UNL     1       2.972  -1.909   3.088  0.00  0.00    +0.003 A 
ATOM     20  C   UNL     1       2.951  -3.135   2.421  0.00  0.00    +0.010 A 
ATOM     21  C   UNL     1       3.451  -4.249   3.034  0.00  0.00    +0.001 A 
ATOM     22  C   UNL     1       3.979  -4.172   4.316  0.00  0.00    +0.002 A 
ATOM     23  C   UNL     1       4.010  -2.972   4.992  0.00  0.00    +0.026 A 
ATOM     24  C   UNL     1       3.507  -1.825   4.387  0.00  0.00    +0.047 A 
ATOM     25  N   UNL     1       3.396  -0.512   4.788  0.00  0.00    -0.360 N 
ATOM     26  C   UNL     1       2.821   0.231   3.793  0.00  0.00    +0.087 A 
ATOM     27  H   UNL     1       3.687  -0.165   5.646  0.00  0.00    +0.165 HD
ENDBRANCH  17  18
ENDBRANCH  16  17
ENDBRANCH  15  16
ENDBRANCH   1  15
BRANCH  12  28
ATOM     28  C   UNL     1      -2.160  -2.980  -2.130  0.00  0.00    +0.113 C 
BRANCH  28  29
ATOM     29  C   UNL     1      -2.127  -2.726  -3.639  0.00  0.00    +0.000 C 
ATOM     30  C   UNL     1      -2.506  -1.270  -3.919  0.00  0.00    +0.009 C 
ATOM     31  C   UNL     1      -0.718  -2.997  -4.171  0.00  0.00    +0.009 C 
ENDBRANCH  28  29
ENDBRANCH  12  28
BRANCH   9  32
ATOM     32  C   UNL     1      -7.045  -3.761  -1.628  0.00  0.00    +0.173 C 
BRANCH  32  33
ATOM     33  C   UNL     1      -7.756  -3.003  -2.720  0.00  0.00    +0.059 A 
ATOM     34  C   UNL     1      -7.690  -3.460  -4.022  0.00  0.00    +0.025 A 
ATOM     35  C   UNL     1      -8.348  -2.756  -5.019  0.00  0.00    +0.003 A 
ATOM     36  C   UNL     1      -9.049  -1.612  -4.667  0.00  0.00    +0.020 A 
ATOM     37  C   UNL     1      -9.069  -1.216  -3.343  0.00  0.00    +0.111 A 
ATOM     38  N   UNL     1      -8.437  -1.914  -2.420  0.00  0.00    -0.258 NA
ENDBRANCH  32  33
ENDBRANCH   9  32
TORSDOF 8
