REMARK  Name = ZINC63000933
REMARK  6 active torsions:
REMARK  status: ('A' for Active; 'I' for Inactive)
REMARK    1  A    between atoms: C_4  and  CA_7
REMARK    2  A    between atoms: CA_7  and  C_9
REMARK    3  A    between atoms: CA_7  and  N_11
REMARK    4  A    between atoms: C_9  and  O_10
REMARK    5  A    between atoms: N_11  and  C_12
REMARK    6  A    between atoms: C_17  and  N_18
REMARK                            x       y       z     vdW  Elec       q    Type
REMARK                         _______ _______ _______ _____ _____    ______ ____
ROOT
ATOM      1  C   UNL     1       4.796  -2.405   1.413  0.00  0.00    +0.049 A 
ATOM      2  C   UNL     1       6.032  -1.816   1.137  0.00  0.00    +0.027 A 
ATOM      3  C   UNL     1       7.182  -2.311   1.673  0.00  0.00    +0.030 A 
ATOM      4  C   UNL     1       7.141  -3.431   2.519  0.00  0.00    +0.073 A 
ATOM      5  C   UNL     1       5.892  -4.038   2.807  0.00  0.00    +0.023 A 
ATOM      6  C   UNL     1       4.714  -3.508   2.246  0.00  0.00    +0.055 A 
ATOM      7  C   UNL     1       5.857  -5.160   3.655  0.00  0.00    +0.013 A 
ATOM      8  C   UNL     1       7.038  -5.618   4.167  0.00  0.00    +0.020 A 
ATOM      9  C   UNL     1       8.231  -4.976   3.845  0.00  0.00    +0.111 A 
ATOM     10  N   UNL     1       8.260  -3.930   3.055  0.00  0.00    -0.255 NA
ENDROOT
BRANCH   6  11
ATOM     11  N   UNL     1       3.475  -4.091   2.524  0.00  0.00    -0.356 N 
ATOM     12  H   UNL     1       2.667  -3.724   2.132  0.00  0.00    +0.142 HD
ATOM     13  H   UNL     1       3.423  -4.864   3.109  0.00  0.00    +0.142 HD
ENDBRANCH   6  11
BRANCH   1  14
ATOM     14  N   UNL     1       3.630  -1.873   0.845  0.00  0.00    -0.333 N 
ATOM     15  H   UNL     1       2.769  -2.277   1.038  0.00  0.00    +0.147 HD
BRANCH  14  16
ATOM     16  CA  UNL     1       3.711  -0.707  -0.038  0.00  0.00    +0.126 C 
BRANCH  16  20
ATOM     17  C   UNL     1      -0.017   1.378   0.010  0.00  0.00    +0.000 A 
ATOM     18  C   UNL     1       1.171   2.086   0.002  0.00  0.00    +0.000 A 
ATOM     19  C   UNL     1       2.377   1.411  -0.013  0.00  0.00    +0.005 A 
ATOM     20  C   UNL     1       2.396   0.029  -0.020  0.00  0.00    -0.025 A 
ATOM     21  C   UNL     1       1.208  -0.679  -0.012  0.00  0.00    +0.005 A 
ATOM     22  C   UNL     1       0.002  -0.004   0.002  0.00  0.00    +0.000 A 
ENDBRANCH  16  20
BRANCH  16  23
ATOM     23  C   UNL     1       4.019  -1.168  -1.464  0.00  0.00    +0.182 C 
BRANCH  23  24
ATOM     24  O   UNL     1       2.926  -1.943  -1.960  0.00  0.00    -0.393 OA
ATOM     25  H   UNL     1       3.053  -2.268  -2.862  0.00  0.00    +0.209 HD
ENDBRANCH  23  24
ENDBRANCH  16  23
ENDBRANCH  14  16
ENDBRANCH   1  14
TORSDOF 6
