REMARK  Name = ZINC38705176
REMARK  14 active torsions:
REMARK  status: ('A' for Active; 'I' for Inactive)
REMARK    1  A    between atoms: C_1  and  C_2
REMARK    2  A    between atoms: C_2  and  C_3
REMARK    3  A    between atoms: C_3  and  C_4
REMARK    4  A    between atoms: C_4  and  O_5
REMARK    5  A    between atoms: O_5  and  C_6
REMARK    6  A    between atoms: C_9  and  C_12
REMARK    7  A    between atoms: C_15  and  C_27
REMARK    8  A    between atoms: N_22  and  C_23
REMARK    9  A    between atoms: C_23  and  C_24
REMARK   10  A    between atoms: C_24  and  O_25
REMARK   11  A    between atoms: O_25  and  C_26
REMARK   12  A    between atoms: C_28  and  C_35
REMARK   13  A    between atoms: C_30  and  C_34
REMARK   14  A    between atoms: C_32  and  O_33
REMARK                            x       y       z     vdW  Elec       q    Type
REMARK                         _______ _______ _______ _____ _____    ______ ____
ROOT
ATOM      1  C   UNL     1       1.638  -8.079  -3.091  0.00  0.00    +0.141 C 
ATOM      2  C   UNL     1       3.037  -8.398  -2.640  0.00  0.00    +0.035 A 
ATOM      3  C   UNL     1       3.969  -8.396  -1.597  0.00  0.00    +0.102 A 
ATOM      4  N   UNL     1       5.093  -8.895  -2.071  0.00  0.00    -0.173 NA
ATOM      5  N   UNL     1       4.963  -9.213  -3.310  0.00  0.00    -0.272 N 
ATOM      6  H   UNL     1       5.661  -9.598  -3.863  0.00  0.00    +0.189 HD
ATOM      7  C   UNL     1       3.696  -8.927  -3.733  0.00  0.00    +0.126 A 
ATOM      8  C   UNL     1       2.767  -8.957  -4.868  0.00  0.00    +0.266 C 
ATOM      9  O   UNL     1       3.042  -9.368  -5.979  0.00  0.00    -0.268 OA
ATOM     10  N   UNL     1       1.566  -8.467  -4.505  0.00  0.00    -0.283 N 
ENDROOT
BRANCH   3  11
ATOM     11  C   UNL     1       3.736  -7.919  -0.211  0.00  0.00    +0.047 A 
ATOM     12  C   UNL     1       4.636  -7.039   0.387  0.00  0.00    -0.037 A 
ATOM     13  C   UNL     1       4.415  -6.598   1.676  0.00  0.00    +0.007 A 
ATOM     14  C   UNL     1       3.302  -7.027   2.377  0.00  0.00    -0.047 A 
ATOM     15  C   UNL     1       2.403  -7.900   1.794  0.00  0.00    +0.049 A 
ATOM     16  C   UNL     1       2.610  -8.345   0.498  0.00  0.00    +0.127 A 
ATOM     17  C   UNL     1       3.069  -6.540   3.784  0.00  0.00    +0.044 C 
ATOM     18  C   UNL     1       5.849  -6.570  -0.374  0.00  0.00    +0.044 C 
BRANCH  16  19
ATOM     19  O   UNL     1       1.724  -9.199  -0.079  0.00  0.00    -0.506 OA
ATOM     20  H   UNL     1       1.881 -10.130   0.131  0.00  0.00    +0.292 HD
ENDBRANCH  16  19
ENDBRANCH   3  11
BRANCH   1  24
ATOM     21  C   UNL     1       0.877  -3.894  -2.673  0.00  0.00    +0.121 A 
ATOM     22  C   UNL     1       1.782  -4.345  -3.623  0.00  0.00    +0.046 A 
ATOM     23  C   UNL     1       2.026  -5.698  -3.756  0.00  0.00    +0.009 A 
ATOM     24  C   UNL     1       1.370  -6.603  -2.943  0.00  0.00    -0.022 A 
ATOM     25  C   UNL     1       0.467  -6.157  -1.996  0.00  0.00    +0.009 A 
ATOM     26  C   UNL     1       0.223  -4.805  -1.855  0.00  0.00    +0.046 A 
BRANCH  21  27
ATOM     27  O   UNL     1       0.635  -2.564  -2.541  0.00  0.00    -0.492 OA
BRANCH  27  28
ATOM     28  C   UNL     1       1.344  -1.685  -3.417  0.00  0.00    +0.229 C 
BRANCH  28  29
ATOM     29  C   UNL     1       0.944  -0.238  -3.120  0.00  0.00    +0.041 C 
BRANCH  29  31
ATOM     30  C   UNL     1       1.303   2.150  -3.762  0.00  0.00    +0.004 C 
ATOM     31  C   UNL     1       1.703   0.703  -4.058  0.00  0.00    -0.000 C 
ENDBRANCH  29  31
ENDBRANCH  28  29
ENDBRANCH  27  28
ENDBRANCH  21  27
ENDBRANCH   1  24
BRANCH  10  32
ATOM     32  C   UNL     1       0.392  -8.341  -5.371  0.00  0.00    +0.137 C 
BRANCH  32  33
ATOM     33  C   UNL     1       0.479  -7.035  -6.163  0.00  0.00    +0.178 C 
BRANCH  33  34
ATOM     34  O   UNL     1       1.591  -7.095  -7.059  0.00  0.00    -0.381 OA
ATOM     35  C   UNL     1       1.763  -5.918  -7.851  0.00  0.00    +0.194 C 
ENDBRANCH  33  34
ENDBRANCH  32  33
ENDBRANCH  10  32
TORSDOF 10
