REMARK  Name = ZINC11592875
REMARK  10 active torsions:
REMARK  status: ('A' for Active; 'I' for Inactive)
REMARK    1  A    between atoms: C_1  and  C_2
REMARK    2  A    between atoms: C_11  and  C_28
REMARK    3  A    between atoms: C_11  and  O_35
REMARK    4  A    between atoms: C_12  and  C_27
REMARK    5  A    between atoms: C_14  and  O_26
REMARK    6  A    between atoms: C_18  and  C_25
REMARK    7  A    between atoms: C_28  and  C_30
REMARK    8  A    between atoms: C_30  and  O_31
REMARK    9  A    between atoms: O_31  and  C_32
REMARK   10  A    between atoms: C_32  and  C_34
REMARK                            x       y       z     vdW  Elec       q    Type
REMARK                         _______ _______ _______ _____ _____    ______ ____
ROOT
ATOM      1  C   UNL     1       1.041   2.588  -3.635  0.00  0.00    +0.012 C 
ATOM      2  C   UNL     1       0.936   3.095  -2.200  0.00  0.00    +0.013 C 
ATOM      3  C   UNL     1      -0.504   2.961  -1.695  0.00  0.00    +0.012 C 
ATOM      4  C   UNL     1      -0.751   1.494  -1.366  0.00  0.00    -0.000 C 
ATOM      5  C   UNL     1      -2.187   1.088  -1.308  0.00  0.00    +0.002 C 
ATOM      6  C   UNL     1      -3.131   1.578  -2.414  0.00  0.00    +0.008 C 
ATOM      7  C   UNL     1      -4.531   1.231  -1.832  0.00  0.00    +0.043 C 
ATOM      8  C   UNL     1      -4.352   1.102  -0.297  0.00  0.00    +0.133 C 
ATOM      9  C   UNL     1      -2.912   1.569  -0.035  0.00  0.00    +0.009 C 
ATOM     10  C   UNL     1      -2.212   0.979   1.163  0.00  0.00    +0.041 C 
ATOM     11  C   UNL     1      -0.752   1.490   1.187  0.00  0.00    +0.120 C 
ATOM     12  C   UNL     1      -0.012   1.119  -0.080  0.00  0.00    +0.035 C 
ATOM     13  C   UNL     1       1.439   1.513  -0.136  0.00  0.00    +0.013 C 
ATOM     14  C   UNL     1       1.873   2.329  -1.308  0.00  0.00    -0.053 C 
ATOM     15  C   UNL     1       3.193   2.434  -1.579  0.00  0.00    +0.051 C 
ATOM     16  C   UNL     1       4.124   1.728  -0.662  0.00  0.00    +0.179 C 
ATOM     17  O   UNL     1       5.204   2.193  -0.342  0.00  0.00    -0.288 OA
ATOM     18  C   UNL     1       3.644   0.414  -0.162  0.00  0.00    +0.047 C 
ATOM     19  C   UNL     1       2.325   0.312   0.074  0.00  0.00    -0.012 C 
ATOM     20  C   UNL     1       1.724   2.419   1.060  0.00  0.00    +0.020 C 
ATOM     21  C   UNL     1      -2.955   3.096   0.075  0.00  0.00    +0.015 C 
ENDROOT
BRANCH  11  22
ATOM     22  O   UNL     1      -0.138   0.837   2.313  0.00  0.00    -0.391 OA
ATOM     23  H   UNL     1      -0.564   1.031   3.160  0.00  0.00    +0.210 HD
ENDBRANCH  11  22
BRANCH   8  24
ATOM     24  C   UNL     1      -4.561  -0.320   0.140  0.00  0.00    +0.202 C 
ATOM     25  O   UNL     1      -3.624  -1.078   0.197  0.00  0.00    -0.291 OA
BRANCH  24  26
ATOM     26  C   UNL     1      -5.942  -0.799   0.506  0.00  0.00    +0.309 C 
BRANCH  26  27
ATOM     27  O   UNL     1      -5.883  -2.198   0.891  0.00  0.00    -0.457 OA
BRANCH  27  28
ATOM     28  C   UNL     1      -7.037  -2.781   1.249  0.00  0.00    +0.304 C 
ATOM     29  O   UNL     1      -8.064  -2.144   1.241  0.00  0.00    -0.251 OA
ATOM     30  C   UNL     1      -7.053  -4.231   1.662  0.00  0.00    +0.136 C 
ENDBRANCH  27  28
ENDBRANCH  26  27
ENDBRANCH  24  26
ENDBRANCH   8  24
BRANCH   8  31
ATOM     31  O   UNL     1      -5.266   1.970   0.377  0.00  0.00    -0.380 OA
ATOM     32  H   UNL     1      -6.196   1.734   0.255  0.00  0.00    +0.211 HD
ENDBRANCH   8  31
TORSDOF 6
