REMARK  Name = ZINC07654951
REMARK  9 active torsions:
REMARK  status: ('A' for Active; 'I' for Inactive)
REMARK    1  A    between atoms: C_1  and  C_2
REMARK    2  A    between atoms: C_2  and  N_3
REMARK    3  A    between atoms: N_5  and  N_19
REMARK    4  A    between atoms: C_6  and  C_9
REMARK    5  A    between atoms: C_12  and  O_18
REMARK    6  A    between atoms: C_13  and  C_15
REMARK    7  A    between atoms: C_20  and  C_21
REMARK    8  A    between atoms: C_24  and  O_27
REMARK    9  A    between atoms: O_27  and  C_28
REMARK                            x       y       z     vdW  Elec       q    Type
REMARK                         _______ _______ _______ _____ _____    ______ ____
ROOT
ATOM      1  N   UNL     1       0.249   0.134   0.034  0.00  0.00    -0.260 NA
ATOM      2  C   UNL     1      -0.224  -0.503   1.075  0.00  0.00    +0.190 A 
ATOM      3  N   UNL     1      -0.300  -1.862   1.307  0.00  0.00    -0.208 N 
ATOM      4  C   UNL     1      -0.843  -2.294   2.487  0.00  0.00    +0.082 A 
ATOM      5  C   UNL     1      -1.286  -1.393   3.388  0.00  0.00    +0.077 A 
ATOM      6  S   UNL     1      -0.934   0.157   2.575  0.00  0.00    -0.056 S 
ENDROOT
BRANCH   4   7
ATOM      7  C   UNL     1      -0.942  -3.742   2.774  0.00  0.00    +0.002 A 
ATOM      8  C   UNL     1      -1.132  -4.650   1.728  0.00  0.00    +0.013 A 
ATOM      9  C   UNL     1      -1.220  -6.000   1.989  0.00  0.00    +0.047 A 
ATOM     10  C   UNL     1      -1.131  -6.468   3.293  0.00  0.00    +0.129 A 
ATOM     11  C   UNL     1      -0.946  -5.566   4.350  0.00  0.00    +0.078 A 
ATOM     12  C   UNL     1      -0.852  -4.199   4.085  0.00  0.00    +0.026 A 
BRANCH  11  13
ATOM     13  C   UNL     1      -0.852  -6.059   5.737  0.00  0.00    +0.245 C 
ATOM     14  O   UNL     1      -0.935  -7.251   5.965  0.00  0.00    -0.270 OA
ATOM     15  N   UNL     1      -0.674  -5.190   6.751  0.00  0.00    -0.325 N 
ATOM     16  H   UNL     1      -0.608  -4.239   6.569  0.00  0.00    +0.145 HD
ATOM     17  H   UNL     1      -0.613  -5.514   7.663  0.00  0.00    +0.145 HD
ENDBRANCH  11  13
BRANCH  10  18
ATOM     18  O   UNL     1      -1.224  -7.798   3.545  0.00  0.00    -0.506 OA
ATOM     19  H   UNL     1      -2.127  -8.106   3.705  0.00  0.00    +0.292 HD
ENDBRANCH  10  18
ENDBRANCH   4   7
BRANCH   1  21
ATOM     20  C   UNL     1       1.660   2.124  -0.135  0.00  0.00    +0.029 C 
ATOM     21  C   UNL     1       0.230   1.599   0.000  0.00  0.00    +0.141 C 
ENDBRANCH   1  21
BRANCH   3  22
ATOM     22  N   UNL     1       0.168  -2.778   0.355  0.00  0.00    -0.172 NA
ATOM     23  C   UNL     1       0.251  -2.432  -0.893  0.00  0.00    +0.141 C 
BRANCH  23  24
ATOM     24  C   UNL     1       0.863  -3.348  -1.873  0.00  0.00    -0.005 A 
ATOM     25  C   UNL     1       1.360  -4.587  -1.459  0.00  0.00    +0.013 A 
ATOM     26  C   UNL     1       1.925  -5.442  -2.379  0.00  0.00    +0.046 A 
ATOM     27  C   UNL     1       2.013  -5.070  -3.715  0.00  0.00    +0.120 A 
ATOM     28  C   UNL     1       1.526  -3.837  -4.130  0.00  0.00    +0.046 A 
ATOM     29  C   UNL     1       0.954  -2.977  -3.217  0.00  0.00    +0.013 A 
BRANCH  27  30
ATOM     30  O   UNL     1       2.576  -5.914  -4.617  0.00  0.00    -0.495 OA
ATOM     31  C   UNL     1       3.056  -7.166  -4.123  0.00  0.00    +0.277 C 
ENDBRANCH  27  30
ENDBRANCH  23  24
ENDBRANCH   3  22
TORSDOF 7
