REMARK  Name = ZINC04277892
REMARK  8 active torsions:
REMARK  status: ('A' for Active; 'I' for Inactive)
REMARK    1  A    between atoms: C_1  and  S_2
REMARK    2  A    between atoms: S_2  and  N_5
REMARK    3  A    between atoms: C_9  and  C_12
REMARK    4  A    between atoms: N_14  and  C_15
REMARK    5  A    between atoms: C_15  and  C_17
REMARK    6  A    between atoms: C_15  and  C_24
REMARK    7  A    between atoms: C_17  and  C_18
REMARK    8  A    between atoms: C_27  and  C_29
REMARK                            x       y       z     vdW  Elec       q    Type
REMARK                         _______ _______ _______ _____ _____    ______ ____
ROOT
ATOM      1  N   UNL     1      -0.948   6.331   0.863  0.00  0.00    -0.178 NA
ATOM      2  C   UNL     1      -0.945   7.471   1.790  0.00  0.00    +0.128 C 
ATOM      3  C   UNL     1       0.500   7.745   2.225  0.00  0.00    +0.125 C 
ATOM      4  N   UNL     1       1.348   7.805   1.026  0.00  0.00    -0.287 N 
ATOM      5  C   UNL     1       1.345   6.664   0.099  0.00  0.00    +0.177 C 
ATOM      6  C   UNL     1      -0.100   6.390  -0.336  0.00  0.00    +0.141 C 
ATOM      7  C   UNL     1       2.115   8.886   0.781  0.00  0.00    +0.219 C 
ATOM      8  O   UNL     1       2.177   9.782   1.596  0.00  0.00    -0.275 OA
ENDROOT
BRANCH   7   9
ATOM      9  C   UNL     1       2.896   8.980  -0.504  0.00  0.00    +0.075 C 
ATOM     10  C   UNL     1       3.992   7.913  -0.514  0.00  0.00    +0.013 C 
ATOM     11  C   UNL     1       4.785   8.009  -1.819  0.00  0.00    +0.001 C 
ATOM     12  C   UNL     1       5.423   9.395  -1.928  0.00  0.00    +0.000 C 
ATOM     13  C   UNL     1       4.326  10.463  -1.918  0.00  0.00    +0.001 C 
ATOM     14  C   UNL     1       3.534  10.367  -0.613  0.00  0.00    +0.013 C 
ENDBRANCH   7   9
BRANCH   1  16
ATOM     15  C   UNL     1      -0.904   3.976   2.287  0.00  0.00    +0.215 C 
ATOM     16  S   UNL     1      -1.890   5.003   1.163  0.00  0.00    +0.029 S 
ATOM     17  O   UNL     1      -3.031   5.513   1.840  0.00  0.00    -0.158 OA
ATOM     18  O   UNL     1      -2.023   4.359  -0.097  0.00  0.00    -0.158 OA
ENDBRANCH   1  16
BRANCH   5  19
ATOM     19  C   UNL     1       1.904   5.448   0.791  0.00  0.00    +0.235 C 
ATOM     20  O   UNL     1       2.136   5.481   1.981  0.00  0.00    -0.274 OA
ATOM     21  N   UNL     1       2.147   4.324   0.088  0.00  0.00    -0.302 N 
ATOM     22  H   UNL     1       2.030   4.320  -0.875  0.00  0.00    +0.150 HD
BRANCH  21  23
ATOM     23  C   UNL     1       2.587   3.109   0.778  0.00  0.00    +0.159 C 
BRANCH  23  24
ATOM     24  C   UNL     1       4.073   3.179   1.019  0.00  0.00    +0.231 C 
ATOM     25  O   UNL     1       4.766   3.896   0.330  0.00  0.00    -0.274 OA
ATOM     26  N   UNL     1       4.631   2.444   2.002  0.00  0.00    -0.328 N 
ATOM     27  H   UNL     1       4.090   1.815   2.504  0.00  0.00    +0.145 HD
ATOM     28  H   UNL     1       5.574   2.545   2.207  0.00  0.00    +0.145 HD
ENDBRANCH  23  24
BRANCH  23  29
ATOM     29  C   UNL     1       2.268   1.888  -0.087  0.00  0.00    +0.035 C 
BRANCH  29  30
ATOM     30  C   UNL     1       2.579   0.612   0.698  0.00  0.00    -0.009 C 
ATOM     31  C   UNL     1       1.617   0.494   1.882  0.00  0.00    +0.003 C 
ATOM     32  C   UNL     1       1.928  -0.782   2.667  0.00  0.00    +0.000 C 
ATOM     33  C   UNL     1       1.762  -1.997   1.752  0.00  0.00    +0.000 C 
ATOM     34  C   UNL     1       2.724  -1.879   0.568  0.00  0.00    +0.000 C 
ATOM     35  C   UNL     1       2.413  -0.603  -0.217  0.00  0.00    +0.003 C 
ENDBRANCH  29  30
ENDBRANCH  23  29
ENDBRANCH  21  23
ENDBRANCH   5  19
TORSDOF 7
