REMARK  Name = ZINC15482899
REMARK  8 active torsions:
REMARK  status: ('A' for Active; 'I' for Inactive)
REMARK    1  A    between atoms: C_1  and  C_2
REMARK    2  A    between atoms: N_10  and  N_14
REMARK    3  A    between atoms: C_15  and  C_17
REMARK    4  A    between atoms: C_17  and  N_18
REMARK    5  A    between atoms: N_18  and  C_19
REMARK    6  A    between atoms: N_18  and  C_26
REMARK    7  A    between atoms: C_19  and  C_20
REMARK    8  A    between atoms: C_26  and  C_27
REMARK                            x       y       z     vdW  Elec       q    Type
REMARK                         _______ _______ _______ _____ _____    ______ ____
ROOT
ATOM      1  N   UNL     1       3.366  -5.583  -0.137  0.00  0.00    -0.225 N 
ATOM      2  C   UNL     1       3.755  -6.176  -1.283  0.00  0.00    +0.213 C 
ATOM      3  O   UNL     1       3.731  -5.555  -2.325  0.00  0.00    -0.276 OA
ATOM      4  H   UNL     1       3.385  -6.080   0.697  0.00  0.00    +0.173 HD
ENDROOT
BRANCH   1  14
ATOM      5  C   UNL     1       0.401   1.774  -0.143  0.00  0.00    +0.007 C 
ATOM      6  C   UNL     1       0.349   0.246  -0.079  0.00  0.00    -0.014 C 
ATOM      7  C   UNL     1       0.933  -0.337  -1.368  0.00  0.00    +0.006 C 
ATOM      8  C   UNL     1       0.871  -1.865  -1.308  0.00  0.00    +0.035 C 
ATOM      9  C   UNL     1       1.662  -2.360  -0.102  0.00  0.00    +0.114 C 
ATOM     10  C   UNL     1       1.105  -1.770   1.188  0.00  0.00    +0.035 C 
ATOM     11  C   UNL     1       1.165  -0.241   1.119  0.00  0.00    +0.006 C 
ATOM     12  C   UNL     1       1.644  -3.870  -0.042  0.00  0.00    +0.263 C 
ATOM     13  O   UNL     1       0.675  -4.589   0.076  0.00  0.00    -0.271 OA
ATOM     14  N   UNL     1       2.935  -4.250  -0.148  0.00  0.00    -0.137 N 
ATOM     15  C   UNL     1       3.751  -3.196  -0.265  0.00  0.00    +0.326 C 
ATOM     16  O   UNL     1       4.958  -3.285  -0.374  0.00  0.00    -0.251 OA
ATOM     17  N   UNL     1       3.085  -2.026  -0.248  0.00  0.00    -0.284 N 
ATOM     18  H   UNL     1       3.469  -1.138  -0.318  0.00  0.00    +0.151 HD
ENDBRANCH   1  14
BRANCH   2  19
ATOM     19  C   UNL     1       4.219  -7.609  -1.271  0.00  0.00    +0.021 C 
BRANCH  19  20
ATOM     20  N   UNL     1       4.726  -7.972  -2.601  0.00  0.00    +0.393 N 
ATOM     21  H   UNL     1       4.029  -7.753  -3.297  0.00  0.00    -0.080 HD
BRANCH  20  22
ATOM     22  C   UNL     1       5.953  -7.213  -2.881  0.00  0.00    -0.042 C 
BRANCH  22  23
ATOM     23  C   UNL     1       6.405  -7.492  -4.291  0.00  0.00    -0.064 A 
ATOM     24  C   UNL     1       7.266  -8.543  -4.546  0.00  0.00    +0.002 A 
ATOM     25  C   UNL     1       7.681  -8.798  -5.840  0.00  0.00    +0.000 A 
ATOM     26  C   UNL     1       7.234  -8.003  -6.878  0.00  0.00    +0.000 A 
ATOM     27  C   UNL     1       6.372  -6.952  -6.624  0.00  0.00    +0.000 A 
ATOM     28  C   UNL     1       5.954  -6.700  -5.330  0.00  0.00    +0.002 A 
ENDBRANCH  22  23
ENDBRANCH  20  22
BRANCH  20  29
ATOM     29  C   UNL     1       5.021  -9.410  -2.638  0.00  0.00    -0.002 C 
BRANCH  29  30
ATOM     30  C   UNL     1       3.741 -10.190  -2.476  0.00  0.00    +0.089 A 
ATOM     31  C   UNL     1       2.882 -10.505  -3.462  0.00  0.00    +0.042 A 
ATOM     32  C   UNL     1       1.827 -11.235  -2.869  0.00  0.00    +0.041 A 
ATOM     33  C   UNL     1       2.104 -11.322  -1.555  0.00  0.00    +0.195 A 
ATOM     34  O   UNL     1       3.267 -10.692  -1.324  0.00  0.00    -0.470 OA
ENDBRANCH  29  30
ENDBRANCH  20  29
ENDBRANCH  19  20
ENDBRANCH   2  19
TORSDOF 7
