REMARK  Name = ZINC15947703
REMARK  9 active torsions:
REMARK  status: ('A' for Active; 'I' for Inactive)
REMARK    1  A    between atoms: C_1  and  C_2
REMARK    2  A    between atoms: C_2  and  O_3
REMARK    3  A    between atoms: O_3  and  C_4
REMARK    4  A    between atoms: C_6  and  C_23
REMARK    5  A    between atoms: C_9  and  O_10
REMARK    6  A    between atoms: O_10  and  C_11
REMARK    7  A    between atoms: C_11  and  C_13
REMARK    8  A    between atoms: C_32  and  C_36
REMARK    9  A    between atoms: C_37  and  O_39
REMARK                            x       y       z     vdW  Elec       q    Type
REMARK                         _______ _______ _______ _____ _____    ______ ____
ROOT
ATOM      1  C   UNL     1      -1.508  -1.856   0.034  0.00  0.00    +0.163 A 
ATOM      2  C   UNL     1      -0.397  -2.684   0.026  0.00  0.00    +0.056 A 
ATOM      3  C   UNL     1      -0.558  -4.056  -0.005  0.00  0.00    -0.002 A 
ATOM      4  C   UNL     1      -1.827  -4.607  -0.028  0.00  0.00    +0.011 A 
ATOM      5  C   UNL     1      -2.939  -3.787  -0.021  0.00  0.00    +0.050 A 
ATOM      6  C   UNL     1      -2.785  -2.410   0.015  0.00  0.00    +0.173 A 
ENDROOT
BRANCH   3   7
ATOM      7  C   UNL     1       0.651  -4.955  -0.013  0.00  0.00    +0.224 C 
ATOM      8  N   UNL     1       0.316  -6.206  -0.719  0.00  0.00    -0.313 N 
ATOM      9  C   UNL     1       0.408  -6.175  -2.092  0.00  0.00    +0.080 A 
ATOM     10  C   UNL     1       1.243  -5.269  -2.757  0.00  0.00    +0.068 A 
ATOM     11  C   UNL     1       1.225  -5.346  -4.207  0.00  0.00    -0.023 A 
ATOM     12  C   UNL     1       0.402  -6.296  -4.708  0.00  0.00    -0.004 A 
ATOM     13  S   UNL     1      -0.325  -7.061  -3.285  0.00  0.00    -0.078 S 
ATOM     14  C   UNL     1       0.171  -6.616  -6.152  0.00  0.00    +0.046 C 
ATOM     15  C   UNL     1       1.288  -5.959  -6.978  0.00  0.00    -0.009 C 
ATOM     16  C   UNL     1       1.443  -4.503  -6.530  0.00  0.00    +0.008 C 
ATOM     17  C   UNL     1       2.046  -4.452  -5.125  0.00  0.00    +0.037 C 
ATOM     18  C   UNL     1       0.922  -6.005  -8.463  0.00  0.00    +0.008 C 
ATOM     19  C   UNL     1       2.053  -4.344  -1.924  0.00  0.00    +0.220 C 
ATOM     20  N   UNL     1       1.758  -4.258  -0.656  0.00  0.00    -0.223 NA
ATOM     21  H   UNL     1       0.046  -7.006  -0.241  0.00  0.00    +0.149 HD
BRANCH  19  22
ATOM     22  O   UNL     1       3.060  -3.617  -2.461  0.00  0.00    -0.492 OA
ATOM     23  H   UNL     1       3.517  -3.050  -1.825  0.00  0.00    +0.294 HD
ENDBRANCH  19  22
ENDBRANCH   3   7
BRANCH   1  24
ATOM     24  O   UNL     1      -1.352  -0.506   0.064  0.00  0.00    -0.489 OA
BRANCH  24  26
ATOM     25  C   UNL     1      -0.036   1.521   0.115  0.00  0.00    +0.048 C 
ATOM     26  C   UNL     1      -0.012  -0.008   0.082  0.00  0.00    +0.226 C 
ENDBRANCH  24  26
ENDBRANCH   1  24
BRANCH   6  27
ATOM     27  O   UNL     1      -3.879  -1.601   0.028  0.00  0.00    -0.419 OA
BRANCH  27  28
ATOM     28  C   UNL     1      -4.261  -1.036  -1.134  0.00  0.00    +0.345 C 
ATOM     29  O   UNL     1      -3.692  -1.327  -2.168  0.00  0.00    -0.245 OA
BRANCH  28  30
ATOM     30  C   UNL     1      -5.369  -0.066  -1.151  0.00  0.00    +0.067 A 
ATOM     31  C   UNL     1      -5.950   0.368   0.034  0.00  0.00    +0.015 A 
ATOM     32  C   UNL     1      -6.994   1.284   0.014  0.00  0.00    +0.001 A 
ATOM     33  C   UNL     1      -7.485   1.788  -1.151  0.00  0.00    +0.008 A 
ATOM     34  C   UNL     1      -6.946   1.394  -2.386  0.00  0.00    -0.017 A 
ATOM     35  C   UNL     1      -5.875   0.466  -2.415  0.00  0.00    -0.004 A 
ATOM     36  C   UNL     1      -5.332   0.075  -3.644  0.00  0.00    +0.009 A 
ATOM     37  C   UNL     1      -5.834   0.595  -4.799  0.00  0.00    +0.001 A 
ATOM     38  C   UNL     1      -6.883   1.511  -4.775  0.00  0.00    +0.001 A 
ATOM     39  C   UNL     1      -7.443   1.905  -3.598  0.00  0.00    +0.008 A 
ENDBRANCH  28  30
ENDBRANCH  27  28
ENDBRANCH   6  27
TORSDOF 7
