REMARK  Name = ZINC20205912
REMARK  10 active torsions:
REMARK  status: ('A' for Active; 'I' for Inactive)
REMARK    1  A    between atoms: C_1  and  C_2
REMARK    2  A    between atoms: C_5  and  C_34
REMARK    3  A    between atoms: C_6  and  O_8
REMARK    4  A    between atoms: O_8  and  C_9
REMARK    5  A    between atoms: C_9  and  C_10
REMARK    6  A    between atoms: C_10  and  O_11
REMARK    7  A    between atoms: O_11  and  C_12
REMARK    8  A    between atoms: C_15  and  C_18
REMARK    9  A    between atoms: C_29  and  S_30
REMARK   10  A    between atoms: S_30  and  C_33
REMARK                            x       y       z     vdW  Elec       q    Type
REMARK                         _______ _______ _______ _____ _____    ______ ____
ROOT
ATOM      1  C   UNL     1       1.968  -4.047   6.182  0.00  0.00    +0.121 A 
ATOM      2  C   UNL     1       0.781  -4.388   6.823  0.00  0.00    +0.046 A 
ATOM      3  C   UNL     1       0.772  -5.373   7.776  0.00  0.00    +0.011 A 
ATOM      4  C   UNL     1       1.963  -6.037   8.104  0.00  0.00    -0.024 A 
ATOM      5  C   UNL     1       3.156  -5.689   7.455  0.00  0.00    +0.011 A 
ATOM      6  C   UNL     1       3.151  -4.706   6.500  0.00  0.00    +0.046 A 
ENDROOT
BRANCH   4   7
ATOM      7  C   UNL     1       1.960  -7.091   9.122  0.00  0.00    +0.024 C 
ATOM      8  C   UNL     1       2.720  -8.224   8.942  0.00  0.00    +0.078 C 
ATOM      9  C   UNL     1       2.899  -9.233  10.026  0.00  0.00    +0.117 C 
ATOM     10  N   UNL     1       1.983  -9.502  10.916  0.00  0.00    -0.386 N 
ATOM     11  N   UNL     1       4.158  -9.867   9.991  0.00  0.00    -0.203 N 
ATOM     12  C   UNL     1       4.845  -9.895   8.796  0.00  0.00    +0.183 C 
ATOM     13  N   UNL     1       4.498  -9.299   7.677  0.00  0.00    -0.152 NA
ATOM     14  C   UNL     1       3.402  -8.514   7.656  0.00  0.00    +0.273 C 
ATOM     15  O   UNL     1       2.982  -8.050   6.608  0.00  0.00    -0.268 OA
ATOM     16  S   UNL     1       6.181 -10.829   9.146  0.00  0.00    +0.049 S 
ATOM     17  N   UNL     1       5.918 -11.076  10.784  0.00  0.00    -0.174 NA
ATOM     18  C   UNL     1       4.791 -10.479  11.019  0.00  0.00    +0.257 C 
ATOM     19  H   UNL     1       1.173  -8.970  10.955  0.00  0.00    +0.157 HD
ATOM     20  H   UNL     1       2.112 -10.235  11.539  0.00  0.00    +0.157 HD
BRANCH  18  21
ATOM     21  S   UNL     1       4.099 -10.465  12.640  0.00  0.00    +0.026 S 
ATOM     22  O   UNL     1       5.200 -10.704  13.506  0.00  0.00    -0.167 OA
ATOM     23  O   UNL     1       3.372  -9.247  12.713  0.00  0.00    -0.167 OA
ATOM     24  C   UNL     1       2.960 -11.876  12.673  0.00  0.00    +0.203 C 
ENDBRANCH  18  21
ENDBRANCH   4   7
BRANCH   1  25
ATOM     25  O   UNL     1       1.970  -3.071   5.239  0.00  0.00    -0.489 OA
BRANCH  25  26
ATOM     26  C   UNL     1       0.722  -2.434   4.961  0.00  0.00    +0.270 C 
BRANCH  26  27
ATOM     27  C   UNL     1       0.921  -1.370   3.880  0.00  0.00    +0.270 C 
BRANCH  27  28
ATOM     28  O   UNL     1       1.305  -2.001   2.656  0.00  0.00    -0.488 OA
BRANCH  28  34
ATOM     29  C   UNL     1       1.428   2.495   0.760  0.00  0.00    +0.044 C 
ATOM     30  C   UNL     1       1.593   1.003   0.624  0.00  0.00    -0.047 A 
ATOM     31  C   UNL     1       1.967   0.458  -0.590  0.00  0.00    +0.004 A 
ATOM     32  C   UNL     1       2.120  -0.911  -0.718  0.00  0.00    +0.007 A 
ATOM     33  C   UNL     1       1.899  -1.736   0.368  0.00  0.00    -0.009 A 
ATOM     34  C   UNL     1       1.523  -1.191   1.587  0.00  0.00    +0.124 A 
ATOM     35  C   UNL     1       1.377   0.183   1.714  0.00  0.00    +0.049 A 
ATOM     36  C   UNL     1       2.064  -3.227   0.227  0.00  0.00    +0.047 C 
ENDBRANCH  28  34
ENDBRANCH  27  28
ENDBRANCH  26  27
ENDBRANCH  25  26
ENDBRANCH   1  25
TORSDOF 7
