REMARK  Name = ZINC64491445
REMARK  12 active torsions:
REMARK  status: ('A' for Active; 'I' for Inactive)
REMARK    1  A    between atoms: C_1  and  C_2
REMARK    2  A    between atoms: C_2  and  C_3
REMARK    3  A    between atoms: C_2  and  C_4
REMARK    4  A    between atoms: C_2  and  N_5
REMARK    5  A    between atoms: N_5  and  C_6
REMARK    6  A    between atoms: C_7  and  C_32
REMARK    7  A    between atoms: N_15  and  C_16
REMARK    8  A    between atoms: N_15  and  C_17
REMARK    9  A    between atoms: C_17  and  C_18
REMARK   10  A    between atoms: N_20  and  C_21
REMARK   11  A    between atoms: C_21  and  C_22
REMARK   12  A    between atoms: C_22  and  C_23
REMARK                            x       y       z     vdW  Elec       q    Type
REMARK                         _______ _______ _______ _____ _____    ______ ____
ROOT
ATOM      1  C   UNL     1       2.074   0.012  -1.251  0.00  0.00    +0.212 C 
ATOM      2  C   UNL     1       3.003  -1.062  -1.781  0.00  0.00    +0.082 C 
ATOM      3  N   UNL     1       3.249  -0.836  -3.033  0.00  0.00    -0.250 NA
ATOM      4  C   UNL     1       2.483   0.322  -3.483  0.00  0.00    +0.277 C 
ATOM      5  N   UNL     1       2.207   1.105  -2.237  0.00  0.00    -0.196 N 
ATOM      6  N   UNL     1       2.265   2.470  -2.439  0.00  0.00    -0.157 NA
ATOM      7  C   UNL     1       2.954   2.989  -3.421  0.00  0.00    +0.178 C 
ATOM      8  S   UNL     1       3.556   1.546  -4.338  0.00  0.00    -0.041 S 
ATOM      9  N   UNL     1       3.164   4.331  -3.706  0.00  0.00    -0.303 N 
ATOM     10  C   UNL     1       2.576   5.363  -2.848  0.00  0.00    +0.132 C 
ENDROOT
BRANCH   2  11
ATOM     11  C   UNL     1       3.542  -2.188  -0.995  0.00  0.00    -0.001 A 
ATOM     12  C   UNL     1       3.199  -2.330   0.352  0.00  0.00    +0.012 A 
ATOM     13  C   UNL     1       3.705  -3.384   1.082  0.00  0.00    +0.039 A 
ATOM     14  C   UNL     1       4.554  -4.301   0.482  0.00  0.00    +0.123 A 
ATOM     15  C   UNL     1       4.899  -4.165  -0.854  0.00  0.00    +0.039 A 
ATOM     16  C   UNL     1       4.393  -3.118  -1.596  0.00  0.00    +0.012 A 
ATOM     17  F   UNL     1       5.048  -5.332   1.202  0.00  0.00    -0.205 F 
ENDBRANCH   2  11
BRANCH   1  18
ATOM     18  N   UNL     1       0.690  -0.478  -1.207  0.00  0.00    -0.288 NA
ATOM     19  H   UNL     1       0.660  -1.484  -1.268  0.00  0.00    +0.125 HD
BRANCH  18  21
ATOM     20  C   UNL     1      -0.019   1.526   0.010  0.00  0.00    +0.027 C 
ATOM     21  C   UNL     1       0.002  -0.004   0.002  0.00  0.00    +0.013 C 
ATOM     22  C   UNL     1       0.742  -0.511   1.242  0.00  0.00    +0.027 C 
ATOM     23  C   UNL     1      -1.433  -0.534   0.013  0.00  0.00    +0.027 C 
ENDBRANCH  18  21
ENDBRANCH   1  18
BRANCH   9  24
ATOM     24  C   UNL     1       3.975   4.716  -4.864  0.00  0.00    +0.202 C 
BRANCH  24  25
ATOM     25  C   UNL     1       3.087   4.858  -6.074  0.00  0.00    +0.230 C 
ATOM     26  O   UNL     1       1.894   4.658  -5.977  0.00  0.00    -0.274 OA
ATOM     27  N   UNL     1       3.617   5.207  -7.262  0.00  0.00    -0.314 N 
ATOM     28  H   UNL     1       4.571   5.367  -7.339  0.00  0.00    +0.149 HD
BRANCH  27  29
ATOM     29  C   UNL     1       2.754   5.345  -8.438  0.00  0.00    +0.108 C 
BRANCH  29  30
ATOM     30  C   UNL     1       3.600   5.747  -9.648  0.00  0.00    +0.052 C 
BRANCH  30  31
ATOM     31  C   UNL     1       2.712   5.889 -10.857  0.00  0.00    -0.040 C 
ATOM     32  C   UNL     1       2.157   7.029 -11.329  0.00  0.00    -0.001 A 
ATOM     33  C   UNL     1       2.211   8.423 -10.874  0.00  0.00    +0.010 A 
ATOM     34  C   UNL     1       1.534   9.366 -11.568  0.00  0.00    +0.001 A 
ATOM     35  C   UNL     1       0.784   9.046 -12.708  0.00  0.00    +0.002 A 
ATOM     36  C   UNL     1       0.687   7.787 -13.187  0.00  0.00    +0.026 A 
ATOM     37  C   UNL     1       1.359   6.716 -12.535  0.00  0.00    +0.043 A 
ATOM     38  N   UNL     1       1.418   5.434 -12.800  0.00  0.00    -0.380 N 
ATOM     39  C   UNL     1       2.267   4.787 -11.792  0.00  0.00    +0.144 C 
ATOM     40  H   UNL     1       0.978   4.987 -13.540  0.00  0.00    +0.160 HD
ENDBRANCH  30  31
ENDBRANCH  29  30
ENDBRANCH  27  29
ENDBRANCH  24  25
ENDBRANCH   9  24
TORSDOF 8
