REMARK  Name = ZINC08645482
REMARK  7 active torsions:
REMARK  status: ('A' for Active; 'I' for Inactive)
REMARK    1  A    between atoms: C_1  and  C_2
REMARK    2  A    between atoms: C_2  and  C_26
REMARK    3  A    between atoms: N_5  and  C_9
REMARK    4  A    between atoms: C_9  and  C_10
REMARK    5  A    between atoms: N_12  and  C_13
REMARK    6  A    between atoms: C_13  and  C_14
REMARK    7  A    between atoms: N_16  and  C_17
REMARK                            x       y       z     vdW  Elec       q    Type
REMARK                         _______ _______ _______ _____ _____    ______ ____
ROOT
ATOM      1  C   UNL     1      -2.879  -1.663  -0.646  0.00  0.00    +0.047 C 
ATOM      2  C   UNL     1      -2.981  -0.169  -0.333  0.00  0.00    +0.136 C 
ATOM      3  C   UNL     1      -1.808   0.589  -0.923  0.00  0.00    +0.251 C 
ATOM      4  O   UNL     1      -1.512   0.683  -2.095  0.00  0.00    -0.272 OA
ATOM      5  N   UNL     1      -1.163   1.136   0.126  0.00  0.00    -0.215 N 
ATOM      6  C   UNL     1      -1.763   0.838   1.285  0.00  0.00    +0.310 C 
ATOM      7  O   UNL     1      -1.367   1.221   2.368  0.00  0.00    -0.252 OA
ATOM      8  N   UNL     1      -2.852   0.067   1.116  0.00  0.00    -0.281 N 
ATOM      9  H   UNL     1      -3.438  -0.269   1.812  0.00  0.00    +0.152 HD
ENDROOT
BRANCH   2  10
ATOM     10  C   UNL     1      -4.282   0.392  -0.847  0.00  0.00    -0.008 A 
ATOM     11  C   UNL     1      -5.167   0.967   0.013  0.00  0.00    +0.007 A 
ATOM     12  C   UNL     1      -6.372   1.496  -0.445  0.00  0.00    +0.001 A 
ATOM     13  C   UNL     1      -6.705   1.441  -1.764  0.00  0.00    +0.008 A 
ATOM     14  C   UNL     1      -5.820   0.850  -2.681  0.00  0.00    -0.018 A 
ATOM     15  C   UNL     1      -4.591   0.317  -2.216  0.00  0.00    -0.012 A 
ATOM     16  C   UNL     1      -3.706  -0.275  -3.133  0.00  0.00    +0.009 A 
ATOM     17  C   UNL     1      -4.039  -0.330  -4.451  0.00  0.00    +0.001 A 
ATOM     18  C   UNL     1      -5.247   0.194  -4.908  0.00  0.00    +0.001 A 
ATOM     19  C   UNL     1      -6.129   0.775  -4.050  0.00  0.00    +0.008 A 
ENDBRANCH   2  10
BRANCH   5  20
ATOM     20  C   UNL     1       0.043   1.960   0.012  0.00  0.00    +0.213 C 
BRANCH  20  21
ATOM     21  C   UNL     1       1.263   1.079   0.090  0.00  0.00    +0.231 C 
ATOM     22  O   UNL     1       1.137  -0.120   0.228  0.00  0.00    -0.274 OA
ATOM     23  N   UNL     1       2.493   1.622   0.002  0.00  0.00    -0.305 N 
ATOM     24  H   UNL     1       2.594   2.580  -0.108  0.00  0.00    +0.149 HD
BRANCH  23  25
ATOM     25  C   UNL     1       3.679   0.764   0.072  0.00  0.00    +0.200 C 
BRANCH  25  26
ATOM     26  C   UNL     1       4.920   1.611  -0.051  0.00  0.00    +0.234 C 
ATOM     27  O   UNL     1       4.822   2.813  -0.184  0.00  0.00    -0.274 OA
ATOM     28  N   UNL     1       6.136   1.033  -0.013  0.00  0.00    -0.282 N 
ATOM     29  H   UNL     1       6.216   0.080   0.149  0.00  0.00    +0.155 HD
BRANCH  28  30
ATOM     30  C   UNL     1       7.287   1.809  -0.208  0.00  0.00    +0.072 A 
ATOM     31  C   UNL     1       7.319   3.127   0.227  0.00  0.00    +0.029 A 
ATOM     32  C   UNL     1       8.453   3.891   0.035  0.00  0.00    +0.043 A 
ATOM     33  C   UNL     1       9.560   3.345  -0.592  0.00  0.00    +0.161 A 
ATOM     34  C   UNL     1       9.533   2.030  -1.029  0.00  0.00    +0.195 A 
ATOM     35  C   UNL     1       8.400   1.259  -0.834  0.00  0.00    +0.182 A 
ATOM     36  F   UNL     1       8.374  -0.025  -1.254  0.00  0.00    -0.200 F 
ATOM     37  F   UNL     1      10.615   1.499  -1.641  0.00  0.00    -0.199 F 
ATOM     38  F   UNL     1      10.668   4.096  -0.779  0.00  0.00    -0.202 F 
ENDBRANCH  28  30
ENDBRANCH  25  26
ENDBRANCH  23  25
ENDBRANCH  20  21
ENDBRANCH   5  20
TORSDOF 6
