REMARK  Name = ZINC63686255
REMARK  8 active torsions:
REMARK  status: ('A' for Active; 'I' for Inactive)
REMARK    1  A    between atoms: C_4  and  N_7
REMARK    2  A    between atoms: C_8  and  C_10
REMARK    3  A    between atoms: C_14  and  C_17
REMARK    4  A    between atoms: C_17  and  C_18
REMARK    5  A    between atoms: C_18  and  C_19
REMARK    6  A    between atoms: N_21  and  C_22
REMARK    7  A    between atoms: C_22  and  C_23
REMARK    8  A    between atoms: C_23  and  C_24
REMARK                            x       y       z     vdW  Elec       q    Type
REMARK                         _______ _______ _______ _____ _____    ______ ____
ROOT
ATOM      1  C   UNL     1       8.728  -2.802   1.113  0.00  0.00    +0.040 C 
ENDROOT
BRANCH   1   5
ATOM      2  C   UNL     1       4.962  -2.721   0.153  0.00  0.00    +0.214 C 
ATOM      3  N   UNL     1       5.761  -2.572  -1.104  0.00  0.00    -0.234 NA
ATOM      4  N   UNL     1       7.172  -2.816  -0.830  0.00  0.00    -0.242 NA
ATOM      5  C   UNL     1       7.651  -2.034   0.344  0.00  0.00    +0.129 C 
ATOM      6  S   UNL     1       6.105  -1.889   1.339  0.00  0.00    -0.112 S 
ATOM      7  H   UNL     1       5.625  -1.660  -1.513  0.00  0.00    +0.142 HD
ATOM      8  H   UNL     1       7.737  -2.628  -1.644  0.00  0.00    +0.142 HD
BRANCH   2  10
ATOM      9  N   UNL     1       3.622  -0.651  -0.037  0.00  0.00    -0.283 N 
ATOM     10  C   UNL     1       3.645  -1.995   0.057  0.00  0.00    +0.246 C 
ATOM     11  O   UNL     1       2.606  -2.620   0.064  0.00  0.00    -0.273 OA
ATOM     12  H   UNL     1       4.452  -0.156  -0.121  0.00  0.00    +0.155 HD
BRANCH   9  16
ATOM     13  C   UNL     1      -0.015   1.381   0.030  0.00  0.00    +0.000 A 
ATOM     14  C   UNL     1       0.140   0.219   0.763  0.00  0.00    +0.002 A 
ATOM     15  C   UNL     1       1.344  -0.457   0.743  0.00  0.00    +0.023 A 
ATOM     16  C   UNL     1       2.400   0.031  -0.015  0.00  0.00    +0.033 A 
ATOM     17  C   UNL     1       2.241   1.198  -0.751  0.00  0.00    +0.023 A 
ATOM     18  C   UNL     1       1.034   1.870  -0.726  0.00  0.00    +0.002 A 
ENDBRANCH   9  16
ENDBRANCH   2  10
ENDBRANCH   1   5
BRANCH   1  19
ATOM     19  C   UNL     1       9.194  -1.968   2.308  0.00  0.00    +0.098 C 
BRANCH  19  20
ATOM     20  C   UNL     1      10.255  -2.724   3.066  0.00  0.00    +0.213 C 
ATOM     21  O   UNL     1      10.605  -3.821   2.687  0.00  0.00    -0.276 OA
ATOM     22  N   UNL     1      10.815  -2.180   4.164  0.00  0.00    -0.315 N 
ATOM     23  H   UNL     1      10.535  -1.302   4.467  0.00  0.00    +0.149 HD
BRANCH  22  24
ATOM     24  C   UNL     1      11.847  -2.914   4.900  0.00  0.00    +0.108 C 
BRANCH  24  25
ATOM     25  C   UNL     1      12.312  -2.080   6.096  0.00  0.00    +0.052 C 
BRANCH  25  26
ATOM     26  C   UNL     1      13.373  -2.836   6.853  0.00  0.00    -0.040 C 
ATOM     27  C   UNL     1      14.713  -2.715   6.714  0.00  0.00    -0.001 A 
ATOM     28  C   UNL     1      15.552  -1.876   5.849  0.00  0.00    +0.010 A 
ATOM     29  C   UNL     1      16.897  -1.980   5.939  0.00  0.00    +0.001 A 
ATOM     30  C   UNL     1      17.510  -2.867   6.835  0.00  0.00    +0.002 A 
ATOM     31  C   UNL     1      16.807  -3.670   7.661  0.00  0.00    +0.026 A 
ATOM     32  C   UNL     1      15.385  -3.643   7.652  0.00  0.00    +0.043 A 
ATOM     33  N   UNL     1      14.494  -4.312   8.344  0.00  0.00    -0.380 N 
ATOM     34  C   UNL     1      13.156  -3.879   7.926  0.00  0.00    +0.144 C 
ATOM     35  H   UNL     1      14.688  -4.979   9.021  0.00  0.00    +0.160 HD
ENDBRANCH  25  26
ENDBRANCH  24  25
ENDBRANCH  22  24
ENDBRANCH  19  20
ENDBRANCH   1  19
TORSDOF 8
