REMARK  Name = ZINC41023796
REMARK  7 active torsions:
REMARK  status: ('A' for Active; 'I' for Inactive)
REMARK    1  A    between atoms: C_1  and  C_2
REMARK    2  A    between atoms: C_2  and  C_4
REMARK    3  A    between atoms: C_2  and  N_20
REMARK    4  A    between atoms: C_7  and  S_11
REMARK    5  A    between atoms: S_11  and  C_12
REMARK    6  A    between atoms: C_16  and  N_18
REMARK    7  A    between atoms: N_20  and  C_21
REMARK                            x       y       z     vdW  Elec       q    Type
REMARK                         _______ _______ _______ _____ _____    ______ ____
ROOT
ATOM      1  C   UNL     1      -1.412  -0.524   0.003  0.00  0.00    -0.059 A 
ATOM      2  C   UNL     1      -2.078  -0.680   1.205  0.00  0.00    +0.003 A 
ATOM      3  C   UNL     1      -3.374  -1.158   1.223  0.00  0.00    +0.018 A 
ATOM      4  C   UNL     1      -4.009  -1.483   0.031  0.00  0.00    +0.051 A 
ATOM      5  C   UNL     1      -3.337  -1.326  -1.177  0.00  0.00    +0.137 A 
ATOM      6  C   UNL     1      -2.042  -0.841  -1.186  0.00  0.00    +0.041 A 
ATOM      7  F   UNL     1      -3.951  -1.640  -2.338  0.00  0.00    -0.204 F 
ENDROOT
BRANCH   1   9
ATOM      8  C   UNL     1      -0.016   1.520   0.141  0.00  0.00    -0.009 C 
ATOM      9  C   UNL     1       0.001  -0.002  -0.011  0.00  0.00    -0.044 C 
BRANCH   9  10
ATOM     10  N   UNL     1       0.754  -0.597   1.102  0.00  0.00    +0.382 N 
ATOM     11  C   UNL     1       2.161  -0.182   1.019  0.00  0.00    -0.100 C 
ATOM     12  H   UNL     1       0.362  -0.284   1.978  0.00  0.00    -0.085 HD
ATOM     13  H   UNL     1       0.696  -1.603   1.048  0.00  0.00    -0.085 HD
ENDBRANCH   9  10
ENDBRANCH   1   9
BRANCH   4  14
ATOM     14  S   UNL     1      -5.662  -2.095   0.050  0.00  0.00    -0.047 S 
BRANCH  14  15
ATOM     15  C   UNL     1      -5.481  -3.821  -0.250  0.00  0.00    +0.196 A 
ATOM     16  N   UNL     1      -4.264  -4.341  -0.315  0.00  0.00    -0.207 NA
ATOM     17  C   UNL     1      -4.089  -5.641  -0.539  0.00  0.00    +0.122 A 
ATOM     18  C   UNL     1      -5.205  -6.456  -0.708  0.00  0.00    +0.086 A 
ATOM     19  C   UNL     1      -6.467  -5.874  -0.634  0.00  0.00    +0.122 A 
ATOM     20  N   UNL     1      -6.565  -4.567  -0.401  0.00  0.00    -0.207 NA
ATOM     21  N   UNL     1      -2.812  -6.177  -0.606  0.00  0.00    -0.343 N 
ATOM     22  H   UNL     1      -2.039  -5.603  -0.487  0.00  0.00    +0.144 HD
ATOM     23  H   UNL     1      -2.692  -7.125  -0.770  0.00  0.00    +0.144 HD
BRANCH  19  24
ATOM     24  N   UNL     1      -7.607  -6.646  -0.796  0.00  0.00    -0.343 N 
ATOM     25  H   UNL     1      -7.528  -7.598  -0.962  0.00  0.00    +0.144 HD
ATOM     26  H   UNL     1      -8.483  -6.234  -0.743  0.00  0.00    +0.144 HD
ENDBRANCH  19  24
ENDBRANCH  14  15
ENDBRANCH   4  14
TORSDOF 5
