REMARK  Name = ZINC19113606
REMARK  4 active torsions:
REMARK  status: ('A' for Active; 'I' for Inactive)
REMARK    1  A    between atoms: C_16  and  C_35
REMARK    2  A    between atoms: C_17  and  C_20
REMARK    3  A    between atoms: N_22  and  C_23
REMARK    4  A    between atoms: C_23  and  C_24
REMARK                            x       y       z     vdW  Elec       q    Type
REMARK                         _______ _______ _______ _____ _____    ______ ____
ROOT
ATOM      1  C   UNL     1      -1.234   3.135   0.030  0.00  0.00    +0.000 A 
ATOM      2  C   UNL     1      -1.216   1.752   0.017  0.00  0.00    +0.001 A 
ATOM      3  C   UNL     1      -0.013   1.076   0.008  0.00  0.00    +0.010 A 
ATOM      4  C   UNL     1       1.181   1.789   0.000  0.00  0.00    +0.004 A 
ATOM      5  C   UNL     1       1.160   3.184  -0.016  0.00  0.00    -0.038 A 
ATOM      6  C   UNL     1      -0.049   3.849   0.011  0.00  0.00    +0.004 A 
ATOM      7  C   UNL     1       2.449   3.958  -0.095  0.00  0.00    +0.040 C 
ATOM      8  C   UNL     1       3.551   3.261   0.698  0.00  0.00    +0.043 C 
ATOM      9  C   UNL     1       3.641   1.809   0.320  0.00  0.00    -0.003 A 
ATOM     10  C   UNL     1       2.487   1.094  -0.003  0.00  0.00    +0.080 A 
ATOM     11  N   UNL     1       2.586  -0.194  -0.311  0.00  0.00    -0.210 NA
ATOM     12  C   UNL     1       3.769  -0.787  -0.323  0.00  0.00    +0.252 A 
ATOM     13  N   UNL     1       4.882  -0.131  -0.035  0.00  0.00    -0.219 NA
ATOM     14  C   UNL     1       4.856   1.154   0.288  0.00  0.00    +0.120 A 
ATOM     15  N   UNL     1       3.846  -2.139  -0.649  0.00  0.00    -0.194 N 
ATOM     16  C   UNL     1       4.987  -2.886  -0.704  0.00  0.00    +0.125 A 
ATOM     17  C   UNL     1       4.605  -4.182  -1.067  0.00  0.00    +0.085 A 
ATOM     18  C   UNL     1       3.202  -4.171  -1.222  0.00  0.00    +0.148 A 
ATOM     19  N   UNL     1       2.765  -2.968  -0.970  0.00  0.00    -0.171 NA
ENDROOT
BRANCH  16  20
ATOM     20  C   UNL     1       6.351  -2.420  -0.434  0.00  0.00    +0.154 A 
ATOM     21  C   UNL     1       6.911  -1.264  -0.900  0.00  0.00    +0.051 A 
ATOM     22  C   UNL     1       8.223  -1.219  -0.397  0.00  0.00    +0.042 A 
ATOM     23  C   UNL     1       8.405  -2.338   0.337  0.00  0.00    +0.196 A 
ATOM     24  O   UNL     1       7.274  -3.059   0.312  0.00  0.00    -0.461 OA
ENDBRANCH  16  20
BRANCH  17  25
ATOM     25  C   UNL     1       5.495  -5.336  -1.251  0.00  0.00    +0.248 C 
ATOM     26  O   UNL     1       6.694  -5.212  -1.085  0.00  0.00    -0.270 OA
ATOM     27  N   UNL     1       4.984  -6.532  -1.604  0.00  0.00    -0.311 N 
ATOM     28  H   UNL     1       4.028  -6.631  -1.736  0.00  0.00    +0.149 HD
BRANCH  27  29
ATOM     29  C   UNL     1       5.872  -7.683  -1.788  0.00  0.00    +0.106 C 
BRANCH  29  30
ATOM     30  C   UNL     1       5.044  -8.907  -2.183  0.00  0.00    -0.008 C 
ATOM     31  C   UNL     1       4.112  -9.284  -1.030  0.00  0.00    +0.002 C 
ATOM     32  C   UNL     1       4.958  -9.658   0.187  0.00  0.00    -0.018 C 
ATOM     33  C   UNL     1       5.875 -10.823  -0.187  0.00  0.00    -0.078 C 
ATOM     34  C   UNL     1       5.983 -10.077  -2.496  0.00  0.00    -0.064 C 
ATOM     35  C   UNL     1       6.926  -9.641  -3.622  0.00  0.00    -0.015 C 
ATOM     36  C   UNL     1       7.916 -10.765  -3.935  0.00  0.00    -0.003 C 
ATOM     37  C   UNL     1       8.692 -11.109  -2.659  0.00  0.00    -0.019 C 
ATOM     38  C   UNL     1       7.699 -11.531  -1.577  0.00  0.00    -0.078 C 
ATOM     39  N   UNL     1       6.772 -10.423  -1.287  0.00  0.00    +0.382 N 
ATOM     40  H   UNL     1       7.313  -9.599  -0.997  0.00  0.00    -0.081 HD
ENDBRANCH  29  30
ENDBRANCH  27  29
ENDBRANCH  17  25
TORSDOF 4
