REMARK  Name = ZINC01628473
REMARK  8 active torsions:
REMARK  status: ('A' for Active; 'I' for Inactive)
REMARK    1  A    between atoms: C_1  and  S_2
REMARK    2  A    between atoms: S_2  and  C_3
REMARK    3  A    between atoms: C_11  and  N_24
REMARK    4  A    between atoms: C_17  and  O_23
REMARK    5  A    between atoms: C_18  and  O_22
REMARK    6  A    between atoms: C_19  and  O_21
REMARK    7  A    between atoms: C_25  and  C_27
REMARK    8  A    between atoms: C_30  and  C_33
REMARK                            x       y       z     vdW  Elec       q    Type
REMARK                         _______ _______ _______ _____ _____    ______ ____
ROOT
ATOM      1  C   UNL     1      -1.688   2.393   4.575  0.00  0.00    +0.054 A 
ATOM      2  C   UNL     1      -2.523   3.372   4.123  0.00  0.00    +0.019 A 
ATOM      3  C   UNL     1      -2.888   3.648   2.860  0.00  0.00    +0.010 A 
ATOM      4  C   UNL     1      -2.545   3.100   1.649  0.00  0.00    -0.009 A 
ATOM      5  C   UNL     1      -1.625   2.073   1.442  0.00  0.00    -0.016 A 
ATOM      6  C   UNL     1      -0.999   1.383   2.413  0.00  0.00    +0.058 A 
ATOM      7  C   UNL     1      -1.023   1.466   3.775  0.00  0.00    +0.193 A 
ATOM      8  O   UNL     1      -0.376   0.616   4.371  0.00  0.00    -0.287 OA
ATOM      9  C   UNL     1      -1.290   1.681   0.017  0.00  0.00    +0.104 C 
ATOM     10  C   UNL     1      -2.357   0.792  -0.588  0.00  0.00    +0.032 C 
ATOM     11  C   UNL     1      -3.754   1.327  -0.284  0.00  0.00    +0.038 C 
ATOM     12  C   UNL     1      -3.785   2.818  -0.502  0.00  0.00    -0.032 A 
ATOM     13  C   UNL     1      -3.215   3.667   0.441  0.00  0.00    +0.031 A 
ATOM     14  C   UNL     1      -3.253   5.052   0.256  0.00  0.00    +0.170 A 
ATOM     15  C   UNL     1      -3.856   5.573  -0.883  0.00  0.00    +0.201 A 
ATOM     16  C   UNL     1      -4.415   4.716  -1.825  0.00  0.00    +0.162 A 
ATOM     17  C   UNL     1      -4.379   3.341  -1.632  0.00  0.00    +0.053 A 
ENDROOT
BRANCH   9  18
ATOM     18  N   UNL     1      -0.011   0.966   0.007  0.00  0.00    -0.304 N 
ATOM     19  C   UNL     1       1.147   1.655   0.000  0.00  0.00    +0.245 C 
ATOM     20  O   UNL     1       1.130   2.871   0.007  0.00  0.00    -0.270 OA
ATOM     21  H   UNL     1       0.002  -0.004   0.002  0.00  0.00    +0.150 HD
BRANCH  19  22
ATOM     22  C   UNL     1       2.438   0.933  -0.016  0.00  0.00    +0.037 A 
ATOM     23  C   UNL     1       2.457  -0.463  -0.018  0.00  0.00    +0.014 A 
ATOM     24  C   UNL     1       3.658  -1.135  -0.038  0.00  0.00    +0.019 A 
ATOM     25  C   UNL     1       4.858  -0.421  -0.045  0.00  0.00    +0.052 A 
ATOM     26  C   UNL     1       4.839   0.976  -0.038  0.00  0.00    +0.019 A 
ATOM     27  C   UNL     1       3.637   1.648  -0.024  0.00  0.00    +0.014 A 
BRANCH  25  28
ATOM     28  C   UNL     1       6.108  -1.120  -0.059  0.00  0.00    +0.099 C 
ATOM     29  N   UNL     1       7.099  -1.674  -0.071  0.00  0.00    -0.191 NA
ENDBRANCH  25  28
ENDBRANCH  19  22
ENDBRANCH   9  18
BRANCH   1  31
ATOM     30  C   UNL     1      -2.473   3.663   6.869  0.00  0.00    +0.090 C 
ATOM     31  S   UNL     1      -1.427   2.293   6.315  0.00  0.00    -0.125 S 
ENDBRANCH   1  31
BRANCH  16  32
ATOM     32  O   UNL     1      -5.001   5.227  -2.940  0.00  0.00    -0.503 OA
ATOM     33  H   UNL     1      -5.944   5.414  -2.838  0.00  0.00    +0.292 HD
ENDBRANCH  16  32
BRANCH  15  34
ATOM     34  O   UNL     1      -3.899   6.919  -1.076  0.00  0.00    -0.501 OA
ATOM     35  H   UNL     1      -4.685   7.345  -0.706  0.00  0.00    +0.292 HD
ENDBRANCH  15  34
BRANCH  14  36
ATOM     36  O   UNL     1      -2.704   5.882   1.181  0.00  0.00    -0.503 OA
ATOM     37  H   UNL     1      -3.318   6.159   1.875  0.00  0.00    +0.292 HD
ENDBRANCH  14  36
TORSDOF 7
