REMARK  Name = ZINC65944745
REMARK  3 active torsions:
REMARK  status: ('A' for Active; 'I' for Inactive)
REMARK    1  A    between atoms: C_9  and  C_13
REMARK    2  A    between atoms: C_13  and  N_14
REMARK    3  A    between atoms: N_19  and  C_20
REMARK                            x       y       z     vdW  Elec       q    Type
REMARK                         _______ _______ _______ _____ _____    ______ ____
ROOT
ATOM      1  C   UNL     1      -0.615   1.602   0.558  0.00  0.00    +0.005 C 
ATOM      2  C   UNL     1       0.730   2.328   0.658  0.00  0.00    +0.005 C 
ATOM      3  C   UNL     1       1.390   1.956   1.994  0.00  0.00    +0.043 C 
ATOM      4  C   UNL     1       1.322   0.469   2.159  0.00  0.00    -0.004 A 
ATOM      5  C   UNL     1       0.553  -0.398   1.462  0.00  0.00    -0.025 A 
ATOM      6  C   UNL     1       0.670  -1.803   1.816  0.00  0.00    +0.051 A 
ATOM      7  C   UNL     1      -0.029  -2.898   1.232  0.00  0.00    +0.131 A 
ATOM      8  N   UNL     1       0.254  -4.100   1.731  0.00  0.00    -0.219 NA
ATOM      9  C   UNL     1       1.119  -4.308   2.704  0.00  0.00    +0.116 A 
ATOM     10  N   UNL     1       1.802  -3.333   3.292  0.00  0.00    -0.227 NA
ATOM     11  C   UNL     1       1.583  -2.108   2.857  0.00  0.00    +0.114 A 
ATOM     12  S   UNL     1       2.231  -0.532   3.310  0.00  0.00    -0.073 S 
ATOM     13  N   UNL     1      -0.945  -2.724   0.210  0.00  0.00    -0.317 N 
ATOM     14  C   UNL     1      -0.382   0.104   0.364  0.00  0.00    +0.037 C 
ATOM     15  H   UNL     1      -1.068  -1.848  -0.187  0.00  0.00    +0.148 HD
ENDROOT
BRANCH  13  16
ATOM     16  C   UNL     1      -1.730  -3.864  -0.272  0.00  0.00    +0.158 C 
ATOM     17  C   UNL     1      -3.022  -3.361  -0.920  0.00  0.00    +0.032 C 
ATOM     18  C   UNL     1      -4.096  -4.433  -0.881  0.00  0.00    +0.004 C 
ATOM     19  C   UNL     1      -3.785  -5.643  -1.744  0.00  0.00    +0.019 C 
ATOM     20  C   UNL     1      -2.585  -6.413  -1.191  0.00  0.00    +0.104 C 
ATOM     21  N   UNL     1      -1.353  -5.819  -1.735  0.00  0.00    -0.314 N 
ATOM     22  C   UNL     1      -0.935  -4.625  -1.313  0.00  0.00    +0.233 C 
ATOM     23  O   UNL     1       0.084  -4.147  -1.764  0.00  0.00    -0.274 OA
ATOM     24  H   UNL     1      -0.841  -6.299  -2.404  0.00  0.00    +0.149 HD
ENDBRANCH  13  16
BRANCH   9  25
ATOM     25  C   UNL     1       1.342  -5.723   3.172  0.00  0.00    -0.001 C 
BRANCH  25  26
ATOM     26  N   UNL     1       2.428  -6.331   2.392  0.00  0.00    +0.384 N 
ATOM     27  C   UNL     1       3.723  -5.686   2.728  0.00  0.00    -0.078 C 
ATOM     28  C   UNL     1       4.768  -6.749   2.304  0.00  0.00    -0.020 C 
ATOM     29  C   UNL     1       4.085  -8.080   2.693  0.00  0.00    -0.020 C 
ATOM     30  C   UNL     1       2.581  -7.756   2.756  0.00  0.00    -0.078 C 
ATOM     31  H   UNL     1       2.240  -6.242   1.405  0.00  0.00    -0.081 HD
ENDBRANCH  25  26
ENDBRANCH   9  25
TORSDOF 3
