REMARK  Name = ZINC01378384
REMARK  7 active torsions:
REMARK  status: ('A' for Active; 'I' for Inactive)
REMARK    1  A    between atoms: C_1  and  C_2
REMARK    2  A    between atoms: C_7  and  C_15
REMARK    3  A    between atoms: C_13  and  C_14
REMARK    4  A    between atoms: C_15  and  N_16
REMARK    5  A    between atoms: N_16  and  C_17
REMARK    6  A    between atoms: C_17  and  C_18
REMARK    7  A    between atoms: N_26  and  C_27
REMARK                            x       y       z     vdW  Elec       q    Type
REMARK                         _______ _______ _______ _____ _____    ______ ____
ROOT
ATOM      1  N   UNL     1       2.904   3.982   1.382  0.00  0.00    -0.277 N 
ATOM      2  C   UNL     1       3.753   3.112   1.965  0.00  0.00    +0.307 C 
ATOM      3  O   UNL     1       4.135   2.134   1.353  0.00  0.00    -0.252 OA
ATOM      4  N   UNL     1       4.177   3.327   3.226  0.00  0.00    -0.267 N 
ATOM      5  H   UNL     1       3.941   4.149   3.684  0.00  0.00    +0.156 HD
ENDROOT
BRANCH   4   6
ATOM      6  C   UNL     1       4.959   2.363   3.875  0.00  0.00    +0.070 A 
ATOM      7  C   UNL     1       4.893   1.033   3.482  0.00  0.00    +0.026 A 
ATOM      8  C   UNL     1       5.669   0.086   4.120  0.00  0.00    +0.002 A 
ATOM      9  C   UNL     1       6.504   0.457   5.158  0.00  0.00    +0.003 A 
ATOM     10  C   UNL     1       6.570   1.780   5.557  0.00  0.00    +0.040 A 
ATOM     11  C   UNL     1       5.799   2.735   4.919  0.00  0.00    +0.145 A 
ATOM     12  F   UNL     1       5.862   4.026   5.309  0.00  0.00    -0.204 F 
ENDBRANCH   4   6
BRANCH   1  13
ATOM     13  C   UNL     1       2.442   3.749   0.012  0.00  0.00    +0.150 C 
BRANCH  13  20
ATOM     14  C   UNL     1      -5.023   0.942   0.103  0.00  0.00    +0.044 C 
ATOM     15  C   UNL     1      -3.712   1.683   0.069  0.00  0.00    -0.046 A 
ATOM     16  C   UNL     1      -3.708   3.068  -0.034  0.00  0.00    +0.004 A 
ATOM     17  C   UNL     1      -2.530   3.759  -0.066  0.00  0.00    +0.010 A 
ATOM     18  C   UNL     1      -1.317   3.066   0.004  0.00  0.00    -0.001 A 
ATOM     19  C   UNL     1      -0.036   3.775  -0.028  0.00  0.00    +0.020 A 
ATOM     20  C   UNL     1       1.108   3.050   0.043  0.00  0.00    +0.035 A 
ATOM     21  C   UNL     1       1.052   1.643   0.146  0.00  0.00    +0.254 A 
ATOM     22  O   UNL     1       2.092   1.011   0.209  0.00  0.00    -0.268 OA
ATOM     23  N   UNL     1      -0.119   0.984   0.176  0.00  0.00    -0.322 N 
ATOM     24  H   UNL     1      -0.121   0.016   0.247  0.00  0.00    +0.169 HD
ATOM     25  C   UNL     1      -1.317   1.662   0.102  0.00  0.00    +0.052 A 
ATOM     26  C   UNL     1      -2.529   0.980   0.140  0.00  0.00    -0.024 A 
ATOM     27  C   UNL     1      -2.548  -0.523   0.252  0.00  0.00    +0.046 C 
ENDBRANCH  13  20
ENDBRANCH   1  13
BRANCH   1  28
ATOM     28  C   UNL     1       2.443   5.161   2.120  0.00  0.00    +0.144 C 
BRANCH  28  29
ATOM     29  C   UNL     1       3.317   6.340   1.779  0.00  0.00    -0.030 A 
ATOM     30  C   UNL     1       4.499   6.546   2.465  0.00  0.00    +0.005 A 
ATOM     31  C   UNL     1       5.303   7.625   2.149  0.00  0.00    +0.000 A 
ATOM     32  C   UNL     1       4.920   8.504   1.153  0.00  0.00    +0.000 A 
ATOM     33  C   UNL     1       3.735   8.302   0.471  0.00  0.00    +0.000 A 
ATOM     34  C   UNL     1       2.934   7.220   0.783  0.00  0.00    +0.005 A 
ENDBRANCH  28  29
ENDBRANCH   1  28
TORSDOF 5
