REMARK  Name = ZINC00288854
REMARK  4 active torsions:
REMARK  status: ('A' for Active; 'I' for Inactive)
REMARK    1  A    between atoms: C_4  and  C_8
REMARK    2  A    between atoms: C_13  and  N_22
REMARK    3  A    between atoms: C_17  and  N_21
REMARK    4  A    between atoms: C_18  and  C_19
REMARK                            x       y       z     vdW  Elec       q    Type
REMARK                         _______ _______ _______ _____ _____    ______ ____
ROOT
ATOM      1  C   UNL     1       3.663   2.210  -0.021  0.00  0.00    +0.102 C 
ATOM      2  C   UNL     1       2.380   1.421  -0.013  0.00  0.00    +0.008 A 
ATOM      3  C   UNL     1       1.170   2.091   0.002  0.00  0.00    +0.010 A 
ATOM      4  C   UNL     1      -0.017   1.385   0.010  0.00  0.00    +0.023 A 
ATOM      5  C   UNL     1       0.002  -0.004   0.002  0.00  0.00    +0.028 A 
ATOM      6  C   UNL     1       1.214  -0.678  -0.013  0.00  0.00    +0.069 A 
ATOM      7  C   UNL     1       2.406   0.035  -0.021  0.00  0.00    +0.136 A 
ATOM      8  O   UNL     1       3.582  -0.639  -0.037  0.00  0.00    -0.441 OA
ATOM      9  C   UNL     1       4.714  -0.020   0.339  0.00  0.00    +0.199 C 
ATOM     10  C   UNL     1       4.817   1.329   0.368  0.00  0.00    +0.098 C 
ENDROOT
BRANCH   1  14
ATOM     11  C   UNL     1       4.333   3.767  -3.945  0.00  0.00    +0.004 A 
ATOM     12  C   UNL     1       4.191   4.631  -2.874  0.00  0.00    +0.039 A 
ATOM     13  C   UNL     1       3.974   4.127  -1.603  0.00  0.00    +0.129 A 
ATOM     14  C   UNL     1       3.898   2.759  -1.405  0.00  0.00    +0.019 A 
ATOM     15  C   UNL     1       4.046   1.897  -2.476  0.00  0.00    +0.048 A 
ATOM     16  C   UNL     1       4.258   2.402  -3.747  0.00  0.00    +0.020 A 
ATOM     17 CL   UNL     1       3.959   0.181  -2.227  0.00  0.00    -0.083 Cl
ATOM     18  F   UNL     1       3.836   4.971  -0.557  0.00  0.00    -0.205 F 
ENDBRANCH   1  14
BRANCH   9  19
ATOM     19  N   UNL     1       5.798  -0.779   0.704  0.00  0.00    -0.328 N 
ATOM     20  H   UNL     1       5.740  -1.747   0.689  0.00  0.00    +0.145 HD
ATOM     21  H   UNL     1       6.622  -0.347   0.978  0.00  0.00    +0.145 HD
ENDBRANCH   9  19
BRANCH   5  22
ATOM     22  N   UNL     1      -1.197  -0.720   0.009  0.00  0.00    -0.358 N 
ATOM     23  H   UNL     1      -2.044  -0.248   0.020  0.00  0.00    +0.142 HD
ATOM     24  H   UNL     1      -1.183  -1.690   0.004  0.00  0.00    +0.142 HD
ENDBRANCH   5  22
BRANCH  10  25
ATOM     25  C   UNL     1       6.050   1.930   0.779  0.00  0.00    +0.101 C 
ATOM     26  N   UNL     1       7.028   2.407   1.105  0.00  0.00    -0.191 NA
ENDBRANCH  10  25
TORSDOF 4
