REMARK  Name = ZINC34926929
REMARK  1 active torsions:
REMARK  status: ('A' for Active; 'I' for Inactive)
REMARK    1  A    between atoms: C_3  and  C_9
REMARK                            x       y       z     vdW  Elec       q    Type
REMARK                         _______ _______ _______ _____ _____    ______ ____
ROOT
ATOM      1  C   UNL     1       3.671   2.185  -0.023  0.00  0.00    +0.192 C 
ATOM      2  N   UNL     1       4.684   1.464   0.768  0.00  0.00    -0.297 N 
ATOM      3  C   UNL     1       4.550   1.532   2.147  0.00  0.00    +0.158 C 
ATOM      4  N   UNL     1       4.249   2.777   2.679  0.00  0.00    -0.271 N 
ATOM      5  C   UNL     1       3.715   3.723   1.884  0.00  0.00    +0.138 C 
ATOM      6  S   UNL     1       3.345   5.255   2.552  0.00  0.00    -0.018 S 
ATOM      7  N   UNL     1       3.462   3.505   0.579  0.00  0.00    -0.304 N 
ATOM      8  N   UNL     1       4.697   0.481   2.903  0.00  0.00    -0.375 N 
ATOM      9  H   UNL     1       5.405   0.969   0.347  0.00  0.00    +0.151 HD
ATOM     10  H   UNL     1       3.136   4.233   0.026  0.00  0.00    +0.150 HD
ATOM     11  H   UNL     1       4.907  -0.378   2.504  0.00  0.00    +0.158 HD
ATOM     12  H   UNL     1       4.422   2.965   3.615  0.00  0.00    +0.156 HD
ATOM     13  H   UNL     1       4.597   0.558   3.865  0.00  0.00    +0.158 HD
ENDROOT
BRANCH   1  16
ATOM     14  C   UNL     1      -0.017   1.379   0.010  0.00  0.00    +0.020 A 
ATOM     15  C   UNL     1       1.171   2.087   0.002  0.00  0.00    +0.010 A 
ATOM     16  C   UNL     1       2.377   1.413  -0.013  0.00  0.00    +0.009 A 
ATOM     17  C   UNL     1       2.397   0.029  -0.021  0.00  0.00    +0.049 A 
ATOM     18  C   UNL     1       1.210  -0.679  -0.013  0.00  0.00    +0.040 A 
ATOM     19  C   UNL     1       0.002  -0.004   0.002  0.00  0.00    +0.042 A 
ATOM     20 CL   UNL     1      -1.489  -0.893   0.012  0.00  0.00    -0.083 Cl
ATOM     21 CL   UNL     1       3.913  -0.817  -0.041  0.00  0.00    -0.083 Cl
ENDBRANCH   1  16
TORSDOF 1
