REMARK  Name = ZINC13548698
REMARK  6 active torsions:
REMARK  status: ('A' for Active; 'I' for Inactive)
REMARK    1  A    between atoms: C_7  and  N_18
REMARK    2  A    between atoms: C_9  and  C_11
REMARK    3  A    between atoms: C_16  and  O_17
REMARK    4  A    between atoms: N_18  and  N_19
REMARK    5  A    between atoms: C_20  and  C_21
REMARK    6  A    between atoms: C_26  and  O_27
REMARK                            x       y       z     vdW  Elec       q    Type
REMARK                         _______ _______ _______ _____ _____    ______ ____
ROOT
ATOM      1  C   UNL     1       7.215   0.113  -0.068  0.00  0.00    +0.001 A 
ATOM      2  C   UNL     1       7.177   1.504  -0.061  0.00  0.00    +0.002 A 
ATOM      3  C   UNL     1       5.990   2.174  -0.045  0.00  0.00    +0.028 A 
ATOM      4  C   UNL     1       4.787   1.453  -0.037  0.00  0.00    +0.077 A 
ATOM      5  C   UNL     1       4.829   0.037  -0.045  0.00  0.00    +0.042 A 
ATOM      6  C   UNL     1       6.064  -0.620  -0.061  0.00  0.00    +0.013 A 
ATOM      7  C   UNL     1       3.601  -0.672  -0.036  0.00  0.00    +0.150 A 
ATOM      8  N   UNL     1       2.473   0.024  -0.021  0.00  0.00    -0.210 NA
ATOM      9  C   UNL     1       2.480   1.356  -0.014  0.00  0.00    +0.166 A 
ATOM     10  N   UNL     1       3.595   2.064  -0.027  0.00  0.00    -0.227 NA
ENDROOT
BRANCH   9  11
ATOM     11  C   UNL     1       1.184   2.072   0.002  0.00  0.00    +0.061 A 
ATOM     12  C   UNL     1       1.154   3.466   0.009  0.00  0.00    +0.015 A 
ATOM     13  C   UNL     1      -0.056   4.128   0.024  0.00  0.00    +0.001 A 
ATOM     14  C   UNL     1      -1.242   3.414   0.031  0.00  0.00    +0.004 A 
ATOM     15  C   UNL     1      -1.225   2.033   0.019  0.00  0.00    +0.046 A 
ATOM     16  C   UNL     1      -0.016   1.353   0.009  0.00  0.00    +0.128 A 
BRANCH  16  17
ATOM     17  O   UNL     1       0.002  -0.004   0.002  0.00  0.00    -0.506 OA
ATOM     18  H   UNL     1       0.016  -0.402   0.883  0.00  0.00    +0.292 HD
ENDBRANCH  16  17
ENDBRANCH   9  11
BRANCH   7  19
ATOM     19  N   UNL     1       3.580  -2.050  -0.043  0.00  0.00    -0.220 N 
ATOM     20  H   UNL     1       4.413  -2.548  -0.054  0.00  0.00    +0.176 HD
BRANCH  19  21
ATOM     21  N   UNL     1       2.357  -2.733  -0.034  0.00  0.00    -0.189 NA
ATOM     22  C   UNL     1       2.338  -4.031  -0.040  0.00  0.00    +0.142 C 
BRANCH  22  23
ATOM     23  C   UNL     1       1.051  -4.749  -0.031  0.00  0.00    +0.039 A 
ATOM     24  C   UNL     1       1.026  -6.146  -0.038  0.00  0.00    +0.033 A 
ATOM     25  C   UNL     1      -0.183  -6.812  -0.029  0.00  0.00    +0.043 A 
ATOM     26  C   UNL     1      -1.372  -6.101  -0.013  0.00  0.00    +0.043 A 
ATOM     27  C   UNL     1      -1.360  -4.718  -0.006  0.00  0.00    +0.084 A 
ATOM     28  C   UNL     1      -0.154  -4.034  -0.009  0.00  0.00    +0.144 A 
ATOM     29 CL   UNL     1      -2.856  -3.838   0.013  0.00  0.00    -0.080 Cl
ATOM     30 CL   UNL     1      -0.213  -8.548  -0.038  0.00  0.00    -0.083 Cl
BRANCH  28  31
ATOM     31  O   UNL     1      -0.141  -2.676   0.004  0.00  0.00    -0.505 OA
ATOM     32  H   UNL     1      -0.148  -2.274  -0.876  0.00  0.00    +0.292 HD
ENDBRANCH  28  31
ENDBRANCH  22  23
ENDBRANCH  19  21
ENDBRANCH   7  19
TORSDOF 6
