REMARK  Name = ZINC41006936
REMARK  7 active torsions:
REMARK  status: ('A' for Active; 'I' for Inactive)
REMARK    1  A    between atoms: C_1  and  C_2
REMARK    2  A    between atoms: C_2  and  O_36
REMARK    3  A    between atoms: C_6  and  C_27
REMARK    4  A    between atoms: C_8  and  C_21
REMARK    5  A    between atoms: C_10  and  C_12
REMARK    6  A    between atoms: N_14  and  C_15
REMARK    7  A    between atoms: N_29  and  C_30
REMARK                            x       y       z     vdW  Elec       q    Type
REMARK                         _______ _______ _______ _____ _____    ______ ____
ROOT
ATOM      1  C   UNL     1      -0.188   0.676   0.126  0.00  0.00    +0.042 C 
ATOM      2  C   UNL     1       0.479  -0.701   0.125  0.00  0.00    +0.082 C 
ATOM      3  C   UNL     1      -0.588  -1.786   0.306  0.00  0.00    +0.110 C 
ATOM      4  C   UNL     1       0.105  -3.124   0.436  0.00  0.00    +0.149 C 
ATOM      5  O   UNL     1      -0.223  -4.061  -0.252  0.00  0.00    -0.296 OA
ATOM      6  C   UNL     1       1.220  -3.259   1.450  0.00  0.00    +0.152 C 
ATOM      7  C   UNL     1       2.221  -2.121   1.228  0.00  0.00    +0.089 C 
ATOM      8  C   UNL     1       1.485  -0.781   1.275  0.00  0.00    +0.118 C 
ENDROOT
BRANCH   7   9
ATOM      9  C   UNL     1       3.270  -2.156   2.309  0.00  0.00    +0.112 A 
ATOM     10  C   UNL     1       4.593  -2.306   2.117  0.00  0.00    +0.046 A 
ATOM     11  C   UNL     1       5.198  -2.282   3.394  0.00  0.00    +0.057 A 
ATOM     12  C   UNL     1       4.208  -2.120   4.292  0.00  0.00    +0.170 A 
ATOM     13  O   UNL     1       3.043  -2.038   3.628  0.00  0.00    -0.453 OA
ATOM     14 BR   UNL     1       4.422  -2.016   6.168  0.00  0.00    -0.008 Br
ENDBRANCH   7   9
BRANCH   8  15
ATOM     15  C   UNL     1       0.756  -0.655   2.588  0.00  0.00    +0.224 C 
ATOM     16  O   UNL     1      -0.102  -1.460   2.884  0.00  0.00    -0.275 OA
ATOM     17  N   UNL     1       1.057   0.351   3.433  0.00  0.00    -0.285 N 
ATOM     18  H   UNL     1       1.661   1.056   3.152  0.00  0.00    +0.155 HD
BRANCH  17  19
ATOM     19  C   UNL     1       0.497   0.379   4.715  0.00  0.00    +0.033 A 
ATOM     20  C   UNL     1      -0.686  -0.301   4.973  0.00  0.00    +0.023 A 
ATOM     21  C   UNL     1      -1.236  -0.271   6.239  0.00  0.00    +0.002 A 
ATOM     22  C   UNL     1      -0.610   0.435   7.250  0.00  0.00    +0.000 A 
ATOM     23  C   UNL     1       0.568   1.114   6.996  0.00  0.00    +0.002 A 
ATOM     24  C   UNL     1       1.126   1.083   5.733  0.00  0.00    +0.023 A 
ENDBRANCH  17  19
ENDBRANCH   8  15
BRANCH   6  25
ATOM     25  C   UNL     1       1.909  -4.587   1.271  0.00  0.00    +0.228 C 
ATOM     26  O   UNL     1       3.092  -4.625   1.007  0.00  0.00    -0.275 OA
ATOM     27  N   UNL     1       1.211  -5.732   1.403  0.00  0.00    -0.285 N 
ATOM     28  H   UNL     1       0.246  -5.704   1.498  0.00  0.00    +0.155 HD
BRANCH  27  29
ATOM     29  C   UNL     1       1.878  -6.963   1.403  0.00  0.00    +0.033 A 
ATOM     30  C   UNL     1       1.253  -8.093   0.893  0.00  0.00    +0.023 A 
ATOM     31  C   UNL     1       1.914  -9.306   0.895  0.00  0.00    +0.002 A 
ATOM     32  C   UNL     1       3.197  -9.395   1.402  0.00  0.00    +0.000 A 
ATOM     33  C   UNL     1       3.822  -8.271   1.911  0.00  0.00    +0.002 A 
ATOM     34  C   UNL     1       3.169  -7.054   1.907  0.00  0.00    +0.023 A 
ENDBRANCH  27  29
ENDBRANCH   6  25
BRANCH   2  35
ATOM     35  O   UNL     1       1.158  -0.901  -1.116  0.00  0.00    -0.388 OA
ATOM     36  H   UNL     1       0.580  -0.864  -1.891  0.00  0.00    +0.210 HD
ENDBRANCH   2  35
TORSDOF 6
