REMARK  Name = ZINC35035861
REMARK  10 active torsions:
REMARK  status: ('A' for Active; 'I' for Inactive)
REMARK    1  A    between atoms: C_1  and  C_2
REMARK    2  A    between atoms: C_2  and  C_3
REMARK    3  A    between atoms: C_3  and  C_5
REMARK    4  A    between atoms: C_3  and  N_17
REMARK    5  A    between atoms: N_17  and  C_18
REMARK    6  A    between atoms: C_18  and  C_19
REMARK    7  A    between atoms: C_19  and  N_20
REMARK    8  A    between atoms: N_20  and  C_21
REMARK    9  A    between atoms: N_20  and  C_22
REMARK   10  A    between atoms: N_25  and  C_26
REMARK                            x       y       z     vdW  Elec       q    Type
REMARK                         _______ _______ _______ _____ _____    ______ ____
ROOT
ATOM      1  N   UNL     1       2.014  -0.220  -1.212  0.00  0.00    -0.277 N 
ATOM      2  C   UNL     1       2.537   0.715  -2.029  0.00  0.00    +0.303 C 
ATOM      3  O   UNL     1       1.837   1.252  -2.865  0.00  0.00    -0.253 OA
ATOM      4  N   UNL     1       3.837   1.054  -1.920  0.00  0.00    -0.294 N 
ATOM      5  H   UNL     1       4.396   0.626  -1.254  0.00  0.00    +0.151 HD
ENDROOT
BRANCH   4   6
ATOM      6  C   UNL     1       4.405   2.071  -2.809  0.00  0.00    +0.037 C 
ATOM      7  C   UNL     1       4.263   1.615  -4.263  0.00  0.00    +0.029 C 
ATOM      8  C   UNL     1       4.857   2.676  -5.191  0.00  0.00    -0.008 C 
ATOM      9  C   UNL     1       6.338   2.872  -4.860  0.00  0.00    +0.007 C 
ATOM     10  C   UNL     1       6.480   3.328  -3.406  0.00  0.00    -0.008 C 
ATOM     11  C   UNL     1       5.887   2.267  -2.478  0.00  0.00    +0.029 C 
ATOM     12  C   UNL     1       5.735   4.650  -3.212  0.00  0.00    +0.007 C 
ATOM     13  C   UNL     1       4.254   4.455  -3.542  0.00  0.00    -0.008 C 
ATOM     14  C   UNL     1       4.112   3.999  -4.996  0.00  0.00    +0.007 C 
ATOM     15  C   UNL     1       3.661   3.393  -2.614  0.00  0.00    +0.029 C 
ENDBRANCH   4   6
BRANCH   1  16
ATOM     16  C   UNL     1       0.601  -0.589  -1.330  0.00  0.00    +0.143 C 
BRANCH  16  17
ATOM     17  C   UNL     1      -0.258   0.611  -1.027  0.00  0.00    +0.131 A 
ATOM     18  N   UNL     1      -1.601   0.502  -1.201  0.00  0.00    -0.309 N 
ATOM     19  H   UNL     1      -1.979  -0.335  -1.513  0.00  0.00    +0.170 HD
ATOM     20  C   UNL     1      -2.417   1.550  -0.942  0.00  0.00    +0.259 A 
ATOM     21  O   UNL     1      -3.622   1.467  -1.093  0.00  0.00    -0.267 OA
ATOM     22  C   UNL     1      -1.791   2.795  -0.471  0.00  0.00    +0.065 A 
ATOM     23  C   UNL     1      -2.541   3.932  -0.177  0.00  0.00    +0.015 A 
ATOM     24  C   UNL     1      -1.902   5.071   0.261  0.00  0.00    +0.001 A 
ATOM     25  C   UNL     1      -0.521   5.094   0.410  0.00  0.00    +0.002 A 
ATOM     26  C   UNL     1       0.237   3.982   0.124  0.00  0.00    +0.028 A 
ATOM     27  C   UNL     1      -0.387   2.815  -0.320  0.00  0.00    +0.078 A 
ATOM     28  N   UNL     1       0.322   1.694  -0.608  0.00  0.00    -0.232 NA
ENDBRANCH  16  17
BRANCH  16  30
ATOM     29  C   UNL     1       1.097  -2.363  -3.019  0.00  0.00    +0.006 C 
ATOM     30  C   UNL     1       0.318  -1.073  -2.754  0.00  0.00    +0.027 C 
ENDBRANCH  16  30
ENDBRANCH   1  16
BRANCH   1  31
ATOM     31  C   UNL     1       2.858  -0.868  -0.205  0.00  0.00    +0.091 C 
BRANCH  31  32
ATOM     32  C   UNL     1       3.604  -2.042  -0.843  0.00  0.00    -0.060 C 
BRANCH  32  33
ATOM     33  N   UNL     1       4.543  -2.613   0.132  0.00  0.00    +0.377 N 
ATOM     34  C   UNL     1       3.793  -3.193   1.254  0.00  0.00    -0.097 C 
ATOM     35  C   UNL     1       5.343  -3.661  -0.515  0.00  0.00    -0.097 C 
ATOM     36  H   UNL     1       5.154  -1.887   0.475  0.00  0.00    -0.083 HD
ENDBRANCH  32  33
ENDBRANCH  31  32
ENDBRANCH   1  31
TORSDOF 7
