REMARK  Name = ZINC20114550
REMARK  4 active torsions:
REMARK  status: ('A' for Active; 'I' for Inactive)
REMARK    1  A    between atoms: C_1  and  S_2
REMARK    2  A    between atoms: S_2  and  C_3
REMARK    3  A    between atoms: C_11  and  C_12
REMARK    4  A    between atoms: C_15  and  C_17
REMARK                            x       y       z     vdW  Elec       q    Type
REMARK                         _______ _______ _______ _____ _____    ______ ____
ROOT
ATOM      1  C   UNL     1      -1.357  -0.314   1.026  0.00  0.00    +0.175 C 
ATOM      2  N   UNL     1      -2.179   0.643   1.361  0.00  0.00    -0.185 NA
ATOM      3  S   UNL     1      -3.673  -0.110   1.455  0.00  0.00    +0.048 S 
ATOM      4  C   UNL     1      -3.214  -1.674   1.107  0.00  0.00    +0.183 C 
ATOM      5  N   UNL     1      -3.926  -2.779   1.071  0.00  0.00    -0.152 NA
ATOM      6  C   UNL     1      -3.315  -3.953   0.825  0.00  0.00    +0.273 C 
ATOM      7  O   UNL     1      -3.965  -4.972   0.654  0.00  0.00    -0.268 OA
ATOM      8  C   UNL     1      -1.835  -3.979   0.765  0.00  0.00    +0.080 C 
ATOM      9  C   UNL     1      -1.113  -5.131   1.036  0.00  0.00    +0.062 C 
ATOM     10  C   UNL     1      -1.167  -2.701   0.398  0.00  0.00    +0.116 C 
ATOM     11  N   UNL     1      -0.047  -2.642  -0.273  0.00  0.00    -0.386 N 
ATOM     12  N   UNL     1      -1.864  -1.559   0.841  0.00  0.00    -0.212 N 
ATOM     13  H   UNL     1       0.391  -3.459  -0.558  0.00  0.00    +0.157 HD
ATOM     14  H   UNL     1       0.346  -1.781  -0.487  0.00  0.00    +0.157 HD
ENDROOT
BRANCH   9  15
ATOM     15  C   UNL     1      -1.754  -6.246   1.601  0.00  0.00    +0.129 A 
ATOM     16  C   UNL     1      -1.191  -7.500   1.789  0.00  0.00    +0.050 A 
ATOM     17  C   UNL     1      -2.172  -8.298   2.375  0.00  0.00    +0.050 A 
ATOM     18  C   UNL     1      -3.296  -7.512   2.526  0.00  0.00    +0.136 A 
ATOM     19  O   UNL     1      -3.023  -6.281   2.061  0.00  0.00    -0.455 OA
BRANCH  18  20
ATOM     20  C   UNL     1      -4.579  -7.948   3.108  0.00  0.00    +0.017 A 
ATOM     21  C   UNL     1      -4.732  -9.259   3.568  0.00  0.00    +0.013 A 
ATOM     22  C   UNL     1      -5.934  -9.660   4.111  0.00  0.00    +0.021 A 
ATOM     23  C   UNL     1      -6.990  -8.767   4.199  0.00  0.00    +0.041 A 
ATOM     24  C   UNL     1      -6.845  -7.467   3.745  0.00  0.00    +0.021 A 
ATOM     25  C   UNL     1      -5.646  -7.051   3.205  0.00  0.00    +0.013 A 
ATOM     26 CL   UNL     1      -8.501  -9.281   4.883  0.00  0.00    -0.084 Cl
ENDBRANCH  18  20
ENDBRANCH   9  15
BRANCH   1  28
ATOM     27  C   UNL     1       0.529   1.775   1.166  0.00  0.00    +0.093 C 
ATOM     28  S   UNL     1       0.363   0.004   0.812  0.00  0.00    -0.093 S 
ENDBRANCH   1  28
TORSDOF 3
