REMARK  Name = ZINC02775689
REMARK  10 active torsions:
REMARK  status: ('A' for Active; 'I' for Inactive)
REMARK    1  A    between atoms: C_1  and  O_2
REMARK    2  A    between atoms: O_2  and  C_3
REMARK    3  A    between atoms: C_6  and  C_19
REMARK    4  A    between atoms: C_8  and  C_9
REMARK    5  A    between atoms: C_9  and  O_10
REMARK    6  A    between atoms: O_10  and  C_11
REMARK    7  A    between atoms: C_28  and  C_36
REMARK    8  A    between atoms: C_29  and  N_35
REMARK    9  A    between atoms: C_30  and  C_31
REMARK   10  A    between atoms: C_30  and  C_33
REMARK                            x       y       z     vdW  Elec       q    Type
REMARK                         _______ _______ _______ _____ _____    ______ ____
ROOT
ATOM      1  C   UNL     1      -6.042  -0.043   1.866  0.00  0.00    +0.066 C 
ATOM      2  C   UNL     1      -6.971   1.040   1.317  0.00  0.00    +0.030 C 
ATOM      3  C   UNL     1      -6.979   2.276   2.183  0.00  0.00    +0.009 C 
ATOM      4  C   UNL     1      -6.101   3.385   1.606  0.00  0.00    +0.005 C 
ATOM      5  C   UNL     1      -6.612   3.722   0.198  0.00  0.00    +0.027 C 
ATOM      6  C   UNL     1      -6.472   2.477  -0.653  0.00  0.00    -0.022 C 
ATOM      7  C   UNL     1      -6.614   1.279  -0.123  0.00  0.00    -0.029 C 
ATOM      8  C   UNL     1      -6.412   0.076  -0.973  0.00  0.00    +0.074 C 
ATOM      9  C   UNL     1      -6.252  -1.135  -0.381  0.00  0.00    +0.054 C 
ATOM     10  C   UNL     1      -6.291  -1.345   1.102  0.00  0.00    +0.188 C 
ENDROOT
BRANCH   1  14
ATOM     11  C   UNL     1      -1.975   1.163   1.348  0.00  0.00    +0.126 A 
ATOM     12  C   UNL     1      -2.643   0.513   0.320  0.00  0.00    +0.046 A 
ATOM     13  C   UNL     1      -3.956   0.119   0.492  0.00  0.00    +0.007 A 
ATOM     14  C   UNL     1      -4.608   0.382   1.683  0.00  0.00    -0.040 A 
ATOM     15  C   UNL     1      -3.946   1.035   2.707  0.00  0.00    +0.014 A 
ATOM     16  C   UNL     1      -2.631   1.426   2.542  0.00  0.00    +0.032 A 
BRANCH  11  18
ATOM     17  C   UNL     1      -0.070   1.243  -0.071  0.00  0.00    +0.277 C 
ATOM     18  O   UNL     1      -0.682   1.547   1.184  0.00  0.00    -0.495 OA
ENDBRANCH  11  18
BRANCH  16  19
ATOM     19  C   UNL     1      -1.910   2.136   3.658  0.00  0.00    +0.268 C 
BRANCH  19  20
ATOM     20  O   UNL     1      -2.791   2.288   4.773  0.00  0.00    -0.487 OA
BRANCH  20  21
ATOM     21  C   UNL     1      -2.293   2.915   5.872  0.00  0.00    +0.123 A 
ATOM     22  C   UNL     1      -3.093   3.096   6.990  0.00  0.00    +0.048 A 
ATOM     23  C   UNL     1      -2.586   3.732   8.107  0.00  0.00    +0.043 A 
ATOM     24  C   UNL     1      -1.279   4.189   8.111  0.00  0.00    +0.142 A 
ATOM     25  C   UNL     1      -0.478   4.008   6.995  0.00  0.00    +0.080 A 
ATOM     26  C   UNL     1      -0.982   3.368   5.878  0.00  0.00    +0.068 A 
ATOM     27 CL   UNL     1       1.161   4.581   7.002  0.00  0.00    -0.080 Cl
ATOM     28  F   UNL     1      -0.785   4.810   9.204  0.00  0.00    -0.204 F 
ENDBRANCH  20  21
ENDBRANCH  19  20
ENDBRANCH  16  19
ENDBRANCH   1  14
BRANCH   9  29
ATOM     29  N   UNL     1      -6.044  -2.222  -1.182  0.00  0.00    -0.358 N 
ATOM     30  H   UNL     1      -5.911  -3.218  -0.734  0.00  0.00    +0.142 HD
ATOM     31  H   UNL     1      -6.010  -2.102  -2.275  0.00  0.00    +0.142 HD
ENDBRANCH   9  29
BRANCH  10  32
ATOM     32  C   UNL     1      -5.258  -2.325   1.475  0.00  0.00    +0.091 C 
ATOM     33  N   UNL     1      -4.461  -3.082   1.763  0.00  0.00    -0.194 NA
ENDBRANCH  10  32
BRANCH  10  34
ATOM     34  C   UNL     1      -7.612  -1.875   1.476  0.00  0.00    +0.091 C 
ATOM     35  N   UNL     1      -8.632  -2.284   1.765  0.00  0.00    -0.194 NA
ENDBRANCH  10  34
BRANCH   8  36
ATOM     36  C   UNL     1      -6.388   0.193  -2.400  0.00  0.00    +0.101 C 
ATOM     37  N   UNL     1      -6.368   0.287  -3.532  0.00  0.00    -0.191 NA
ENDBRANCH   8  36
TORSDOF 9
