REMARK  Name = ZINC19819319
REMARK  3 active torsions:
REMARK  status: ('A' for Active; 'I' for Inactive)
REMARK    1  A    between atoms: C_1  and  O_2
REMARK    2  A    between atoms: O_2  and  C_3
REMARK    3  A    between atoms: C_6  and  C_9
REMARK                            x       y       z     vdW  Elec       q    Type
REMARK                         _______ _______ _______ _____ _____    ______ ____
ROOT
ATOM      1  C   UNL     1       2.587  -2.550   4.310  0.00  0.00    +0.092 C 
ATOM      2  C   UNL     1       1.597  -3.411   5.038  0.00  0.00    +0.069 A 
ATOM      3  C   UNL     1       1.594  -4.762   4.879  0.00  0.00    +0.112 A 
ATOM      4  N   UNL     1       0.670  -5.515   5.555  0.00  0.00    -0.315 N 
ATOM      5  H   UNL     1       0.659  -6.479   5.448  0.00  0.00    +0.170 HD
ATOM      6  C   UNL     1      -0.232  -4.912   6.378  0.00  0.00    +0.200 A 
ATOM      7  N   UNL     1      -0.237  -3.607   6.543  0.00  0.00    -0.177 NA
ATOM      8  C   UNL     1       0.647  -2.825   5.903  0.00  0.00    +0.280 A 
ATOM      9  O   UNL     1       0.631  -1.614   6.069  0.00  0.00    -0.265 OA
ATOM     10  N   UNL     1      -1.150  -5.678   7.045  0.00  0.00    -0.301 N 
ATOM     11  C   UNL     1      -2.059  -5.072   8.027  0.00  0.00    +0.108 C 
ATOM     12  C   UNL     1      -3.500  -5.439   7.657  0.00  0.00    +0.019 C 
ATOM     13  C   UNL     1      -3.621  -6.961   7.545  0.00  0.00    +0.003 C 
ATOM     14  C   UNL     1      -2.694  -7.467   6.437  0.00  0.00    +0.019 C 
ATOM     15  C   UNL     1      -1.248  -7.122   6.788  0.00  0.00    +0.108 C 
ATOM     16  N   UNL     1       2.512  -5.363   4.051  0.00  0.00    -0.304 N 
ATOM     17  C   UNL     1       3.656  -4.707   3.683  0.00  0.00    +0.017 C 
ATOM     18  C   UNL     1       3.745  -3.366   3.794  0.00  0.00    +0.024 C 
ATOM     19  C   UNL     1       4.921  -2.688   3.432  0.00  0.00    +0.162 C 
ATOM     20  O   UNL     1       4.969  -1.478   3.538  0.00  0.00    -0.292 OA
ATOM     21  C   UNL     1       6.123  -3.430   2.916  0.00  0.00    +0.080 C 
ATOM     22  C   UNL     1       6.128  -4.844   3.507  0.00  0.00    +0.014 C 
ATOM     23  C   UNL     1       4.808  -5.521   3.147  0.00  0.00    +0.051 C 
ATOM     24  H   UNL     1       2.347  -6.261   3.723  0.00  0.00    +0.153 HD
ENDROOT
BRANCH   1  28
ATOM     25  C   UNL     1       0.635  -0.652   1.016  0.00  0.00    +0.120 A 
ATOM     26  C   UNL     1       1.202   0.115   2.024  0.00  0.00    +0.046 A 
ATOM     27  C   UNL     1       1.832  -0.501   3.088  0.00  0.00    +0.008 A 
ATOM     28  C   UNL     1       1.899  -1.881   3.149  0.00  0.00    -0.035 A 
ATOM     29  C   UNL     1       1.335  -2.647   2.145  0.00  0.00    +0.008 A 
ATOM     30  C   UNL     1       0.699  -2.036   1.083  0.00  0.00    +0.046 A 
BRANCH  25  32
ATOM     31  C   UNL     1      -0.012   1.381  -0.034  0.00  0.00    +0.277 C 
ATOM     32  O   UNL     1       0.015  -0.048  -0.031  0.00  0.00    -0.495 OA
ENDBRANCH  25  32
ENDBRANCH   1  28
TORSDOF 2
