REMARK  Name = ZINC22281680
REMARK  9 active torsions:
REMARK  status: ('A' for Active; 'I' for Inactive)
REMARK    1  A    between atoms: C_1  and  C_2
REMARK    2  A    between atoms: C_2  and  C_3
REMARK    3  A    between atoms: C_2  and  N_4
REMARK    4  A    between atoms: C_5  and  C_7
REMARK    5  A    between atoms: C_7  and  N_8
REMARK    6  A    between atoms: N_11  and  C_14
REMARK    7  A    between atoms: C_14  and  N_15
REMARK    8  A    between atoms: C_18  and  S_25
REMARK    9  A    between atoms: S_25  and  N_28
REMARK                            x       y       z     vdW  Elec       q    Type
REMARK                         _______ _______ _______ _____ _____    ______ ____
ROOT
ATOM      1  N   UNL     1      -5.129  -8.199  -1.825  0.00  0.00    -0.319 N 
ATOM      2  C   UNL     1      -5.793  -8.958  -0.862  0.00  0.00    +0.088 A 
ATOM      3  C   UNL     1      -5.424  -9.456   0.378  0.00  0.00    +0.058 A 
ATOM      4  C   UNL     1      -6.327 -10.195   1.118  0.00  0.00    +0.108 A 
ATOM      5  C   UNL     1      -7.597 -10.439   0.624  0.00  0.00    +0.032 A 
ATOM      6  C   UNL     1      -7.971  -9.946  -0.611  0.00  0.00    +0.050 A 
ATOM      7  C   UNL     1      -7.072  -9.204  -1.361  0.00  0.00    +0.154 A 
ATOM      8  O   UNL     1      -7.153  -8.607  -2.575  0.00  0.00    -0.431 OA
ATOM      9  C   UNL     1      -5.985  -8.000  -2.846  0.00  0.00    +0.248 A 
ATOM     10  S   UNL     1      -5.638  -7.115  -4.270  0.00  0.00    +0.009 S 
ENDROOT
BRANCH   4  11
ATOM     11  S   UNL     1      -5.861 -10.828   2.694  0.00  0.00    +0.061 S 
ATOM     12  O   UNL     1      -6.700 -11.947   2.947  0.00  0.00    -0.153 OA
ATOM     13  O   UNL     1      -4.443 -10.925   2.690  0.00  0.00    -0.153 OA
BRANCH  11  14
ATOM     14  N   UNL     1      -6.253  -9.678   3.820  0.00  0.00    -0.177 NA
ATOM     15  C   UNL     1      -5.287  -8.636   4.193  0.00  0.00    +0.109 C 
ATOM     16  C   UNL     1      -5.949  -7.265   4.021  0.00  0.00    +0.017 C 
ATOM     17  C   UNL     1      -7.254  -7.229   4.821  0.00  0.00    +0.003 C 
ATOM     18  C   UNL     1      -8.210  -8.298   4.288  0.00  0.00    +0.017 C 
ATOM     19  C   UNL     1      -7.576  -9.677   4.459  0.00  0.00    +0.109 C 
ENDBRANCH  11  14
ENDBRANCH   4  11
BRANCH   1  20
ATOM     20  C   UNL     1      -3.753  -7.702  -1.738  0.00  0.00    +0.051 C 
BRANCH  20  24
ATOM     21  N   UNL     1      -3.087  -3.600  -1.067  0.00  0.00    -0.298 NA
ATOM     22  C   UNL     1      -2.359  -4.562  -0.227  0.00  0.00    +0.066 C 
ATOM     23  C   UNL     1      -2.364  -5.933  -0.907  0.00  0.00    -0.061 C 
ATOM     24  N   UNL     1      -3.750  -6.378  -1.102  0.00  0.00    +0.393 N 
ATOM     25  C   UNL     1      -4.457  -5.420  -1.962  0.00  0.00    -0.061 C 
ATOM     26  C   UNL     1      -4.470  -4.045  -1.291  0.00  0.00    +0.066 C 
ATOM     27  H   UNL     1      -4.214  -6.434  -0.208  0.00  0.00    -0.079 HD
BRANCH  21  28
ATOM     28  C   UNL     1      -3.057  -2.256  -0.474  0.00  0.00    +0.180 C 
BRANCH  28  30
ATOM     29  N   UNL     1      -1.372  -0.511   0.012  0.00  0.00    -0.312 N 
ATOM     30  C   UNL     1      -1.643  -1.734  -0.485  0.00  0.00    +0.227 C 
ATOM     31  O   UNL     1      -0.749  -2.415  -0.941  0.00  0.00    -0.274 OA
ATOM     32  H   UNL     1      -2.087   0.033   0.377  0.00  0.00    +0.149 HD
BRANCH  29  34
ATOM     33  C   UNL     1      -0.019   1.526   0.010  0.00  0.00    +0.027 C 
ATOM     34  C   UNL     1       0.002  -0.004   0.002  0.00  0.00    +0.067 C 
ATOM     35  C   UNL     1       0.742  -0.511   1.242  0.00  0.00    +0.027 C 
ENDBRANCH  29  34
ENDBRANCH  28  30
ENDBRANCH  21  28
ENDBRANCH  20  24
ENDBRANCH   1  20
TORSDOF 7
