REMARK  Name = ZINC08789384
REMARK  9 active torsions:
REMARK  status: ('A' for Active; 'I' for Inactive)
REMARK    1  A    between atoms: C_1  and  C_2
REMARK    2  A    between atoms: C_2  and  C_3
REMARK    3  A    between atoms: C_17  and  C_19
REMARK    4  A    between atoms: C_19  and  C_21
REMARK    5  A    between atoms: C_19  and  O_22
REMARK    6  A    between atoms: N_25  and  C_28
REMARK    7  A    between atoms: C_28  and  C_29
REMARK    8  A    between atoms: C_34  and  O_35
REMARK    9  A    between atoms: O_35  and  C_36
REMARK                            x       y       z     vdW  Elec       q    Type
REMARK                         _______ _______ _______ _____ _____    ______ ____
ROOT
ATOM      1  C   UNL     1      -1.323   1.319   0.482  0.00  0.00    -0.026 A 
ATOM      2  C   UNL     1      -0.794   2.493   0.980  0.00  0.00    +0.005 A 
ATOM      3  C   UNL     1      -1.171   2.955   2.227  0.00  0.00    +0.001 A 
ATOM      4  C   UNL     1      -2.084   2.238   2.980  0.00  0.00    +0.004 A 
ATOM      5  C   UNL     1      -2.614   1.067   2.489  0.00  0.00    -0.027 A 
ATOM      6  C   UNL     1      -2.247   0.595   1.232  0.00  0.00    +0.039 A 
ATOM      7  N   UNL     1      -2.917  -0.597   0.949  0.00  0.00    -0.286 N 
ATOM      8  C   UNL     1      -3.735  -0.971   1.951  0.00  0.00    +0.211 C 
ATOM      9  O   UNL     1      -4.438  -1.958   1.983  0.00  0.00    -0.277 OA
ATOM     10  C   UNL     1      -3.599   0.069   3.030  0.00  0.00    +0.050 C 
ATOM     11  C   UNL     1      -4.953   0.721   3.335  0.00  0.00    +0.088 C 
ATOM     12  C   UNL     1      -5.468  -0.021   4.599  0.00  0.00    +0.075 C 
ATOM     13  C   UNL     1      -4.372  -1.058   4.925  0.00  0.00    -0.028 C 
ATOM     14  C   UNL     1      -5.480   1.047   5.669  0.00  0.00    +0.224 C 
ATOM     15  O   UNL     1      -5.819   0.880   6.821  0.00  0.00    -0.275 OA
ATOM     16  N   UNL     1      -5.060   2.205   5.146  0.00  0.00    -0.237 N 
ATOM     17  C   UNL     1      -4.736   2.143   3.849  0.00  0.00    +0.225 C 
ATOM     18  O   UNL     1      -4.338   3.074   3.183  0.00  0.00    -0.275 OA
ATOM     19  H   UNL     1      -2.807  -1.098   0.125  0.00  0.00    +0.155 HD
ATOM     20  N   UNL     1      -3.170  -0.514   4.289  0.00  0.00    +0.396 N 
ATOM     21  H   UNL     1      -2.746   0.205   4.888  0.00  0.00    -0.083 HD
ATOM     22  H   UNL     1      -2.488  -1.263   4.120  0.00  0.00    -0.083 HD
ENDROOT
BRANCH   1  24
ATOM     23  C   UNL     1      -1.917   1.297  -1.925  0.00  0.00    +0.009 C 
ATOM     24  C   UNL     1      -0.906   0.824  -0.878  0.00  0.00    +0.033 C 
ENDBRANCH   1  24
BRANCH  13  25
ATOM     25  C   UNL     1      -4.193  -1.185   6.439  0.00  0.00    +0.098 C 
ATOM     26  C   UNL     1      -5.420  -1.875   7.041  0.00  0.00    +0.036 C 
BRANCH  25  27
ATOM     27  O   UNL     1      -3.026  -1.961   6.718  0.00  0.00    -0.394 OA
ATOM     28  H   UNL     1      -2.851  -2.083   7.661  0.00  0.00    +0.210 HD
ENDBRANCH  25  27
ENDBRANCH  13  25
BRANCH  16  29
ATOM     29  C   UNL     1      -4.964   3.439   5.929  0.00  0.00    +0.155 C 
BRANCH  29  30
ATOM     30  C   UNL     1      -6.211   4.261   5.727  0.00  0.00    +0.012 A 
ATOM     31  C   UNL     1      -6.207   5.314   4.833  0.00  0.00    +0.009 A 
ATOM     32  C   UNL     1      -7.351   6.066   4.643  0.00  0.00    +0.001 A 
ATOM     33  C   UNL     1      -8.500   5.772   5.355  0.00  0.00    +0.004 A 
ATOM     34  C   UNL     1      -8.508   4.723   6.254  0.00  0.00    +0.046 A 
ATOM     35  C   UNL     1      -7.362   3.964   6.442  0.00  0.00    +0.125 A 
BRANCH  35  36
ATOM     36  O   UNL     1      -7.367   2.932   7.326  0.00  0.00    -0.495 OA
ATOM     37  C   UNL     1      -8.548   2.755   8.110  0.00  0.00    +0.277 C 
ENDBRANCH  35  36
ENDBRANCH  29  30
ENDBRANCH  16  29
TORSDOF 6
