REMARK  Name = ZINC15013722
REMARK  7 active torsions:
REMARK  status: ('A' for Active; 'I' for Inactive)
REMARK    1  A    between atoms: C_3  and  C_14
REMARK    2  A    between atoms: N_4  and  C_6
REMARK    3  A    between atoms: C_9  and  C_12
REMARK    4  A    between atoms: C_15  and  C_16
REMARK    5  A    between atoms: C_15  and  C_18
REMARK    6  A    between atoms: N_20  and  C_21
REMARK    7  A    between atoms: C_24  and  O_27
REMARK                            x       y       z     vdW  Elec       q    Type
REMARK                         _______ _______ _______ _____ _____    ______ ____
ROOT
ATOM      1  C   UNL     1      -4.573   5.358   2.078  0.00  0.00    +0.050 C 
ATOM      2  C   UNL     1      -5.129   6.246   2.986  0.00  0.00    +0.116 C 
ENDROOT
BRANCH   1   5
ATOM      3  C   UNL     1      -6.882   4.804  -0.638  0.00  0.00    +0.020 A 
ATOM      4  C   UNL     1      -6.520   5.486   0.525  0.00  0.00    +0.027 A 
ATOM      5  C   UNL     1      -5.303   4.965   0.941  0.00  0.00    +0.048 A 
ATOM      6  N   UNL     1      -4.940   3.990   0.032  0.00  0.00    -0.316 N 
ATOM      7  C   UNL     1      -5.908   3.902  -0.917  0.00  0.00    +0.092 A 
BRANCH   6   8
ATOM      8  C   UNL     1      -3.776   3.220   0.083  0.00  0.00    +0.047 A 
ATOM      9  C   UNL     1      -3.861   1.832   0.086  0.00  0.00    +0.027 A 
ATOM     10  C   UNL     1      -2.716   1.069   0.136  0.00  0.00    +0.017 A 
ATOM     11  C   UNL     1      -1.466   1.693   0.184  0.00  0.00    +0.063 A 
ATOM     12  C   UNL     1      -1.383   3.088   0.185  0.00  0.00    +0.017 A 
ATOM     13  C   UNL     1      -2.533   3.844   0.129  0.00  0.00    +0.027 A 
BRANCH  11  14
ATOM     14  C   UNL     1      -0.236   0.879   0.238  0.00  0.00    +0.387 C 
ATOM     15  O   UNL     1      -0.309  -0.333   0.241  0.00  0.00    -0.241 OA
ATOM     16  O   UNL     1       0.969   1.482   0.278  0.00  0.00    -0.241 OA
ENDBRANCH  11  14
ENDBRANCH   6   8
ENDBRANCH   1   5
BRANCH   2  17
ATOM     17  C   UNL     1      -4.309   6.791   4.075  0.00  0.00    +0.259 C 
ATOM     18  O   UNL     1      -3.142   6.464   4.181  0.00  0.00    -0.269 OA
ATOM     19  N   UNL     1      -4.850   7.654   4.958  0.00  0.00    -0.281 N 
ATOM     20  H   UNL     1      -5.760   7.967   4.835  0.00  0.00    +0.155 HD
BRANCH  19  21
ATOM     21  C   UNL     1      -4.098   8.099   6.052  0.00  0.00    +0.034 A 
ATOM     22  C   UNL     1      -4.719   8.339   7.270  0.00  0.00    +0.027 A 
ATOM     23  C   UNL     1      -3.976   8.772   8.351  0.00  0.00    +0.047 A 
ATOM     24  C   UNL     1      -2.611   8.979   8.216  0.00  0.00    +0.117 A 
ATOM     25  C   UNL     1      -1.990   8.745   6.997  0.00  0.00    +0.047 A 
ATOM     26  C   UNL     1      -2.731   8.306   5.918  0.00  0.00    +0.027 A 
BRANCH  24  27
ATOM     27  O   UNL     1      -1.881   9.410   9.279  0.00  0.00    -0.507 OA
ATOM     28  H   UNL     1      -1.819  10.372   9.349  0.00  0.00    +0.292 HD
ENDBRANCH  24  27
ENDBRANCH  19  21
ENDBRANCH   2  17
BRANCH   2  29
ATOM     29  C   UNL     1      -6.502   6.631   2.861  0.00  0.00    +0.104 C 
ATOM     30  N   UNL     1      -7.592   6.936   2.763  0.00  0.00    -0.191 NA
ENDBRANCH   2  29
TORSDOF 7
