REMARK  Name = ZINC67292302
REMARK  7 active torsions:
REMARK  status: ('A' for Active; 'I' for Inactive)
REMARK    1  A    between atoms: C_1  and  C_2
REMARK    2  A    between atoms: C_2  and  O_3
REMARK    3  A    between atoms: O_3  and  C_4
REMARK    4  A    between atoms: C_9  and  N_10
REMARK    5  A    between atoms: C_12  and  C_22
REMARK    6  A    between atoms: N_24  and  C_25
REMARK    7  A    between atoms: C_25  and  C_26
REMARK                            x       y       z     vdW  Elec       q    Type
REMARK                         _______ _______ _______ _____ _____    ______ ____
ROOT
ATOM      1  N   UNL     1       1.950  -1.502   3.381  0.00  0.00    -0.322 N 
ATOM      2  C   UNL     1       2.498  -2.017   4.459  0.00  0.00    +0.212 A 
ATOM      3  C   UNL     1       3.018  -1.152   5.537  0.00  0.00    +0.097 A 
ATOM      4  C   UNL     1       3.047  -1.686   6.818  0.00  0.00    +0.030 A 
ATOM      5  C   UNL     1       2.560  -3.057   6.987  0.00  0.00    +0.019 A 
ATOM      6  C   UNL     1       2.304  -3.574   8.263  0.00  0.00    +0.026 A 
ATOM      7  C   UNL     1       1.843  -4.865   8.394  0.00  0.00    +0.019 A 
ATOM      8  C   UNL     1       1.631  -5.653   7.271  0.00  0.00    +0.019 A 
ATOM      9  C   UNL     1       1.880  -5.157   6.007  0.00  0.00    +0.048 A 
ATOM     10  C   UNL     1       2.347  -3.860   5.851  0.00  0.00    +0.137 A 
ATOM     11  O   UNL     1       2.598  -3.362   4.618  0.00  0.00    -0.439 OA
ATOM     12 BR   UNL     1       1.497  -5.569  10.115  0.00  0.00    -0.050 Br
ATOM     13  H   UNL     1       1.893  -0.539   3.279  0.00  0.00    +0.169 HD
ENDROOT
BRANCH   1  19
ATOM     14  C   UNL     1       0.155  -2.144   1.921  0.00  0.00    +0.144 A 
ATOM     15  C   UNL     1      -0.330  -2.976   0.928  0.00  0.00    +0.048 A 
ATOM     16  C   UNL     1       0.467  -3.985   0.417  0.00  0.00    +0.004 A 
ATOM     17  C   UNL     1       1.753  -4.170   0.894  0.00  0.00    +0.002 A 
ATOM     18  C   UNL     1       2.252  -3.349   1.885  0.00  0.00    +0.029 A 
ATOM     19  C   UNL     1       1.459  -2.323   2.403  0.00  0.00    +0.084 A 
BRANCH  14  20
ATOM     20  O   UNL     1      -0.627  -1.153   2.424  0.00  0.00    -0.490 OA
BRANCH  20  22
ATOM     21  C   UNL     1      -2.670   0.132   2.568  0.00  0.00    +0.048 C 
ATOM     22  C   UNL     1      -1.945  -1.030   1.884  0.00  0.00    +0.226 C 
ENDBRANCH  20  22
ENDBRANCH  14  20
ENDBRANCH   1  19
BRANCH   3  23
ATOM     23  C   UNL     1       3.486   0.218   5.264  0.00  0.00    +0.249 C 
ATOM     24  O   UNL     1       3.391   0.681   4.143  0.00  0.00    -0.270 OA
ATOM     25  N   UNL     1       4.020   0.957   6.256  0.00  0.00    -0.309 N 
ATOM     26  H   UNL     1       4.040   0.612   7.162  0.00  0.00    +0.149 HD
BRANCH  25  27
ATOM     27  C   UNL     1       4.570   2.284   5.966  0.00  0.00    +0.136 C 
BRANCH  27  28
ATOM     28  C   UNL     1       5.109   2.906   7.256  0.00  0.00    +0.135 C 
ATOM     29  C   UNL     1       5.664   4.325   6.977  0.00  0.00    +0.035 C 
ATOM     30  C   UNL     1       5.533   4.974   8.382  0.00  0.00    +0.031 C 
ATOM     31  C   UNL     1       4.250   4.313   8.930  0.00  0.00    +0.160 C 
ATOM     32  O   UNL     1       4.043   3.096   8.200  0.00  0.00    -0.375 OA
ENDBRANCH  27  28
ENDBRANCH  25  27
ENDBRANCH   3  23
TORSDOF 6
