REMARK  Name = ZINC12290899
REMARK  4 active torsions:
REMARK  status: ('A' for Active; 'I' for Inactive)
REMARK    1  A    between atoms: C_4  and  N_7
REMARK    2  A    between atoms: N_7  and  N_8
REMARK    3  A    between atoms: N_8  and  S_9
REMARK    4  A    between atoms: S_9  and  C_12
REMARK                            x       y       z     vdW  Elec       q    Type
REMARK                         _______ _______ _______ _____ _____    ______ ____
ROOT
ATOM      1  S   UNL     1       5.913  -0.129   1.186  0.00  0.00    +0.074 S 
ATOM      2  O   UNL     1       7.050   0.706   1.014  0.00  0.00    -0.152 OA
ATOM      3  O   UNL     1       5.073  -0.045   2.329  0.00  0.00    -0.152 OA
ENDROOT
BRANCH   1   4
ATOM      4  C   UNL     1       6.492  -1.791   1.107  0.00  0.00    +0.115 A 
ATOM      5  C   UNL     1       6.135  -2.686   2.069  0.00  0.00    +0.030 A 
ATOM      6  C   UNL     1       6.577  -4.006   2.020  0.00  0.00    +0.018 A 
ATOM      7  C   UNL     1       7.389  -4.437   1.015  0.00  0.00    +0.026 A 
ATOM      8  C   UNL     1       7.783  -3.540   0.007  0.00  0.00    -0.002 A 
ATOM      9  C   UNL     1       7.328  -2.198   0.054  0.00  0.00    +0.010 A 
ATOM     10  C   UNL     1       7.722  -1.301  -0.954  0.00  0.00    +0.010 A 
ATOM     11  C   UNL     1       8.533  -1.731  -1.958  0.00  0.00    +0.001 A 
ATOM     12  C   UNL     1       8.981  -3.050  -2.004  0.00  0.00    +0.001 A 
ATOM     13  C   UNL     1       8.620  -3.947  -1.046  0.00  0.00    +0.009 A 
ATOM     14 BR   UNL     1       7.983  -6.232   0.975  0.00  0.00    -0.050 Br
ENDBRANCH   1   4
BRANCH   1  15
ATOM     15  N   UNL     1       4.942   0.115  -0.133  0.00  0.00    -0.110 NA
ATOM     16  H   UNL     1       5.166   0.804  -0.779  0.00  0.00    +0.172 HD
BRANCH  15  17
ATOM     17  N   UNL     1       3.798  -0.672  -0.317  0.00  0.00    -0.262 N 
ATOM     18  H   UNL     1       3.874  -1.639  -0.342  0.00  0.00    +0.168 HD
BRANCH  17  22
ATOM     19  C   UNL     1       0.074   1.137  -0.752  0.00  0.00    +0.000 A 
ATOM     20  C   UNL     1       1.202   1.916  -0.571  0.00  0.00    +0.002 A 
ATOM     21  C   UNL     1       2.439   1.319  -0.426  0.00  0.00    +0.024 A 
ATOM     22  C   UNL     1       2.549  -0.065  -0.462  0.00  0.00    +0.043 A 
ATOM     23  C   UNL     1       1.413  -0.844  -0.644  0.00  0.00    +0.024 A 
ATOM     24  C   UNL     1       0.179  -0.241  -0.788  0.00  0.00    +0.002 A 
ENDBRANCH  17  22
ENDBRANCH  15  17
ENDBRANCH   1  15
TORSDOF 4
