REMARK  Name = ZINC20714514
REMARK  9 active torsions:
REMARK  status: ('A' for Active; 'I' for Inactive)
REMARK    1  A    between atoms: C_1  and  C_2
REMARK    2  A    between atoms: C_2  and  C_3
REMARK    3  A    between atoms: C_2  and  C_4
REMARK    4  A    between atoms: C_4  and  C_5
REMARK    5  A    between atoms: C_5  and  C_7
REMARK    6  A    between atoms: C_5  and  N_11
REMARK    7  A    between atoms: C_7  and  O_9
REMARK    8  A    between atoms: O_9  and  C_10
REMARK    9  A    between atoms: C_23  and  C_25
REMARK                            x       y       z     vdW  Elec       q    Type
REMARK                         _______ _______ _______ _____ _____    ______ ____
ROOT
ATOM      1  N   UNL     1      -2.506   1.036  -3.810  0.00  0.00    -0.286 N 
ATOM      2  C   UNL     1      -2.442   1.490  -2.543  0.00  0.00    +0.304 C 
ATOM      3  O   UNL     1      -2.416   0.704  -1.616  0.00  0.00    -0.253 OA
ATOM      4  N   UNL     1      -2.406   2.816  -2.303  0.00  0.00    -0.273 N 
ATOM      5  C   UNL     1      -2.225   3.330  -0.937  0.00  0.00    +0.116 C 
ATOM      6  C   UNL     1      -3.484   4.099  -0.519  0.00  0.00    +0.074 C 
ATOM      7  C   UNL     1      -3.904   4.997  -1.654  0.00  0.00    +0.040 A 
ATOM      8  C   UNL     1      -3.497   4.862  -2.935  0.00  0.00    +0.062 A 
ATOM      9  N   UNL     1      -4.072   5.826  -3.657  0.00  0.00    -0.348 N 
ATOM     10  C   UNL     1      -4.820   6.559  -2.873  0.00  0.00    +0.171 A 
ATOM     11  N   UNL     1      -4.739   6.072  -1.614  0.00  0.00    -0.349 N 
ATOM     12  H   UNL     1      -5.191   6.422  -0.830  0.00  0.00    +0.166 HD
ATOM     13  C   UNL     1      -2.541   3.786  -3.405  0.00  0.00    +0.158 C 
ATOM     14  H   UNL     1      -2.601   1.661  -4.545  0.00  0.00    +0.151 HD
ATOM     15  H   UNL     1      -3.954   5.962  -4.610  0.00  0.00    +0.167 HD
ENDROOT
BRANCH  13  16
ATOM     16  C   UNL     1      -1.198   4.391  -3.723  0.00  0.00    -0.001 A 
ATOM     17  C   UNL     1      -0.542   5.154  -2.776  0.00  0.00    +0.007 A 
ATOM     18  C   UNL     1       0.690   5.709  -3.067  0.00  0.00    +0.002 A 
ATOM     19  C   UNL     1       1.267   5.503  -4.306  0.00  0.00    +0.021 A 
ATOM     20  C   UNL     1       0.611   4.740  -5.256  0.00  0.00    +0.060 A 
ATOM     21  C   UNL     1      -0.620   4.178  -4.962  0.00  0.00    +0.065 A 
ATOM     22 CL   UNL     1      -1.441   3.214  -6.149  0.00  0.00    -0.082 Cl
ATOM     23 CL   UNL     1       1.335   4.480  -6.812  0.00  0.00    -0.082 Cl
ENDBRANCH  13  16
BRANCH   1  24
ATOM     24  C   UNL     1      -2.434  -0.403  -4.077  0.00  0.00    +0.183 C 
BRANCH  24  25
ATOM     25  C   UNL     1      -0.990  -0.828  -4.151  0.00  0.00    +0.327 C 
ATOM     26  O   UNL     1      -0.112  -0.013  -3.997  0.00  0.00    -0.249 OA
BRANCH  25  27
ATOM     27  O   UNL     1      -0.680  -2.112  -4.388  0.00  0.00    -0.467 OA
ATOM     28  C   UNL     1       0.709  -2.444  -4.446  0.00  0.00    +0.280 C 
ENDBRANCH  25  27
ENDBRANCH  24  25
BRANCH  24  29
ATOM     29  C   UNL     1      -3.125  -0.710  -5.407  0.00  0.00    +0.036 C 
BRANCH  29  31
ATOM     30  C   UNL     1      -5.269  -0.527  -6.676  0.00  0.00    +0.007 C 
ATOM     31  C   UNL     1      -4.604  -0.332  -5.312  0.00  0.00    -0.015 C 
ATOM     32  C   UNL     1      -5.293  -1.223  -4.277  0.00  0.00    +0.007 C 
ENDBRANCH  29  31
ENDBRANCH  24  29
ENDBRANCH   1  24
TORSDOF 6
