REMARK  Name = ZINC02376125
REMARK  8 active torsions:
REMARK  status: ('A' for Active; 'I' for Inactive)
REMARK    1  A    between atoms: C_1  and  O_2
REMARK    2  A    between atoms: O_2  and  C_3
REMARK    3  A    between atoms: C_3  and  C_4
REMARK    4  A    between atoms: C_4  and  C_5
REMARK    5  A    between atoms: C_5  and  N_6
REMARK    6  A    between atoms: C_7  and  N_8
REMARK    7  A    between atoms: C_9  and  S_22
REMARK    8  A    between atoms: S_22  and  C_25
REMARK                            x       y       z     vdW  Elec       q    Type
REMARK                         _______ _______ _______ _____ _____    ______ ____
ROOT
ATOM      1  N   UNL     1      -0.098  -3.487   0.343  0.00  0.00    -0.312 N 
ATOM      2  C   UNL     1      -1.103  -4.419   0.193  0.00  0.00    +0.124 A 
ATOM      3  C   UNL     1      -2.455  -4.010   0.100  0.00  0.00    +0.132 A 
ATOM      4  C   UNL     1      -2.775  -2.694   0.159  0.00  0.00    +0.047 A 
ATOM      5  C   UNL     1      -1.748  -1.735   0.314  0.00  0.00    +0.084 A 
ATOM      6  C   UNL     1      -0.404  -2.149   0.407  0.00  0.00    +0.150 A 
ATOM      7  N   UNL     1       0.551  -1.238   0.553  0.00  0.00    -0.211 NA
ATOM      8  C   UNL     1       0.267   0.062   0.616  0.00  0.00    +0.143 A 
ATOM      9  C   UNL     1       1.319   0.984   0.772  0.00  0.00    +0.047 A 
ATOM     10  C   UNL     1       1.041   2.317   0.837  0.00  0.00    +0.005 A 
ATOM     11  C   UNL     1      -0.289   2.751   0.746  0.00  0.00    +0.018 A 
ATOM     12  C   UNL     1      -1.287   1.853   0.596  0.00  0.00    +0.096 A 
ATOM     13  N   UNL     1      -1.020   0.517   0.531  0.00  0.00    -0.268 N 
ATOM     14  C   UNL     1      -2.042  -0.354   0.381  0.00  0.00    +0.268 A 
ATOM     15  O   UNL     1      -3.192   0.042   0.304  0.00  0.00    -0.267 OA
ENDROOT
BRANCH   2  16
ATOM     16  N   UNL     1      -0.803  -5.696   0.135  0.00  0.00    -0.343 N 
ATOM     17  H   UNL     1      -1.602  -6.444   0.015  0.00  0.00    +0.144 HD
ATOM     18  H   UNL     1       0.246  -6.019   0.206  0.00  0.00    +0.144 HD
ENDBRANCH   2  16
BRANCH   3  19
ATOM     19  S   UNL     1      -3.727  -5.215  -0.093  0.00  0.00    +0.028 S 
ATOM     20  O   UNL     1      -4.957  -4.506  -0.124  0.00  0.00    -0.164 OA
ATOM     21  O   UNL     1      -3.316  -6.074  -1.149  0.00  0.00    -0.164 OA
BRANCH  19  22
ATOM     22  C   UNL     1      -3.745  -6.193   1.372  0.00  0.00    +0.094 A 
ATOM     23  C   UNL     1      -3.079  -7.404   1.403  0.00  0.00    +0.028 A 
ATOM     24  C   UNL     1      -3.090  -8.169   2.555  0.00  0.00    +0.017 A 
ATOM     25  C   UNL     1      -3.774  -7.727   3.672  0.00  0.00    +0.018 A 
ATOM     26  C   UNL     1      -4.444  -6.517   3.639  0.00  0.00    +0.017 A 
ATOM     27  C   UNL     1      -4.429  -5.751   2.489  0.00  0.00    +0.028 A 
ATOM     28 BR   UNL     1      -3.794  -8.776   5.246  0.00  0.00    -0.050 Br
ENDBRANCH  19  22
ENDBRANCH   3  19
BRANCH   1  29
ATOM     29  C   UNL     1       1.297  -3.925   0.438  0.00  0.00    +0.127 C 
BRANCH  29  30
ATOM     30  C   UNL     1       1.655  -4.174   1.905  0.00  0.00    +0.050 C 
BRANCH  30  31
ATOM     31  C   UNL     1       3.111  -4.631   2.003  0.00  0.00    +0.161 C 
BRANCH  31  33
ATOM     32  C   UNL     1       4.792  -5.296   3.577  0.00  0.00    +0.193 C 
ATOM     33  O   UNL     1       3.446  -4.864   3.373  0.00  0.00    -0.383 OA
ENDBRANCH  31  33
ENDBRANCH  30  31
ENDBRANCH  29  30
ENDBRANCH   1  29
TORSDOF 7
