REMARK  Name = ZINC04269821
REMARK  6 active torsions:
REMARK  status: ('A' for Active; 'I' for Inactive)
REMARK    1  A    between atoms: C_4  and  C_7
REMARK    2  A    between atoms: C_7  and  C_9
REMARK    3  A    between atoms: C_11  and  C_23
REMARK    4  A    between atoms: C_17  and  C_18
REMARK    5  A    between atoms: C_17  and  O_22
REMARK    6  A    between atoms: C_28  and  O_29
REMARK                            x       y       z     vdW  Elec       q    Type
REMARK                         _______ _______ _______ _____ _____    ______ ____
ROOT
ATOM      1  C   UNL     1      -2.606   4.288   1.695  0.00  0.00    +0.144 C 
ATOM      2  C   UNL     1      -2.226   3.922   0.256  0.00  0.00    +0.123 C 
ATOM      3  N   UNL     1      -3.366   3.272  -0.392  0.00  0.00    -0.292 N 
ATOM      4  C   UNL     1      -4.260   2.563   0.314  0.00  0.00    +0.302 C 
ATOM      5  O   UNL     1      -5.182   2.034  -0.275  0.00  0.00    -0.253 OA
ATOM      6  N   UNL     1      -4.176   2.417   1.645  0.00  0.00    -0.264 N 
ATOM      7  C   UNL     1      -3.083   3.018   2.410  0.00  0.00    +0.243 C 
ATOM      8  H   UNL     1      -3.477   3.354  -1.352  0.00  0.00    +0.151 HD
ATOM      9  H   UNL     1      -4.854   1.901   2.110  0.00  0.00    +0.153 HD
ENDROOT
BRANCH   2  10
ATOM     10  C   UNL     1      -1.050   2.980   0.270  0.00  0.00    +0.015 A 
ATOM     11  C   UNL     1      -1.249   1.623   0.105  0.00  0.00    +0.009 A 
ATOM     12  C   UNL     1      -0.171   0.758   0.123  0.00  0.00    +0.001 A 
ATOM     13  C   UNL     1       1.111   1.250   0.295  0.00  0.00    +0.004 A 
ATOM     14  C   UNL     1       1.315   2.606   0.455  0.00  0.00    +0.046 A 
ATOM     15  C   UNL     1       0.234   3.476   0.443  0.00  0.00    +0.122 A 
BRANCH  15  16
ATOM     16  O   UNL     1       0.433   4.811   0.599  0.00  0.00    -0.506 OA
ATOM     17  H   UNL     1       0.573   5.288  -0.230  0.00  0.00    +0.292 HD
ENDBRANCH  15  16
ENDBRANCH   2  10
BRANCH   7  18
ATOM     18  C   UNL     1      -3.578   3.376   3.813  0.00  0.00    +0.436 C 
ATOM     19  F   UNL     1      -3.889   2.204   4.511  0.00  0.00    -0.166 F 
ATOM     20  F   UNL     1      -2.576   4.074   4.497  0.00  0.00    -0.166 F 
ATOM     21  F   UNL     1      -4.721   4.177   3.715  0.00  0.00    -0.166 F 
ENDBRANCH   7  18
BRANCH   1  22
ATOM     22  C   UNL     1      -3.716   5.308   1.681  0.00  0.00    +0.173 C 
ATOM     23  O   UNL     1      -4.806   5.011   1.243  0.00  0.00    -0.292 OA
BRANCH  22  27
ATOM     24  C   UNL     1      -3.022   9.216   3.177  0.00  0.00    +0.000 A 
ATOM     25  C   UNL     1      -4.301   8.837   2.810  0.00  0.00    +0.001 A 
ATOM     26  C   UNL     1      -4.535   7.568   2.323  0.00  0.00    +0.011 A 
ATOM     27  C   UNL     1      -3.475   6.664   2.200  0.00  0.00    +0.018 A 
ATOM     28  C   UNL     1      -2.186   7.054   2.578  0.00  0.00    +0.011 A 
ATOM     29  C   UNL     1      -1.968   8.328   3.058  0.00  0.00    +0.001 A 
ENDBRANCH  22  27
ENDBRANCH   1  22
BRANCH   7  30
ATOM     30  O   UNL     1      -2.001   2.091   2.508  0.00  0.00    -0.364 OA
ATOM     31  H   UNL     1      -2.233   1.260   2.946  0.00  0.00    +0.212 HD
ENDBRANCH   7  30
TORSDOF 6
