REMARK  Name = ZINC09508780
REMARK  6 active torsions:
REMARK  status: ('A' for Active; 'I' for Inactive)
REMARK    1  A    between atoms: C_3  and  C_6
REMARK    2  A    between atoms: N_8  and  N_9
REMARK    3  A    between atoms: C_10  and  C_12
REMARK    4  A    between atoms: C_15  and  N_18
REMARK    5  A    between atoms: N_18  and  S_19
REMARK    6  A    between atoms: S_19  and  C_22
REMARK                            x       y       z     vdW  Elec       q    Type
REMARK                         _______ _______ _______ _____ _____    ______ ____
ROOT
ATOM      1  C   UNL     1       1.597   2.159  -0.048  0.00  0.00    +0.038 A 
ATOM      2  C   UNL     1       0.345   1.545   0.054  0.00  0.00    +0.015 A 
ATOM      3  C   UNL     1       0.253   0.172   0.062  0.00  0.00    +0.025 A 
ATOM      4  C   UNL     1       1.405  -0.605  -0.031  0.00  0.00    +0.048 A 
ATOM      5  C   UNL     1       2.652   0.004  -0.133  0.00  0.00    +0.025 A 
ATOM      6  C   UNL     1       2.751   1.376  -0.141  0.00  0.00    +0.015 A 
ENDROOT
BRANCH   1   8
ATOM      7  N   UNL     1       2.906   4.222  -0.155  0.00  0.00    -0.230 N 
ATOM      8  C   UNL     1       1.699   3.631  -0.057  0.00  0.00    +0.260 C 
ATOM      9  O   UNL     1       0.694   4.311   0.025  0.00  0.00    -0.269 OA
ATOM     10  H   UNL     1       3.708   3.680  -0.220  0.00  0.00    +0.173 HD
BRANCH   7  13
ATOM     11  C   UNL     1       4.210   6.211  -0.262  0.00  0.00    +0.295 C 
ATOM     12  O   UNL     1       5.216   5.530  -0.343  0.00  0.00    -0.265 OA
ATOM     13  N   UNL     1       3.003   5.620  -0.163  0.00  0.00    -0.228 N 
ATOM     14  H   UNL     1       2.201   6.162  -0.098  0.00  0.00    +0.173 HD
BRANCH  11  17
ATOM     15  C   UNL     1       5.097   9.751  -0.336  0.00  0.00    +0.042 A 
ATOM     16  C   UNL     1       5.466   8.397  -0.364  0.00  0.00    +0.054 A 
ATOM     17  C   UNL     1       4.312   7.674  -0.271  0.00  0.00    +0.190 A 
ATOM     18  O   UNL     1       3.281   8.540  -0.193  0.00  0.00    -0.458 OA
ATOM     19  C   UNL     1       3.750   9.794  -0.227  0.00  0.00    +0.196 A 
ENDBRANCH  11  17
ENDBRANCH   7  13
ENDBRANCH   1   8
BRANCH   4  20
ATOM     20  N   UNL     1       1.308  -1.992  -0.023  0.00  0.00    -0.216 N 
ATOM     21  H   UNL     1       0.747  -2.436   0.632  0.00  0.00    +0.174 HD
BRANCH  20  22
ATOM     22  S   UNL     1       2.152  -2.888  -1.131  0.00  0.00    +0.074 S 
ATOM     23  O   UNL     1       3.507  -2.465  -1.048  0.00  0.00    -0.150 OA
ATOM     24  O   UNL     1       1.763  -4.241  -0.941  0.00  0.00    -0.150 OA
BRANCH  22  25
ATOM     25  C   UNL     1       1.576  -2.417  -2.729  0.00  0.00    +0.135 A 
ATOM     26  C   UNL     1       2.426  -1.799  -3.628  0.00  0.00    +0.058 A 
ATOM     27  C   UNL     1       1.951  -1.455  -4.851  0.00  0.00    +0.081 A 
ATOM     28  S   UNL     1       0.253  -1.997  -4.754  0.00  0.00    -0.063 S 
ATOM     29  C   UNL     1       0.291  -2.651  -3.093  0.00  0.00    +0.106 A 
ATOM     30 CL   UNL     1      -0.986  -3.396  -2.182  0.00  0.00    -0.074 Cl
ATOM     31 CL   UNL     1       2.778  -0.682  -6.167  0.00  0.00    -0.076 Cl
ENDBRANCH  22  25
ENDBRANCH  20  22
ENDBRANCH   4  20
TORSDOF 6
