REMARK  Name = ZINC39540249
REMARK  13 active torsions:
REMARK  status: ('A' for Active; 'I' for Inactive)
REMARK    1  A    between atoms: C_1  and  C_2
REMARK    2  A    between atoms: C_2  and  C_3
REMARK    3  A    between atoms: C_2  and  S_4
REMARK    4  A    between atoms: S_4  and  C_7
REMARK    5  A    between atoms: C_10  and  C_13
REMARK    6  A    between atoms: C_13  and  C_15
REMARK    7  A    between atoms: C_13  and  N_19
REMARK    8  A    between atoms: C_15  and  N_16
REMARK    9  A    between atoms: N_16  and  S_17
REMARK   10  A    between atoms: S_17  and  C_18
REMARK   11  A    between atoms: C_23  and  S_26
REMARK   12  A    between atoms: S_26  and  O_29
REMARK   13  A    between atoms: O_29  and  C_30
REMARK                            x       y       z     vdW  Elec       q    Type
REMARK                         _______ _______ _______ _____ _____    ______ ____
ROOT
ATOM      1  C   UNL     1      -2.262   1.559   6.146  0.00  0.00    +0.101 C 
ENDROOT
BRANCH   1   2
ATOM      2  N   UNL     1      -3.655   1.156   5.907  0.00  0.00    -0.296 NA
ATOM      3  C   UNL     1      -4.591   2.166   6.422  0.00  0.00    +0.066 C 
ATOM      4  C   UNL     1      -6.024   1.739   6.101  0.00  0.00    -0.064 C 
ATOM      5  N   UNL     1      -6.297   0.433   6.717  0.00  0.00    +0.398 N 
ATOM      6  C   UNL     1      -5.370  -0.569   6.174  0.00  0.00    +0.130 C 
ATOM      7  C   UNL     1      -3.931  -0.161   6.496  0.00  0.00    +0.095 C 
ATOM      8  H   UNL     1      -6.171   0.500   7.716  0.00  0.00    -0.083 HD
ATOM      9  H   UNL     1      -7.246   0.158   6.515  0.00  0.00    -0.083 HD
BRANCH   6  10
ATOM     10  S   UNL     1      -5.723  -2.185   6.920  0.00  0.00    +0.109 S 
ATOM     11  O   UNL     1      -4.959  -3.197   6.278  0.00  0.00    -0.138 OA
ATOM     12  O   UNL     1      -5.737  -2.077   8.337  0.00  0.00    -0.138 OA
BRANCH  10  13
ATOM     13  O   UNL     1      -7.165  -2.486   6.538  0.00  0.00    -0.347 OA
BRANCH  13  14
ATOM     14  C   UNL     1      -7.327  -2.860   5.242  0.00  0.00    +0.156 A 
ATOM     15  C   UNL     1      -7.561  -1.902   4.266  0.00  0.00    +0.048 A 
ATOM     16  C   UNL     1      -7.725  -2.284   2.949  0.00  0.00    +0.004 A 
ATOM     17  C   UNL     1      -7.656  -3.621   2.603  0.00  0.00    +0.000 A 
ATOM     18  C   UNL     1      -7.423  -4.578   3.573  0.00  0.00    +0.004 A 
ATOM     19  C   UNL     1      -7.253  -4.200   4.891  0.00  0.00    +0.048 A 
ENDBRANCH  13  14
ENDBRANCH  10  13
ENDBRANCH   6  10
ENDBRANCH   1   2
BRANCH   1  23
ATOM     20  C   UNL     1       0.182   0.238   2.902  0.00  0.00    +0.088 A 
ATOM     21  C   UNL     1       0.329   1.518   3.401  0.00  0.00    +0.027 A 
ATOM     22  C   UNL     1      -0.462   1.946   4.451  0.00  0.00    +0.007 A 
ATOM     23  C   UNL     1      -1.401   1.093   5.001  0.00  0.00    -0.029 A 
ATOM     24  C   UNL     1      -1.548  -0.187   4.501  0.00  0.00    +0.007 A 
ATOM     25  C   UNL     1      -0.760  -0.614   3.449  0.00  0.00    +0.027 A 
BRANCH  20  26
ATOM     26  S   UNL     1       1.190  -0.307   1.563  0.00  0.00    -0.001 S 
ATOM     27  O   UNL     1       1.245  -1.720   1.702  0.00  0.00    -0.169 OA
ATOM     28  O   UNL     1       2.372   0.476   1.657  0.00  0.00    -0.169 OA
BRANCH  26  30
ATOM     29  C   UNL     1       0.047   1.652   0.035  0.00  0.00    +0.032 C 
ATOM     30  C   UNL     1       0.262   0.138   0.069  0.00  0.00    +0.130 C 
ATOM     31  C   UNL     1       1.052  -0.293  -1.169  0.00  0.00    +0.032 C 
ENDBRANCH  26  30
ENDBRANCH  20  26
ENDBRANCH   1  23
BRANCH   1  32
ATOM     32  C   UNL     1      -1.766   0.926   7.448  0.00  0.00    +0.117 C 
BRANCH  32  33
ATOM     33  N   UNL     1      -2.643   1.330   8.555  0.00  0.00    -0.262 NA
ATOM     34  H   UNL     1      -2.514   2.305   8.781  0.00  0.00    +0.135 HD
BRANCH  33  35
ATOM     35  S   UNL     1      -2.384   0.312   9.972  0.00  0.00    -0.084 S 
ATOM     36  C   UNL     1      -3.545   0.967  11.202  0.00  0.00    +0.102 C 
ENDBRANCH  33  35
ENDBRANCH  32  33
ENDBRANCH   1  32
TORSDOF 10
