REMARK  Name = ZINC39462391
REMARK  9 active torsions:
REMARK  status: ('A' for Active; 'I' for Inactive)
REMARK    1  A    between atoms: C_1  and  O_2
REMARK    2  A    between atoms: O_2  and  C_3
REMARK    3  A    between atoms: C_6  and  C_9
REMARK    4  A    between atoms: C_9  and  C_10
REMARK    5  A    between atoms: C_10  and  N_11
REMARK    6  A    between atoms: N_11  and  C_12
REMARK    7  A    between atoms: C_22  and  S_24
REMARK    8  A    between atoms: S_24  and  C_25
REMARK    9  A    between atoms: C_28  and  C_30
REMARK                            x       y       z     vdW  Elec       q    Type
REMARK                         _______ _______ _______ _____ _____    ______ ____
ROOT
ATOM      1  C   UNL     1      -7.253  -3.825  -2.668  0.00  0.00    +0.020 C 
ATOM      2  C   UNL     1      -6.543  -3.535  -3.795  0.00  0.00    +0.013 A 
ATOM      3  C   UNL     1      -5.216  -2.924  -3.710  0.00  0.00    +0.011 A 
ATOM      4  C   UNL     1      -4.545  -2.653  -4.860  0.00  0.00    +0.001 A 
ATOM      5  C   UNL     1      -5.095  -2.945  -6.108  0.00  0.00    +0.002 A 
ATOM      6  C   UNL     1      -6.322  -3.512  -6.254  0.00  0.00    +0.024 A 
ATOM      7  C   UNL     1      -7.099  -3.833  -5.126  0.00  0.00    +0.042 A 
ATOM      8  N   UNL     1      -8.300  -4.389  -5.282  0.00  0.00    -0.284 N 
ATOM      9  C   UNL     1      -9.082  -4.715  -4.266  0.00  0.00    +0.236 C 
ATOM     10  O   UNL     1     -10.170  -5.221  -4.471  0.00  0.00    -0.274 OA
ATOM     11  C   UNL     1      -8.616  -4.464  -2.850  0.00  0.00    +0.185 C 
ATOM     12  H   UNL     1      -8.616  -4.563  -6.183  0.00  0.00    +0.155 HD
ENDROOT
BRANCH   1  13
ATOM     13  N   UNL     1      -6.742  -3.550  -1.396  0.00  0.00    -0.406 NA
ATOM     14  H   UNL     1      -5.734  -3.545  -1.432  0.00  0.00    +0.123 HD
ATOM     15  H   UNL     1      -7.053  -4.259  -0.748  0.00  0.00    +0.123 HD
BRANCH  13  16
ATOM     16  C   UNL     1      -7.223  -2.236  -0.949  0.00  0.00    +0.087 C 
BRANCH  16  17
ATOM     17  C   UNL     1      -6.646  -1.924   0.433  0.00  0.00    +0.052 C 
BRANCH  17  21
ATOM     18  C   UNL     1      -8.043   1.899   1.733  0.00  0.00    +0.120 A 
ATOM     19  C   UNL     1      -8.767   0.755   2.036  0.00  0.00    +0.046 A 
ATOM     20  C   UNL     1      -8.313  -0.480   1.615  0.00  0.00    +0.007 A 
ATOM     21  C   UNL     1      -7.139  -0.576   0.891  0.00  0.00    -0.046 A 
ATOM     22  C   UNL     1      -6.415   0.563   0.588  0.00  0.00    +0.007 A 
ATOM     23  C   UNL     1      -6.868   1.801   1.002  0.00  0.00    +0.046 A 
BRANCH  18  25
ATOM     24  C   UNL     1      -9.705   3.141   2.894  0.00  0.00    +0.277 C 
ATOM     25  O   UNL     1      -8.488   3.115   2.146  0.00  0.00    -0.495 OA
ENDBRANCH  18  25
ENDBRANCH  17  21
ENDBRANCH  16  17
ENDBRANCH  13  16
ENDBRANCH   1  13
BRANCH  11  26
ATOM     26  S   UNL     1      -8.610  -6.050  -1.969  0.00  0.00    -0.047 S 
BRANCH  26  27
ATOM     27  C   UNL     1     -10.267  -6.628  -2.121  0.00  0.00    +0.279 A 
ATOM     28  N   UNL     1     -11.248  -6.018  -2.744  0.00  0.00    -0.101 NA
ATOM     29  N   UNL     1     -12.319  -6.725  -2.655  0.00  0.00    -0.103 NA
ATOM     30  C   UNL     1     -12.065  -7.816  -1.969  0.00  0.00    +0.284 A 
ATOM     31  O   UNL     1     -10.758  -7.779  -1.622  0.00  0.00    -0.408 OA
BRANCH  30  32
ATOM     32  C   UNL     1     -13.021  -8.884  -1.645  0.00  0.00    +0.191 A 
ATOM     33  C   UNL     1     -14.335  -8.920  -2.009  0.00  0.00    +0.055 A 
ATOM     34  C   UNL     1     -14.867 -10.114  -1.488  0.00  0.00    +0.042 A 
ATOM     35  C   UNL     1     -13.867 -10.744  -0.839  0.00  0.00    +0.196 A 
ATOM     36  O   UNL     1     -12.752 -10.001  -0.941  0.00  0.00    -0.458 OA
ENDBRANCH  30  32
ENDBRANCH  26  27
ENDBRANCH  11  26
TORSDOF 8
