REMARK  Name = ZINC39727315
REMARK  4 active torsions:
REMARK  status: ('A' for Active; 'I' for Inactive)
REMARK    1  A    between atoms: C_4  and  N_23
REMARK    2  A    between atoms: C_5  and  N_7
REMARK    3  A    between atoms: N_7  and  C_8
REMARK    4  A    between atoms: C_8  and  C_9
REMARK                            x       y       z     vdW  Elec       q    Type
REMARK                         _______ _______ _______ _____ _____    ______ ____
ROOT
ATOM      1  C   UNL     1       0.010  -2.846   0.112  0.00  0.00    +0.198 C 
ENDROOT
BRANCH   1   2
ATOM      2  C   UNL     1       0.284  -4.320  -0.037  0.00  0.00    +0.234 C 
ATOM      3  O   UNL     1       1.423  -4.714  -0.172  0.00  0.00    -0.274 OA
ATOM      4  N   UNL     1      -0.736  -5.201  -0.020  0.00  0.00    -0.283 N 
ATOM      5  C   UNL     1      -0.736  -6.192   0.849  0.00  0.00    +0.050 C 
ATOM      6  C   UNL     1       0.308  -6.261   1.893  0.00  0.00    +0.054 C 
ATOM      7  C   UNL     1       0.298  -7.285   2.783  0.00  0.00    +0.097 C 
ATOM      8  N   UNL     1       1.084  -7.645   3.839  0.00  0.00    -0.190 NA
ATOM      9  C   UNL     1       0.598  -8.752   4.352  0.00  0.00    +0.369 C 
ATOM     10  O   UNL     1       1.129  -9.396   5.418  0.00  0.00    -0.243 OA
ATOM     11  N   UNL     1      -0.494  -9.165   3.687  0.00  0.00    -0.190 NA
ATOM     12  C   UNL     1      -0.751  -8.322   2.705  0.00  0.00    +0.096 C 
ATOM     13  C   UNL     1      -1.782  -8.246   1.666  0.00  0.00    +0.047 C 
ATOM     14  C   UNL     1      -1.779  -7.226   0.784  0.00  0.00    +0.041 C 
ATOM     15 BR   UNL     1      -3.118  -7.131  -0.548  0.00  0.00    -0.048 Br
ATOM     16  H   UNL     1      -1.470  -5.105  -0.647  0.00  0.00    +0.155 HD
ENDBRANCH   1   2
BRANCH   1  17
ATOM     17  N   UNL     1       1.273  -2.106   0.061  0.00  0.00    -0.334 N 
ATOM     18  H   UNL     1       2.110  -2.583  -0.054  0.00  0.00    +0.147 HD
BRANCH  17  23
ATOM     19  C   UNL     1       0.079   1.350   0.457  0.00  0.00    +0.002 A 
ATOM     20  C   UNL     1       1.270   2.050   0.410  0.00  0.00    +0.002 A 
ATOM     21  C   UNL     1       2.466   1.376   0.247  0.00  0.00    +0.025 A 
ATOM     22  C   UNL     1       2.474  -0.005   0.130  0.00  0.00    +0.057 A 
ATOM     23  C   UNL     1       1.273  -0.712   0.178  0.00  0.00    +0.049 A 
ATOM     24  C   UNL     1       0.077  -0.028   0.342  0.00  0.00    +0.025 A 
BRANCH  22  25
ATOM     25  N   UNL     1       3.686  -0.690  -0.036  0.00  0.00    -0.270 N 
ATOM     26  C   UNL     1       4.297  -0.989  -1.336  0.00  0.00    +0.114 C 
ATOM     27  C   UNL     1       5.770  -1.339  -1.029  0.00  0.00    +0.029 C 
ATOM     28  C   UNL     1       5.678  -1.833   0.434  0.00  0.00    +0.098 C 
ATOM     29  C   UNL     1       4.440  -1.152   0.976  0.00  0.00    +0.220 C 
ATOM     30  O   UNL     1       4.167  -1.043   2.153  0.00  0.00    -0.275 OA
ENDBRANCH  22  25
ENDBRANCH  17  23
ENDBRANCH   1  17
TORSDOF 4
