REMARK  Name = ZINC36497810
REMARK  9 active torsions:
REMARK  status: ('A' for Active; 'I' for Inactive)
REMARK    1  A    between atoms: C_4  and  O_34
REMARK    2  A    between atoms: C_5  and  C_7
REMARK    3  A    between atoms: N_9  and  C_10
REMARK    4  A    between atoms: N_9  and  C_16
REMARK    5  A    between atoms: C_10  and  C_11
REMARK    6  A    between atoms: C_16  and  C_18
REMARK    7  A    between atoms: C_16  and  C_25
REMARK    8  A    between atoms: C_21  and  O_24
REMARK    9  A    between atoms: N_27  and  C_28
REMARK                            x       y       z     vdW  Elec       q    Type
REMARK                         _______ _______ _______ _____ _____    ______ ____
ROOT
ATOM      1  C   UNL     1      -0.250  -4.104  -1.072  0.00  0.00    +0.193 C 
ENDROOT
BRANCH   1   2
ATOM      2  C   UNL     1      -1.168  -3.382  -2.025  0.00  0.00    -0.018 A 
ATOM      3  C   UNL     1      -1.907  -2.299  -1.583  0.00  0.00    +0.009 A 
ATOM      4  C   UNL     1      -2.748  -1.635  -2.454  0.00  0.00    +0.046 A 
ATOM      5  C   UNL     1      -2.852  -2.055  -3.773  0.00  0.00    +0.117 A 
ATOM      6  C   UNL     1      -2.109  -3.141  -4.213  0.00  0.00    +0.046 A 
ATOM      7  C   UNL     1      -1.265  -3.798  -3.339  0.00  0.00    +0.009 A 
BRANCH   5   8
ATOM      8  O   UNL     1      -3.680  -1.403  -4.631  0.00  0.00    -0.507 OA
ATOM      9  H   UNL     1      -3.260  -0.672  -5.104  0.00  0.00    +0.292 HD
ENDBRANCH   5   8
ENDBRANCH   1   2
BRANCH   1  10
ATOM     10  C   UNL     1       0.483  -5.194  -1.811  0.00  0.00    +0.238 C 
ATOM     11  O   UNL     1       0.160  -6.353  -1.659  0.00  0.00    -0.273 OA
ATOM     12  N   UNL     1       1.498  -4.880  -2.640  0.00  0.00    -0.311 N 
ATOM     13  H   UNL     1       1.757  -3.953  -2.761  0.00  0.00    +0.149 HD
BRANCH  12  14
ATOM     14  C   UNL     1       2.212  -5.939  -3.358  0.00  0.00    +0.073 C 
ATOM     15  C   UNL     1       3.313  -6.510  -2.463  0.00  0.00    +0.022 C 
ATOM     16  C   UNL     1       4.058  -7.616  -3.213  0.00  0.00    +0.002 C 
ATOM     17  C   UNL     1       4.683  -7.039  -4.485  0.00  0.00    +0.000 C 
ATOM     18  C   UNL     1       3.581  -6.468  -5.380  0.00  0.00    +0.002 C 
ATOM     19  C   UNL     1       2.836  -5.362  -4.630  0.00  0.00    +0.022 C 
ENDBRANCH  12  14
ENDBRANCH   1  10
BRANCH   1  22
ATOM     20  C   UNL     1      -0.731  -4.423   1.295  0.00  0.00    +0.251 C 
ATOM     21  O   UNL     1      -1.207  -5.094   2.191  0.00  0.00    -0.270 OA
ATOM     22  N   UNL     1      -1.039  -4.695   0.012  0.00  0.00    -0.275 N 
BRANCH  20  27
ATOM     23  C   UNL     1       1.027  -1.111   1.143  0.00  0.00    +0.001 A 
ATOM     24  C   UNL     1       1.903  -1.217   2.212  0.00  0.00    +0.004 A 
ATOM     25  C   UNL     1       1.927  -2.361   2.984  0.00  0.00    +0.046 A 
ATOM     26  C   UNL     1       1.071  -3.414   2.693  0.00  0.00    +0.129 A 
ATOM     27  C   UNL     1       0.183  -3.310   1.614  0.00  0.00    +0.078 A 
ATOM     28  C   UNL     1       0.170  -2.146   0.841  0.00  0.00    +0.017 A 
BRANCH  26  29
ATOM     29  O   UNL     1       1.094  -4.539   3.451  0.00  0.00    -0.506 OA
ATOM     30  H   UNL     1       0.490  -4.517   4.206  0.00  0.00    +0.292 HD
ENDBRANCH  26  29
ENDBRANCH  20  27
BRANCH  22  31
ATOM     31  C   UNL     1      -2.163  -5.582  -0.299  0.00  0.00    +0.183 C 
BRANCH  31  32
ATOM     32  C   UNL     1      -2.108  -6.795   0.594  0.00  0.00    +0.122 A 
ATOM     33  C   UNL     1      -2.782  -6.954   1.747  0.00  0.00    +0.046 A 
ATOM     34  C   UNL     1      -2.438  -8.229   2.251  0.00  0.00    +0.041 A 
ATOM     35  C   UNL     1      -1.573  -8.773   1.376  0.00  0.00    +0.195 A 
ATOM     36  O   UNL     1      -1.381  -7.902   0.371  0.00  0.00    -0.466 OA
ENDBRANCH  31  32
ENDBRANCH  22  31
ENDBRANCH   1  22
TORSDOF 9
