REMARK  Name = ZINC09245745
REMARK  7 active torsions:
REMARK  status: ('A' for Active; 'I' for Inactive)
REMARK    1  A    between atoms: C_4  and  O_7
REMARK    2  A    between atoms: O_7  and  C_8
REMARK    3  A    between atoms: C_12  and  C_14
REMARK    4  A    between atoms: C_14  and  C_16
REMARK    5  A    between atoms: C_14  and  N_31
REMARK    6  A    between atoms: C_16  and  C_17
REMARK    7  A    between atoms: N_19  and  C_20
REMARK                            x       y       z     vdW  Elec       q    Type
REMARK                         _______ _______ _______ _____ _____    ______ ____
ROOT
ATOM      1  C   UNL     1       5.583   4.511   0.862  0.00  0.00    +0.113 C 
ENDROOT
BRANCH   1   2
ATOM      2  N   UNL     1       5.702   3.067   0.650  0.00  0.00    -0.292 N 
ATOM      3  C   UNL     1       5.672   2.226   1.703  0.00  0.00    +0.298 C 
ATOM      4  O   UNL     1       5.454   2.658   2.819  0.00  0.00    -0.253 OA
ATOM      5  N   UNL     1       5.883   0.908   1.520  0.00  0.00    -0.313 N 
ATOM      6  H   UNL     1       5.802   2.715  -0.248  0.00  0.00    +0.151 HD
ATOM      7  H   UNL     1       6.057   0.564   0.630  0.00  0.00    +0.146 HD
ATOM      8  H   UNL     1       5.861   0.303   2.278  0.00  0.00    +0.146 HD
ENDBRANCH   1   2
BRANCH   1  13
ATOM      9  C   UNL     1       8.896   4.785   2.660  0.00  0.00    +0.129 A 
ATOM     10  C   UNL     1       8.641   5.819   3.549  0.00  0.00    +0.046 A 
ATOM     11  C   UNL     1       7.400   6.425   3.564  0.00  0.00    +0.004 A 
ATOM     12  C   UNL     1       6.413   6.005   2.690  0.00  0.00    +0.006 A 
ATOM     13  C   UNL     1       6.663   4.971   1.808  0.00  0.00    -0.023 A 
ATOM     14  C   UNL     1       7.903   4.361   1.789  0.00  0.00    +0.051 A 
BRANCH   9  15
ATOM     15  O   UNL     1      10.116   4.187   2.643  0.00  0.00    -0.456 OA
BRANCH  15  19
ATOM     16  C   UNL     1      10.934   1.375   5.549  0.00  0.00    +0.000 A 
ATOM     17  C   UNL     1      11.871   1.647   4.569  0.00  0.00    +0.004 A 
ATOM     18  C   UNL     1      11.599   2.588   3.594  0.00  0.00    +0.046 A 
ATOM     19  C   UNL     1      10.385   3.260   3.600  0.00  0.00    +0.128 A 
ATOM     20  C   UNL     1       9.450   2.990   4.589  0.00  0.00    +0.046 A 
ATOM     21  C   UNL     1       9.724   2.044   5.557  0.00  0.00    +0.004 A 
ENDBRANCH  15  19
ENDBRANCH   9  15
ENDBRANCH   1  13
BRANCH   1  22
ATOM     22  C   UNL     1       4.212   4.828   1.461  0.00  0.00    +0.123 C 
BRANCH  22  23
ATOM     23  C   UNL     1       3.136   4.482   0.464  0.00  0.00    +0.216 C 
ATOM     24  O   UNL     1       3.437   4.026  -0.619  0.00  0.00    -0.276 OA
ATOM     25  N   UNL     1       1.840   4.678   0.775  0.00  0.00    -0.308 N 
ATOM     26  H   UNL     1       1.599   5.042   1.642  0.00  0.00    +0.149 HD
BRANCH  25  27
ATOM     27  C   UNL     1       0.794   4.341  -0.194  0.00  0.00    +0.103 C 
ATOM     28  C   UNL     1      -0.439   5.202   0.075  0.00  0.00    +0.027 C 
ATOM     29  C   UNL     1      -1.588   4.690  -0.801  0.00  0.00    +0.007 C 
ATOM     30  C   UNL     1      -2.026   3.326  -0.272  0.00  0.00    +0.035 C 
ATOM     31  C   UNL     1      -0.839   2.411  -0.118  0.00  0.00    -0.042 A 
ATOM     32  C   UNL     1       0.456   2.878  -0.071  0.00  0.00    -0.024 A 
ATOM     33  C   UNL     1       1.505   1.983   0.087  0.00  0.00    +0.006 A 
ATOM     34  C   UNL     1       1.261   0.629   0.193  0.00  0.00    +0.000 A 
ATOM     35  C   UNL     1      -0.038   0.159   0.141  0.00  0.00    +0.000 A 
ATOM     36  C   UNL     1      -1.082   1.048  -0.014  0.00  0.00    +0.004 A 
ENDBRANCH  25  27
ENDBRANCH  22  23
ENDBRANCH   1  22
TORSDOF 7
