REMARK  Name = ZINC28535945
REMARK  11 active torsions:
REMARK  status: ('A' for Active; 'I' for Inactive)
REMARK    1  A    between atoms: C_1  and  C_2
REMARK    2  A    between atoms: C_5  and  N_9
REMARK    3  A    between atoms: C_7  and  C_8
REMARK    4  A    between atoms: N_13  and  N_29
REMARK    5  A    between atoms: C_14  and  S_17
REMARK    6  A    between atoms: S_17  and  C_18
REMARK    7  A    between atoms: C_18  and  C_19
REMARK    8  A    between atoms: C_22  and  O_27
REMARK    9  A    between atoms: C_23  and  O_25
REMARK   10  A    between atoms: O_25  and  C_26
REMARK   11  A    between atoms: O_27  and  C_28
REMARK                            x       y       z     vdW  Elec       q    Type
REMARK                         _______ _______ _______ _____ _____    ______ ____
ROOT
ATOM      1  N   UNL     1      -2.321   4.203   0.047  0.00  0.00    -0.294 N 
ATOM      2  C   UNL     1      -1.146   3.470  -0.129  0.00  0.00    +0.212 A 
ATOM      3  C   UNL     1      -1.179   2.050  -0.134  0.00  0.00    +0.312 A 
ATOM      4  O   UNL     1      -2.227   1.446   0.015  0.00  0.00    -0.262 OA
ATOM      5  N   UNL     1      -0.011   1.388  -0.303  0.00  0.00    -0.205 N 
ATOM      6  C   UNL     1       1.133   2.114  -0.471  0.00  0.00    +0.210 A 
ATOM      7  N   UNL     1       1.097   3.432  -0.462  0.00  0.00    -0.121 NA
ATOM      8  N   UNL     1       0.004   4.087  -0.298  0.00  0.00    -0.126 NA
ATOM      9  H   UNL     1      -3.290   3.684   0.097  0.00  0.00    +0.154 HD
ENDROOT
BRANCH   1  14
ATOM     10  C   UNL     1      -2.098   9.850   0.505  0.00  0.00    +0.044 C 
ATOM     11  C   UNL     1      -2.157   8.350   0.383  0.00  0.00    -0.047 A 
ATOM     12  C   UNL     1      -1.118   7.576   0.869  0.00  0.00    +0.005 A 
ATOM     13  C   UNL     1      -1.172   6.201   0.765  0.00  0.00    +0.023 A 
ATOM     14  C   UNL     1      -2.266   5.593   0.160  0.00  0.00    +0.033 A 
ATOM     15  C   UNL     1      -3.307   6.373  -0.327  0.00  0.00    +0.027 A 
ATOM     16  C   UNL     1      -3.250   7.748  -0.214  0.00  0.00    -0.046 A 
ATOM     17  C   UNL     1      -4.379   8.595  -0.741  0.00  0.00    +0.044 C 
ENDBRANCH   1  14
BRANCH   5  18
ATOM     18  N   UNL     1       0.022   0.022  -0.311  0.00  0.00    -0.293 N 
ATOM     19  H   UNL     1       0.978  -0.504  -0.450  0.00  0.00    +0.163 HD
ATOM     20  H   UNL     1      -0.907  -0.551  -0.180  0.00  0.00    +0.163 HD
ENDBRANCH   5  18
BRANCH   6  21
ATOM     21  S   UNL     1       2.669   1.283  -0.701  0.00  0.00    -0.080 S 
BRANCH  21  22
ATOM     22  C   UNL     1       3.776   2.707  -0.861  0.00  0.00    +0.112 C 
BRANCH  22  23
ATOM     23  C   UNL     1       5.188   2.225  -1.072  0.00  0.00    -0.033 A 
ATOM     24  C   UNL     1       6.012   2.006   0.017  0.00  0.00    +0.008 A 
ATOM     25  C   UNL     1       7.306   1.558  -0.171  0.00  0.00    +0.050 A 
ATOM     26  C   UNL     1       7.784   1.338  -1.453  0.00  0.00    +0.162 A 
ATOM     27  C   UNL     1       6.956   1.563  -2.549  0.00  0.00    +0.162 A 
ATOM     28  C   UNL     1       5.658   2.007  -2.353  0.00  0.00    +0.053 A 
BRANCH  27  29
ATOM     29  O   UNL     1       7.421   1.349  -3.809  0.00  0.00    -0.491 OA
ATOM     30  C   UNL     1       6.515   1.600  -4.885  0.00  0.00    +0.277 C 
ENDBRANCH  27  29
BRANCH  26  31
ATOM     31  O   UNL     1       9.059   0.903  -1.640  0.00  0.00    -0.491 OA
ATOM     32  C   UNL     1       9.851   0.693  -0.469  0.00  0.00    +0.277 C 
ENDBRANCH  26  31
ENDBRANCH  22  23
ENDBRANCH  21  22
ENDBRANCH   6  21
TORSDOF 7
