REMARK  Name = ZINC04450530
REMARK  5 active torsions:
REMARK  status: ('A' for Active; 'I' for Inactive)
REMARK    1  A    between atoms: N_6  and  C_7
REMARK    2  A    between atoms: C_7  and  C_9
REMARK    3  A    between atoms: C_7  and  C_21
REMARK    4  A    between atoms: C_14  and  N_15
REMARK    5  A    between atoms: C_30  and  O_31
REMARK                            x       y       z     vdW  Elec       q    Type
REMARK                         _______ _______ _______ _____ _____    ______ ____
ROOT
ATOM      1  C   UNL     1      -0.012  -0.270   0.273  0.00  0.00    +0.138 C 
ENDROOT
BRANCH   1   2
ATOM      2  C   UNL     1       0.017  -0.678   1.723  0.00  0.00    +0.022 A 
ATOM      3  C   UNL     1      -0.122   0.293   2.711  0.00  0.00    +0.030 A 
ATOM      4  C   UNL     1      -0.100  -0.044   4.031  0.00  0.00    +0.051 A 
ATOM      5  C   UNL     1       0.065  -1.388   4.405  0.00  0.00    +0.022 A 
ATOM      6  C   UNL     1       0.092  -1.775   5.758  0.00  0.00    +0.013 A 
ATOM      7  C   UNL     1       0.256  -3.100   6.046  0.00  0.00    +0.020 A 
ATOM      8  C   UNL     1       0.390  -4.025   5.013  0.00  0.00    +0.111 A 
ATOM      9  N   UNL     1       0.364  -3.661   3.754  0.00  0.00    -0.251 NA
ATOM     10  C   UNL     1       0.207  -2.381   3.404  0.00  0.00    +0.114 A 
ATOM     11  C   UNL     1       0.174  -1.995   2.048  0.00  0.00    +0.148 A 
ATOM     12 CL   UNL     1      -0.277   1.183   5.247  0.00  0.00    -0.083 Cl
BRANCH  11  13
ATOM     13  O   UNL     1       0.303  -2.929   1.069  0.00  0.00    -0.504 OA
ATOM     14  H   UNL     1       1.220  -3.147   0.852  0.00  0.00    +0.292 HD
ENDBRANCH  11  13
ENDBRANCH   1   2
BRANCH   1  20
ATOM     15  C   UNL     1      -3.815   0.343   1.943  0.00  0.00    +0.005 A 
ATOM     16  C   UNL     1      -4.902  -0.324   1.392  0.00  0.00    +0.018 A 
ATOM     17  C   UNL     1      -4.713  -1.122   0.282  0.00  0.00    +0.084 A 
ATOM     18  C   UNL     1      -2.457  -0.641   0.238  0.00  0.00    +0.097 A 
ATOM     19  C   UNL     1      -2.574   0.180   1.355  0.00  0.00    +0.041 A 
ATOM     20  N   UNL     1      -1.215  -0.813  -0.363  0.00  0.00    -0.320 N 
ATOM     21  H   UNL     1      -1.145  -1.292  -1.204  0.00  0.00    +0.148 HD
ATOM     22  N   UNL     1      -3.510  -1.300  -0.325  0.00  0.00    -0.350 N 
ATOM     23  H   UNL     1      -3.400  -1.894  -1.156  0.00  0.00    +0.166 HD
ENDBRANCH   1  20
BRANCH   1  24
ATOM     24  C   UNL     1      -0.026   1.233   0.174  0.00  0.00    +0.011 A 
ATOM     25  C   UNL     1      -1.205   1.895  -0.117  0.00  0.00    +0.057 A 
ATOM     26  C   UNL     1      -1.222   3.277  -0.204  0.00  0.00    +0.167 A 
ATOM     27  C   UNL     1      -0.046   3.997  -0.008  0.00  0.00    +0.168 A 
ATOM     28  C   UNL     1       1.132   3.328   0.279  0.00  0.00    +0.082 A 
ATOM     29  C   UNL     1       1.140   1.948   0.369  0.00  0.00    +0.135 A 
ATOM     30  O   UNL     1      -0.320   5.327  -0.150  0.00  0.00    -0.453 OA
ATOM     31  C   UNL     1      -1.751   5.439  -0.031  0.00  0.00    +0.466 C 
ATOM     32  O   UNL     1      -2.233   4.155  -0.469  0.00  0.00    -0.453 OA
BRANCH  29  33
ATOM     33  N   UNL     1       2.401   1.236   0.675  0.00  0.00    +0.057 N 
ATOM     34  O   UNL     1       3.396   1.865   0.986  0.00  0.00    -0.126 OA
ATOM     35  O   UNL     1       2.443   0.020   0.616  0.00  0.00    -0.126 OA
ENDBRANCH  29  33
ENDBRANCH   1  24
TORSDOF 5
