REMARK  Name = ZINC65421361
REMARK  2 active torsions:
REMARK  status: ('A' for Active; 'I' for Inactive)
REMARK    1  A    between atoms: C_6  and  C_7
REMARK    2  A    between atoms: C_13  and  C_16
REMARK                            x       y       z     vdW  Elec       q    Type
REMARK                         _______ _______ _______ _____ _____    ______ ____
ROOT
ATOM      1  C   UNL     1      -1.293  -0.775   0.010  0.00  0.00    +0.042 C 
ATOM      2  C   UNL     1      -1.352  -1.603   1.266  0.00  0.00    +0.065 C 
ATOM      3  C   UNL     1      -2.720  -2.134   1.556  0.00  0.00    +0.049 A 
ATOM      4  C   UNL     1      -3.683  -2.503   0.668  0.00  0.00    +0.147 A 
ATOM      5  N   UNL     1      -4.750  -2.942   1.388  0.00  0.00    -0.221 NA
ATOM      6  C   UNL     1      -4.484  -2.844   2.664  0.00  0.00    +0.160 A 
ATOM      7  N   UNL     1      -3.225  -2.337   2.807  0.00  0.00    -0.340 N 
ATOM      8  H   UNL     1      -2.773  -2.154   3.646  0.00  0.00    +0.167 HD
ATOM      9  C   UNL     1      -3.660  -2.451  -0.792  0.00  0.00    +0.264 C 
ATOM     10  O   UNL     1      -4.666  -2.851  -1.347  0.00  0.00    -0.268 OA
ATOM     11  N   UNL     1      -2.704  -2.033  -1.587  0.00  0.00    -0.309 N 
ATOM     12  C   UNL     1      -1.376  -1.589  -1.252  0.00  0.00    +0.113 C 
ATOM     13  H   UNL     1      -2.921  -2.024  -2.533  0.00  0.00    +0.149 HD
ENDROOT
BRANCH   6  14
ATOM     14  C   UNL     1      -5.395  -3.219   3.768  0.00  0.00    +0.131 A 
ATOM     15  C   UNL     1      -6.697  -3.750   3.627  0.00  0.00    +0.004 A 
ATOM     16  C   UNL     1      -7.194  -3.957   4.863  0.00  0.00    +0.040 A 
ATOM     17  N   UNL     1      -6.253  -3.577   5.761  0.00  0.00    -0.281 N 
ATOM     18  H   UNL     1      -6.340  -3.616   6.726  0.00  0.00    +0.189 HD
ATOM     19  N   UNL     1      -5.134  -3.123   5.054  0.00  0.00    -0.170 NA
ATOM     20  C   UNL     1      -8.593  -4.528   4.778  0.00  0.00    +0.055 C 
ATOM     21  C   UNL     1      -9.054  -4.241   3.333  0.00  0.00    +0.011 C 
ATOM     22  C   UNL     1      -7.709  -4.159   2.578  0.00  0.00    +0.039 C 
ENDBRANCH   6  14
BRANCH   1  28
ATOM     23  C   UNL     1      -0.017   1.378   0.010  0.00  0.00    +0.007 A 
ATOM     24  C   UNL     1       1.170   2.086   0.002  0.00  0.00    +0.038 A 
ATOM     25  C   UNL     1       2.379   1.410  -0.013  0.00  0.00    +0.123 A 
ATOM     26  C   UNL     1       2.396   0.026  -0.021  0.00  0.00    +0.038 A 
ATOM     27  C   UNL     1       1.208  -0.680  -0.013  0.00  0.00    +0.007 A 
ATOM     28  C   UNL     1       0.002  -0.004   0.002  0.00  0.00    -0.042 A 
ATOM     29  F   UNL     1       3.540   2.101  -0.021  0.00  0.00    -0.205 F 
ENDBRANCH   1  28
TORSDOF 2
