REMARK  Name = ZINC32790806
REMARK  3 active torsions:
REMARK  status: ('A' for Active; 'I' for Inactive)
REMARK    1  A    between atoms: C_3  and  O_22
REMARK    2  A    between atoms: C_6  and  C_7
REMARK    3  A    between atoms: N_14  and  C_15
REMARK                            x       y       z     vdW  Elec       q    Type
REMARK                         _______ _______ _______ _____ _____    ______ ____
ROOT
ATOM      1  C   UNL     1      -1.258  -0.758   0.011  0.00  0.00    +0.028 C 
ATOM      2  C   UNL     1      -1.240  -2.111  -0.099  0.00  0.00    +0.079 C 
ATOM      3  C   UNL     1      -2.364  -3.068  -0.221  0.00  0.00    +0.276 C 
ATOM      4  O   UNL     1      -3.527  -2.697  -0.234  0.00  0.00    -0.267 OA
ATOM      5  N   UNL     1      -2.040  -4.339  -0.312  0.00  0.00    -0.154 NA
ATOM      6  C   UNL     1      -0.784  -4.754  -0.299  0.00  0.00    +0.152 C 
ATOM      7  S   UNL     1       0.148  -3.238  -0.147  0.00  0.00    -0.052 S 
ATOM      8  N   UNL     1      -0.311  -6.037  -0.386  0.00  0.00    -0.322 N 
ATOM      9  H   UNL     1       0.644  -6.205  -0.363  0.00  0.00    +0.148 HD
ENDROOT
BRANCH   1  15
ATOM     10  C   UNL     1       0.007   1.370   0.235  0.00  0.00    +0.011 A 
ATOM     11  C   UNL     1       1.173   2.050   0.506  0.00  0.00    +0.047 A 
ATOM     12  C   UNL     1       2.326   1.350   0.843  0.00  0.00    +0.131 A 
ATOM     13  C   UNL     1       2.309  -0.039   0.907  0.00  0.00    +0.060 A 
ATOM     14  C   UNL     1       1.148  -0.729   0.638  0.00  0.00    +0.027 A 
ATOM     15  C   UNL     1      -0.017  -0.028   0.298  0.00  0.00    -0.023 A 
ATOM     16 BR   UNL     1       3.882  -0.983   1.365  0.00  0.00    -0.047 Br
BRANCH  12  17
ATOM     17  O   UNL     1       3.474   2.026   1.109  0.00  0.00    -0.506 OA
ATOM     18  H   UNL     1       3.583   2.264   2.040  0.00  0.00    +0.292 HD
ENDBRANCH  12  17
ENDBRANCH   1  15
BRANCH   8  19
ATOM     19  C   UNL     1      -1.248  -7.156  -0.513  0.00  0.00    +0.072 C 
ATOM     20  C   UNL     1      -1.726  -7.582   0.877  0.00  0.00    +0.022 C 
ATOM     21  C   UNL     1      -2.705  -8.750   0.744  0.00  0.00    +0.002 C 
ATOM     22  C   UNL     1      -2.004  -9.927   0.062  0.00  0.00    +0.000 C 
ATOM     23  C   UNL     1      -1.527  -9.501  -1.328  0.00  0.00    +0.002 C 
ATOM     24  C   UNL     1      -0.548  -8.333  -1.195  0.00  0.00    +0.022 C 
ENDBRANCH   8  19
TORSDOF 3
