REMARK  Name = ZINC39747572
REMARK  4 active torsions:
REMARK  status: ('A' for Active; 'I' for Inactive)
REMARK    1  A    between atoms: C_1  and  C_2
REMARK    2  A    between atoms: C_9  and  C_11
REMARK    3  A    between atoms: C_11  and  N_12
REMARK    4  A    between atoms: C_13  and  C_18
REMARK                            x       y       z     vdW  Elec       q    Type
REMARK                         _______ _______ _______ _____ _____    ______ ____
ROOT
ATOM      1  N   UNL     1       5.989  -4.405  -0.095  0.00  0.00    -0.293 N 
ATOM      2  C   UNL     1       5.596  -5.483  -0.854  0.00  0.00    +0.165 A 
ATOM      3  N   UNL     1       6.463  -5.600  -1.833  0.00  0.00    -0.128 NA
ATOM      4  N   UNL     1       7.358  -4.683  -1.739  0.00  0.00    -0.121 NA
ATOM      5  C   UNL     1       7.114  -3.920  -0.697  0.00  0.00    +0.203 A 
ATOM      6  S   UNL     1       8.065  -2.532  -0.173  0.00  0.00    -0.009 SA
ENDROOT
BRANCH   2   7
ATOM      7  C   UNL     1       4.420  -6.346  -0.613  0.00  0.00    +0.019 A 
ATOM      8  C   UNL     1       3.379  -5.899   0.203  0.00  0.00    +0.013 A 
ATOM      9  C   UNL     1       2.284  -6.709   0.424  0.00  0.00    +0.021 A 
ATOM     10  C   UNL     1       2.217  -7.962  -0.162  0.00  0.00    +0.041 A 
ATOM     11  C   UNL     1       3.246  -8.410  -0.972  0.00  0.00    +0.021 A 
ATOM     12  C   UNL     1       4.343  -7.607  -1.206  0.00  0.00    +0.013 A 
ATOM     13 CL   UNL     1       0.836  -8.975   0.122  0.00  0.00    -0.084 Cl
ENDBRANCH   2   7
BRANCH   1  14
ATOM     14  C   UNL     1       5.333  -3.882   1.107  0.00  0.00    +0.221 C 
BRANCH  14  22
ATOM     15  C   UNL     1       0.727   1.866   1.408  0.00  0.00    +0.021 C 
ATOM     16  C   UNL     1       0.593   0.369   1.123  0.00  0.00    +0.068 C 
ATOM     17  C   UNL     1       1.296  -0.012  -0.196  0.00  0.00    +0.117 C 
ATOM     18  N   UNL     1       2.376  -0.948   0.038  0.00  0.00    -0.326 N 
ATOM     19  C   UNL     1       2.646  -1.369   1.295  0.00  0.00    +0.126 C 
ATOM     20  S   UNL     1       1.556  -0.624   2.329  0.00  0.00    -0.090 S 
ATOM     21  N   UNL     1       3.602  -2.221   1.647  0.00  0.00    -0.267 N 
ATOM     22  C   UNL     1       4.322  -2.836   0.712  0.00  0.00    +0.238 C 
ATOM     23  O   UNL     1       4.165  -2.554  -0.460  0.00  0.00    -0.273 OA
ATOM     24  H   UNL     1       2.906  -1.274  -0.706  0.00  0.00    +0.148 HD
ATOM     25  H   UNL     1       3.775  -2.395   2.585  0.00  0.00    +0.157 HD
ENDBRANCH  14  22
ENDBRANCH   1  14
TORSDOF 3
