REMARK  Name = ZINC19978390
REMARK  2 active torsions:
REMARK  status: ('A' for Active; 'I' for Inactive)
REMARK    1  A    between atoms: C_1  and  C_2
REMARK    2  A    between atoms: C_8  and  N_10
REMARK                            x       y       z     vdW  Elec       q    Type
REMARK                         _______ _______ _______ _____ _____    ______ ____
ROOT
ATOM      1  N   UNL     1      -1.229   2.073   0.019  0.00  0.00    -0.325 N 
ATOM      2  C   UNL     1      -0.017   1.391   0.010  0.00  0.00    +0.142 A 
ATOM      3  C   UNL     1       0.002  -0.004   0.002  0.00  0.00    +0.048 A 
ATOM      4  C   UNL     1       1.235  -0.636  -0.013  0.00  0.00    +0.045 A 
ATOM      5  C   UNL     1       2.375   0.158  -0.020  0.00  0.00    +0.152 A 
ATOM      6  N   UNL     1       2.264   1.472  -0.012  0.00  0.00    -0.136 NA
ATOM      7  N   UNL     1       1.124   2.063   0.002  0.00  0.00    -0.133 NA
ATOM      8 CL   UNL     1       3.946  -0.580  -0.038  0.00  0.00    -0.060 Cl
ATOM      9  H   UNL     1      -1.241   3.173   0.025  0.00  0.00    +0.148 HD
ENDROOT
BRANCH   1  16
ATOM     10  C   UNL     1      -3.210   2.548   2.078  0.00  0.00    +0.009 C 
ATOM     11  C   UNL     1      -3.592   2.188   0.641  0.00  0.00    +0.006 C 
ATOM     12  C   UNL     1      -3.759   3.469  -0.179  0.00  0.00    +0.005 C 
ATOM     13  C   UNL     1      -4.141   3.109  -1.616  0.00  0.00    +0.000 C 
ATOM     14  C   UNL     1      -3.038   2.247  -2.236  0.00  0.00    +0.002 C 
ATOM     15  C   UNL     1      -2.871   0.966  -1.416  0.00  0.00    +0.022 C 
ATOM     16  C   UNL     1      -2.490   1.326   0.021  0.00  0.00    +0.075 C 
ENDBRANCH   1  16
TORSDOF 1
