REMARK  Name = ZINC59310652
REMARK  9 active torsions:
REMARK  status: ('A' for Active; 'I' for Inactive)
REMARK    1  A    between atoms: C_1  and  C_2
REMARK    2  A    between atoms: C_5  and  N_9
REMARK    3  A    between atoms: C_6  and  C_8
REMARK    4  A    between atoms: C_10  and  C_12
REMARK    5  A    between atoms: C_12  and  S_13
REMARK    6  A    between atoms: S_13  and  C_14
REMARK    7  A    between atoms: N_19  and  N_20
REMARK    8  A    between atoms: C_21  and  C_22
REMARK    9  A    between atoms: C_21  and  C_23
REMARK                            x       y       z     vdW  Elec       q    Type
REMARK                         _______ _______ _______ _____ _____    ______ ____
ROOT
ATOM      1  C   UNL     1      -0.356  -8.692  -2.728  0.00  0.00    +0.211 A 
ATOM      2  N   UNL     1      -0.455  -9.565  -3.736  0.00  0.00    -0.186 NA
ATOM      3  C   UNL     1      -0.508 -10.790  -3.258  0.00  0.00    +0.232 A 
ATOM      4  N   UNL     1      -0.444 -10.715  -1.912  0.00  0.00    -0.245 N 
ATOM      5  N   UNL     1      -0.341  -9.351  -1.594  0.00  0.00    -0.144 NA
ATOM      6  N   UNL     1      -0.613 -11.950  -4.004  0.00  0.00    -0.205 N 
ATOM      7  H   UNL     1      -0.646 -12.811  -3.559  0.00  0.00    +0.177 HD
ATOM      8  H   UNL     1      -0.461 -11.457  -1.288  0.00  0.00    +0.192 HD
ENDROOT
BRANCH   6   9
ATOM      9  N   UNL     1      -0.672 -11.881  -5.402  0.00  0.00    -0.189 NA
ATOM     10  C   UNL     1      -0.769 -12.955  -6.092  0.00  0.00    +0.040 C 
ATOM     11  C   UNL     1      -0.821 -14.293  -5.401  0.00  0.00    +0.063 C 
BRANCH  10  12
ATOM     12  C   UNL     1      -0.832 -12.881  -7.596  0.00  0.00    +0.011 C 
ATOM     13  C   UNL     1      -2.145 -13.498  -8.083  0.00  0.00    +0.016 C 
ATOM     14  C   UNL     1      -2.209 -13.423  -9.610  0.00  0.00    -0.010 C 
ATOM     15  C   UNL     1      -2.138 -11.960 -10.052  0.00  0.00    +0.007 C 
ATOM     16  C   UNL     1      -0.826 -11.343  -9.565  0.00  0.00    -0.010 C 
ATOM     17  C   UNL     1      -0.762 -11.418  -8.038  0.00  0.00    +0.016 C 
ATOM     18  C   UNL     1       0.353 -12.114 -10.163  0.00  0.00    +0.007 C 
ATOM     19  C   UNL     1       0.282 -13.577  -9.721  0.00  0.00    -0.010 C 
ATOM     20  C   UNL     1      -1.030 -14.194 -10.208  0.00  0.00    +0.007 C 
ATOM     21  C   UNL     1       0.346 -13.652  -8.195  0.00  0.00    +0.016 C 
ENDBRANCH  10  12
ENDBRANCH   6   9
BRANCH   1  22
ATOM     22  S   UNL     1      -0.255  -6.941  -2.895  0.00  0.00    -0.075 S 
BRANCH  22  23
ATOM     23  C   UNL     1      -0.134  -6.343  -1.187  0.00  0.00    +0.173 C 
BRANCH  23  25
ATOM     24  N   UNL     1       0.059  -4.170  -0.021  0.00  0.00    -0.285 N 
ATOM     25  C   UNL     1      -0.040  -4.839  -1.187  0.00  0.00    +0.227 C 
ATOM     26  O   UNL     1      -0.054  -4.230  -2.236  0.00  0.00    -0.275 OA
ATOM     27  H   UNL     1       0.135  -4.658   0.814  0.00  0.00    +0.155 HD
BRANCH  24  32
ATOM     28  C   UNL     1       0.025   1.503   0.005  0.00  0.00    +0.044 C 
ATOM     29  C   UNL     1       0.034  -0.004  -0.002  0.00  0.00    -0.050 A 
ATOM     30  C   UNL     1       0.632  -0.685  -1.046  0.00  0.00    +0.005 A 
ATOM     31  C   UNL     1       0.641  -2.066  -1.055  0.00  0.00    +0.024 A 
ATOM     32  C   UNL     1       0.051  -2.771  -0.014  0.00  0.00    +0.036 A 
ATOM     33  C   UNL     1      -0.548  -2.083   1.033  0.00  0.00    -0.029 A 
ATOM     34  C   UNL     1      -0.550  -0.702   1.039  0.00  0.00    +0.008 A 
ATOM     35  C   UNL     1      -1.190  -2.843   2.165  0.00  0.00    +0.045 C 
ENDBRANCH  24  32
ENDBRANCH  23  25
ENDBRANCH  22  23
ENDBRANCH   1  22
TORSDOF 6
