REMARK  Name = ZINC39674551
REMARK  7 active torsions:
REMARK  status: ('A' for Active; 'I' for Inactive)
REMARK    1  A    between atoms: C_1  and  C_2
REMARK    2  A    between atoms: C_4  and  C_9
REMARK    3  A    between atoms: C_5  and  C_8
REMARK    4  A    between atoms: C_9  and  C_11
REMARK    5  A    between atoms: C_9  and  N_12
REMARK    6  A    between atoms: C_13  and  C_15
REMARK    7  A    between atoms: C_26  and  C_28
REMARK                            x       y       z     vdW  Elec       q    Type
REMARK                         _______ _______ _______ _____ _____    ______ ____
ROOT
ATOM      1  C   UNL     1      -2.569  -0.855  -5.935  0.00  0.00    +0.100 C 
ATOM      2  C   UNL     1      -3.288  -2.207  -5.732  0.00  0.00    +0.121 C 
ATOM      3  N   UNL     1      -3.792  -2.569  -7.077  0.00  0.00    -0.295 N 
ATOM      4  C   UNL     1      -2.705  -2.163  -8.000  0.00  0.00    +0.115 C 
ATOM      5  C   UNL     1      -2.187  -0.830  -7.425  0.00  0.00    -0.004 C 
ATOM      6  C   UNL     1      -0.672  -0.742  -7.580  0.00  0.00    -0.010 C 
ATOM      7  C   UNL     1      -0.320  -0.659  -9.068  0.00  0.00    -0.082 C 
ATOM      8  N   UNL     1      -0.963   0.520  -9.661  0.00  0.00    +0.379 N 
ATOM      9  C   UNL     1      -2.423   0.383  -9.590  0.00  0.00    -0.082 C 
ATOM     10  C   UNL     1      -2.864   0.345  -8.124  0.00  0.00    -0.010 C 
ATOM     11  C   UNL     1      -4.973  -3.138  -7.392  0.00  0.00    +0.265 C 
ATOM     12  O   UNL     1      -5.206  -3.460  -8.540  0.00  0.00    -0.268 OA
ATOM     13  H   UNL     1      -0.679   1.345  -9.155  0.00  0.00    -0.086 HD
ATOM     14  H   UNL     1      -0.681   0.606 -10.626  0.00  0.00    -0.086 HD
ENDROOT
BRANCH  11  15
ATOM     15  C   UNL     1      -5.988  -3.371  -6.337  0.00  0.00    +0.126 A 
ATOM     16  C   UNL     1      -7.160  -4.074  -6.656  0.00  0.00    +0.033 A 
ATOM     17  C   UNL     1      -8.102  -4.295  -5.693  0.00  0.00    +0.012 A 
ATOM     18  C   UNL     1      -7.858  -3.803  -4.397  0.00  0.00    +0.000 A 
ATOM     19  C   UNL     1      -8.784  -3.995  -3.358  0.00  0.00    +0.010 A 
ATOM     20  C   UNL     1      -8.514  -3.505  -2.117  0.00  0.00    +0.001 A 
ATOM     21  C   UNL     1      -7.330  -2.814  -1.861  0.00  0.00    +0.002 A 
ATOM     22  C   UNL     1      -6.411  -2.609  -2.842  0.00  0.00    +0.028 A 
ATOM     23  C   UNL     1      -6.652  -3.100  -4.139  0.00  0.00    +0.072 A 
ATOM     24  N   UNL     1      -5.766  -2.918  -5.118  0.00  0.00    -0.242 NA
ENDBRANCH  11  15
BRANCH   1  26
ATOM     25  N   UNL     1      -0.890   0.410  -4.632  0.00  0.00    -0.309 N 
ATOM     26  C   UNL     1      -1.334  -0.783  -5.075  0.00  0.00    +0.219 C 
ATOM     27  O   UNL     1      -0.739  -1.798  -4.782  0.00  0.00    -0.275 OA
ATOM     28  H   UNL     1      -1.365   1.222  -4.867  0.00  0.00    +0.149 HD
BRANCH  25  29
ATOM     29  C   UNL     1       0.311   0.480  -3.796  0.00  0.00    +0.100 C 
ATOM     30  C   UNL     1       1.553   0.514  -4.690  0.00  0.00    +0.033 C 
BRANCH  29  33
ATOM     31  C   UNL     1       1.207   3.590  -4.344  0.00  0.00    +0.039 C 
ATOM     32  C   UNL     1       0.071   3.162  -3.414  0.00  0.00    +0.154 C 
ATOM     33  C   UNL     1       0.265   1.728  -2.953  0.00  0.00    -0.001 C 
ATOM     34  C   UNL     1       0.384   1.830  -1.627  0.00  0.00    +0.063 C 
ATOM     35  N   UNL     1       0.288   3.119  -1.234  0.00  0.00    -0.159 NA
ATOM     36  N   UNL     1       0.112   3.927  -2.156  0.00  0.00    -0.180 NA
ATOM     37  C   UNL     1       0.596   0.665  -0.695  0.00  0.00    +0.067 C 
ENDBRANCH  29  33
ENDBRANCH  25  29
ENDBRANCH   1  26
TORSDOF 4
