REMARK  Name = ZINC14467187
REMARK  3 active torsions:
REMARK  status: ('A' for Active; 'I' for Inactive)
REMARK    1  A    between atoms: C_5  and  O_7
REMARK    2  A    between atoms: C_9  and  C_18
REMARK    3  A    between atoms: C_23  and  O_24
REMARK                            x       y       z     vdW  Elec       q    Type
REMARK                         _______ _______ _______ _____ _____    ______ ____
ROOT
ATOM      1  C   UNL     1       0.071   0.311  -4.703  0.00  0.00    +0.004 A 
ATOM      2  C   UNL     1      -0.623   0.822  -3.623  0.00  0.00    +0.006 A 
ATOM      3  C   UNL     1       0.024   1.081  -2.432  0.00  0.00    -0.016 A 
ATOM      4  C   UNL     1       1.387   0.815  -2.293  0.00  0.00    +0.073 A 
ATOM      5  C   UNL     1       2.080   0.305  -3.398  0.00  0.00    +0.138 A 
ATOM      6  C   UNL     1       1.425   0.057  -4.589  0.00  0.00    +0.047 A 
ATOM      7  N   UNL     1       2.109   1.022  -1.117  0.00  0.00    -0.334 N 
ATOM      8  C   UNL     1       1.389   1.659  -0.002  0.00  0.00    +0.109 C 
ATOM      9  C   UNL     1      -0.013   1.086   0.008  0.00  0.00    +0.029 C 
ATOM     10  C   UNL     1      -0.685   1.668  -1.274  0.00  0.00    +0.049 C 
ATOM     11  C   UNL     1      -2.129   1.429  -1.035  0.00  0.00    -0.023 C 
ATOM     12  C   UNL     1      -2.345   1.425   0.276  0.00  0.00    -0.030 C 
ATOM     13  C   UNL     1      -1.003   1.630   1.044  0.00  0.00    +0.033 C 
ATOM     14  H   UNL     1       2.562   0.172  -0.816  0.00  0.00    +0.147 HD
ENDROOT
BRANCH   8  15
ATOM     15  C   UNL     1       1.333   3.150  -0.212  0.00  0.00    +0.017 A 
ATOM     16  C   UNL     1       1.476   3.675  -1.483  0.00  0.00    +0.029 A 
ATOM     17  C   UNL     1       1.419   5.043  -1.677  0.00  0.00    +0.043 A 
ATOM     18  C   UNL     1       1.231   5.890  -0.599  0.00  0.00    +0.043 A 
ATOM     19  C   UNL     1       1.093   5.370   0.674  0.00  0.00    +0.084 A 
ATOM     20  C   UNL     1       1.145   3.996   0.870  0.00  0.00    +0.140 A 
ATOM     21 CL   UNL     1       0.857   6.432   2.026  0.00  0.00    -0.080 Cl
ATOM     22 CL   UNL     1       1.592   5.700  -3.275  0.00  0.00    -0.083 Cl
BRANCH  20  23
ATOM     23  O   UNL     1       1.010   3.482   2.121  0.00  0.00    -0.505 OA
ATOM     24  H   UNL     1       1.845   3.381   2.597  0.00  0.00    +0.292 HD
ENDBRANCH  20  23
ENDBRANCH   8  15
BRANCH   5  25
ATOM     25  O   UNL     1       3.412   0.050  -3.297  0.00  0.00    -0.505 OA
ATOM     26  H   UNL     1       3.620  -0.846  -3.000  0.00  0.00    +0.292 HD
ENDBRANCH   5  25
TORSDOF 3
