REMARK  Name = ZINC46007618
REMARK  2 active torsions:
REMARK  status: ('A' for Active; 'I' for Inactive)
REMARK    1  A    between atoms: C_5  and  C_6
REMARK    2  A    between atoms: N_14  and  C_15
REMARK                            x       y       z     vdW  Elec       q    Type
REMARK                         _______ _______ _______ _____ _____    ______ ____
ROOT
ATOM      1  C   UNL     1      -1.264  -0.788   0.006  0.00  0.00    +0.108 C 
ATOM      2  C   UNL     1      -1.578  -1.275  -1.425  0.00  0.00    +0.029 C 
ATOM      3  C   UNL     1      -2.155  -2.696  -1.189  0.00  0.00    +0.021 C 
ATOM      4  C   UNL     1      -1.309  -3.180   0.015  0.00  0.00    +0.110 C 
ATOM      5  N   UNL     1      -1.125  -1.979   0.856  0.00  0.00    -0.278 N 
ATOM      6  C   UNL     1      -0.871  -1.974   2.179  0.00  0.00    +0.307 C 
ATOM      7  O   UNL     1      -0.737  -0.919   2.769  0.00  0.00    -0.252 OA
ATOM      8  N   UNL     1      -0.766  -3.139   2.850  0.00  0.00    -0.268 N 
ATOM      9  H   UNL     1      -0.953  -3.977   2.398  0.00  0.00    +0.156 HD
ENDROOT
BRANCH   8  10
ATOM     10  C   UNL     1      -0.386  -3.139   4.199  0.00  0.00    +0.057 A 
ATOM     11  C   UNL     1       0.360  -2.084   4.709  0.00  0.00    +0.072 A 
ATOM     12  C   UNL     1       0.734  -2.086   6.041  0.00  0.00    +0.144 A 
ATOM     13  C   UNL     1       0.361  -3.147   6.867  0.00  0.00    +0.077 A 
ATOM     14  C   UNL     1      -0.382  -4.197   6.355  0.00  0.00    +0.048 A 
ATOM     15  C   UNL     1      -0.760  -4.191   5.025  0.00  0.00    +0.064 A 
ATOM     16 CL   UNL     1      -1.698  -5.504   4.384  0.00  0.00    -0.082 Cl
ATOM     17  N   UNL     1       0.750  -3.134   8.216  0.00  0.00    -0.280 N 
ATOM     18  C   UNL     1       1.189  -1.978   8.759  0.00  0.00    +0.255 C 
ATOM     19  O   UNL     1       1.558  -1.950   9.914  0.00  0.00    -0.272 OA
ATOM     20  C   UNL     1       1.218  -0.723   7.925  0.00  0.00    +0.325 C 
ATOM     21  O   UNL     1       1.462  -1.061   6.557  0.00  0.00    -0.481 OA
ATOM     22  H   UNL     1       0.703  -3.943   8.749  0.00  0.00    +0.155 HD
ENDBRANCH   8  10
BRANCH   1  27
ATOM     23  C   UNL     1      -0.000   1.380   0.017  0.00  0.00    +0.013 A 
ATOM     24  C   UNL     1       1.175   2.056   0.020  0.00  0.00    +0.045 A 
ATOM     25  S   UNL     1       2.366   0.726   0.013  0.00  0.00    -0.105 S 
ATOM     26  C   UNL     1       1.218  -0.641   0.006  0.00  0.00    +0.050 A 
ATOM     27  C   UNL     1       0.022  -0.002   0.009  0.00  0.00    -0.020 A 
ENDBRANCH   1  27
TORSDOF 2
