REMARK  Name = ZINC01035482
REMARK  6 active torsions:
REMARK  status: ('A' for Active; 'I' for Inactive)
REMARK    1  A    between atoms: C_4  and  C_7
REMARK    2  A    between atoms: C_9  and  C_29
REMARK    3  A    between atoms: C_11  and  N_28
REMARK    4  A    between atoms: C_12  and  C_16
REMARK    5  A    between atoms: N_18  and  N_19
REMARK    6  A    between atoms: C_20  and  C_21
REMARK                            x       y       z     vdW  Elec       q    Type
REMARK                         _______ _______ _______ _____ _____    ______ ____
ROOT
ATOM      1  C   UNL     1       3.698  -0.688  -0.038  0.00  0.00    +0.076 A 
ATOM      2  C   UNL     1       3.701  -2.080  -0.052  0.00  0.00    +0.040 A 
ATOM      3  C   UNL     1       4.924  -2.755  -0.068  0.00  0.00    +0.033 A 
ATOM      4  C   UNL     1       6.104  -1.980  -0.071  0.00  0.00    +0.072 A 
ATOM      5  C   UNL     1       7.531  -2.298  -0.086  0.00  0.00    +0.086 A 
ATOM      6  C   UNL     1       8.185  -1.081  -0.080  0.00  0.00    +0.215 A 
ATOM      7  O   UNL     1       7.270  -0.084  -0.063  0.00  0.00    -0.430 OA
ATOM      8  C   UNL     1       6.016  -0.577  -0.057  0.00  0.00    +0.231 A 
ATOM      9  N   UNL     1       4.826   0.009  -0.046  0.00  0.00    -0.212 NA
ENDROOT
BRANCH   1  13
ATOM     10  C   UNL     1      -0.017   1.379   0.010  0.00  0.00    +0.000 A 
ATOM     11  C   UNL     1       1.169   2.092   0.002  0.00  0.00    +0.001 A 
ATOM     12  C   UNL     1       2.377   1.427  -0.013  0.00  0.00    +0.010 A 
ATOM     13  C   UNL     1       2.402   0.033  -0.021  0.00  0.00    +0.000 A 
ATOM     14  C   UNL     1       1.205  -0.680  -0.013  0.00  0.00    +0.010 A 
ATOM     15  C   UNL     1       0.002  -0.004   0.002  0.00  0.00    +0.001 A 
ENDBRANCH   1  13
BRANCH   3  16
ATOM     16  C   UNL     1       4.981  -4.227  -0.083  0.00  0.00    +0.136 A 
ATOM     17  C   UNL     1       4.306  -5.062   0.757  0.00  0.00    +0.050 A 
ATOM     18  C   UNL     1       4.654  -6.375   0.388  0.00  0.00    +0.042 A 
ATOM     19  C   UNL     1       5.513  -6.281  -0.647  0.00  0.00    +0.196 A 
ATOM     20  O   UNL     1       5.704  -4.983  -0.932  0.00  0.00    -0.463 OA
ENDBRANCH   3  16
BRANCH   6  21
ATOM     21  C   UNL     1       9.588  -0.904  -0.090  0.00  0.00    +0.300 C 
ATOM     22  O   UNL     1      10.324  -1.875  -0.105  0.00  0.00    -0.265 OA
ATOM     23  N   UNL     1      10.111   0.338  -0.082  0.00  0.00    -0.200 N 
ATOM     24  H   UNL     1       9.526   1.111  -0.070  0.00  0.00    +0.178 HD
BRANCH  23  25
ATOM     25  N   UNL     1      11.502   0.512  -0.092  0.00  0.00    -0.187 NA
ATOM     26  C   UNL     1      12.006   1.708  -0.085  0.00  0.00    +0.139 C 
BRANCH  26  27
ATOM     27  C   UNL     1      13.469   1.892  -0.095  0.00  0.00    +0.013 A 
ATOM     28  C   UNL     1      14.015   3.178  -0.081  0.00  0.00    +0.011 A 
ATOM     29  C   UNL     1      15.384   3.342  -0.091  0.00  0.00    +0.001 A 
ATOM     30  C   UNL     1      16.217   2.237  -0.114  0.00  0.00    +0.001 A 
ATOM     31  C   UNL     1      15.685   0.961  -0.127  0.00  0.00    +0.020 A 
ATOM     32  C   UNL     1      14.316   0.780  -0.112  0.00  0.00    +0.050 A 
ATOM     33 CL   UNL     1      13.649  -0.822  -0.121  0.00  0.00    -0.083 Cl
ENDBRANCH  26  27
ENDBRANCH  23  25
ENDBRANCH   6  21
BRANCH   5  34
ATOM     34  N   UNL     1       8.108  -3.559  -0.103  0.00  0.00    -0.354 N 
ATOM     35  H   UNL     1       7.546  -4.349  -0.105  0.00  0.00    +0.142 HD
ATOM     36  H   UNL     1       9.073  -3.650  -0.112  0.00  0.00    +0.142 HD
ENDBRANCH   5  34
TORSDOF 6
