REMARK  Name = ZINC02501741
REMARK  7 active torsions:
REMARK  status: ('A' for Active; 'I' for Inactive)
REMARK    1  A    between atoms: C_1  and  C_2
REMARK    2  A    between atoms: C_4  and  C_8
REMARK    3  A    between atoms: C_5  and  C_7
REMARK    4  A    between atoms: C_10  and  C_31
REMARK    5  A    between atoms: C_11  and  N_30
REMARK    6  A    between atoms: N_12  and  C_20
REMARK    7  A    between atoms: C_22  and  N_27
REMARK                            x       y       z     vdW  Elec       q    Type
REMARK                         _______ _______ _______ _____ _____    ______ ____
ROOT
ATOM      1  C   UNL     1      -2.508   1.055   0.045  0.00  0.00    +0.098 C 
ATOM      2  C   UNL     1      -3.685   1.870   0.494  0.00  0.00    +0.077 C 
ATOM      3  C   UNL     1      -3.647   3.227   0.476  0.00  0.00    +0.107 C 
ATOM      4  N   UNL     1      -2.513   3.881   0.049  0.00  0.00    -0.259 N 
ATOM      5  C   UNL     1      -1.306   3.233   0.018  0.00  0.00    +0.025 C 
ATOM      6  C   UNL     1      -1.249   1.884   0.018  0.00  0.00    +0.025 C 
ATOM      7  C   UNL     1      -0.014   1.211   0.009  0.00  0.00    +0.162 C 
ATOM      8  O   UNL     1       0.002  -0.004   0.002  0.00  0.00    -0.292 OA
ATOM      9  C   UNL     1       1.286   1.967   0.000  0.00  0.00    +0.080 C 
ATOM     10  C   UNL     1       1.082   3.318   0.694  0.00  0.00    +0.014 C 
ATOM     11  C   UNL     1      -0.047   4.064  -0.020  0.00  0.00    +0.052 C 
ENDROOT
BRANCH   1  15
ATOM     12  C   UNL     1      -3.503   1.613  -4.918  0.00  0.00    +0.051 C 
ATOM     13  C   UNL     1      -3.234   0.885  -3.627  0.00  0.00    -0.013 A 
ATOM     14  C   UNL     1      -2.998   1.394  -2.393  0.00  0.00    +0.015 A 
ATOM     15  C   UNL     1      -2.774   0.525  -1.341  0.00  0.00    -0.025 A 
ATOM     16  C   UNL     1      -2.791  -0.809  -1.576  0.00  0.00    -0.009 A 
ATOM     17  S   UNL     1      -3.143  -0.873  -3.325  0.00  0.00    -0.098 S 
ATOM     18  C   UNL     1      -2.572  -1.946  -0.610  0.00  0.00    +0.052 C 
ENDBRANCH   1  15
BRANCH   4  19
ATOM     19  C   UNL     1      -2.594   5.218  -0.357  0.00  0.00    +0.060 A 
ATOM     20  C   UNL     1      -2.853   5.528  -1.685  0.00  0.00    +0.058 A 
ATOM     21  C   UNL     1      -2.933   6.848  -2.083  0.00  0.00    +0.128 A 
ATOM     22  C   UNL     1      -2.754   7.862  -1.159  0.00  0.00    +0.034 A 
ATOM     23  C   UNL     1      -2.494   7.558   0.165  0.00  0.00    +0.024 A 
ATOM     24  C   UNL     1      -2.420   6.239   0.570  0.00  0.00    +0.063 A 
ATOM     25 CL   UNL     1      -2.101   5.857   2.233  0.00  0.00    -0.082 Cl
BRANCH  21  26
ATOM     26  N   UNL     1      -3.209   7.179  -3.499  0.00  0.00    +0.056 N 
ATOM     27  O   UNL     1      -3.368   6.286  -4.312  0.00  0.00    -0.126 OA
ATOM     28  O   UNL     1      -3.279   8.343  -3.850  0.00  0.00    -0.126 OA
ENDBRANCH  21  26
ENDBRANCH   4  19
BRANCH   3  29
ATOM     29  N   UNL     1      -4.741   3.950   0.887  0.00  0.00    -0.345 N 
ATOM     30  H   UNL     1      -4.714   4.920   0.875  0.00  0.00    +0.144 HD
ATOM     31  H   UNL     1      -5.541   3.491   1.188  0.00  0.00    +0.144 HD
ENDBRANCH   3  29
BRANCH   2  32
ATOM     32  C   UNL     1      -4.869   1.205   0.949  0.00  0.00    +0.099 C 
ATOM     33  N   UNL     1      -5.808   0.677   1.310  0.00  0.00    -0.191 NA
ENDBRANCH   2  32
TORSDOF 5
