REMARK  Name = ZINC54504350
REMARK  10 active torsions:
REMARK  status: ('A' for Active; 'I' for Inactive)
REMARK    1  A    between atoms: C_1  and  C_2
REMARK    2  A    between atoms: C_2  and  N_3
REMARK    3  A    between atoms: N_3  and  C_4
REMARK    4  A    between atoms: N_3  and  C_6
REMARK    5  A    between atoms: C_4  and  C_5
REMARK    6  A    between atoms: C_6  and  C_8
REMARK    7  A    between atoms: C_6  and  C_21
REMARK    8  A    between atoms: C_8  and  N_9
REMARK    9  A    between atoms: N_9  and  C_10
REMARK   10  A    between atoms: C_10  and  C_20
REMARK                            x       y       z     vdW  Elec       q    Type
REMARK                         _______ _______ _______ _____ _____    ______ ____
ROOT
ATOM      1  C   UNL     1      -3.004   0.030   1.890  0.00  0.00    +0.090 C 
ENDROOT
BRANCH   1   2
ATOM      2  N   UNL     1      -2.122   1.035   2.489  0.00  0.00    -0.348 N 
ATOM      3  H   UNL     1      -1.160   0.944   2.410  0.00  0.00    +0.146 HD
BRANCH   2   4
ATOM      4  C   UNL     1      -2.649   2.086   3.150  0.00  0.00    +0.018 C 
ATOM      5  C   UNL     1      -1.824   3.091   3.617  0.00  0.00    +0.115 C 
ATOM      6  C   UNL     1      -0.389   3.127   3.283  0.00  0.00    +0.256 C 
ATOM      7  O   UNL     1       0.112   2.266   2.583  0.00  0.00    -0.270 OA
ATOM      8  N   UNL     1       0.355   4.139   3.774  0.00  0.00    -0.263 N 
ATOM      9  C   UNL     1      -0.183   5.094   4.546  0.00  0.00    +0.143 C 
ATOM     10  S   UNL     1       0.839   6.340   5.124  0.00  0.00    -0.018 S 
ATOM     11  N   UNL     1      -1.478   5.125   4.889  0.00  0.00    -0.263 N 
ATOM     12  C   UNL     1      -2.342   4.179   4.466  0.00  0.00    +0.256 C 
ATOM     13  O   UNL     1      -3.517   4.221   4.780  0.00  0.00    -0.270 OA
ATOM     14  C   UNL     1      -4.136   2.163   3.379  0.00  0.00    +0.061 C 
ATOM     15  H   UNL     1       1.302   4.177   3.564  0.00  0.00    +0.157 HD
ATOM     16  H   UNL     1      -1.802   5.845   5.452  0.00  0.00    +0.157 HD
ENDBRANCH   2   4
ENDBRANCH   1   2
BRANCH   1  17
ATOM     17  C   UNL     1      -2.161  -1.103   1.302  0.00  0.00    -0.019 C 
BRANCH  17  18
ATOM     18  C   UNL     1      -3.068  -2.132   0.677  0.00  0.00    -0.041 A 
ATOM     19  C   UNL     1      -3.286  -2.124  -0.688  0.00  0.00    +0.003 A 
ATOM     20  C   UNL     1      -4.117  -3.068  -1.260  0.00  0.00    +0.000 A 
ATOM     21  C   UNL     1      -4.732  -4.021  -0.469  0.00  0.00    +0.001 A 
ATOM     22  C   UNL     1      -4.515  -4.029   0.896  0.00  0.00    +0.020 A 
ATOM     23  C   UNL     1      -3.678  -3.088   1.469  0.00  0.00    +0.043 A 
ATOM     24 CL   UNL     1      -3.400  -3.102   3.183  0.00  0.00    -0.083 Cl
ENDBRANCH  17  18
BRANCH  17  25
ATOM     25  N   UNL     1      -1.258  -0.561   0.278  0.00  0.00    +0.385 N 
ATOM     26  H   UNL     1      -0.574   0.038   0.716  0.00  0.00    -0.081 HD
BRANCH  25  28
ATOM     27  C   UNL     1       0.352  -2.381   0.579  0.00  0.00    -0.017 C 
ATOM     28  C   UNL     1      -0.574  -1.666  -0.407  0.00  0.00    -0.081 C 
ENDBRANCH  25  28
BRANCH  25  29
ATOM     29  C   UNL     1      -2.034   0.214  -0.699  0.00  0.00    -0.081 C 
ATOM     30  C   UNL     1      -1.807   1.709  -0.461  0.00  0.00    -0.017 C 
ENDBRANCH  25  29
ENDBRANCH  17  25
ENDBRANCH   1  17
TORSDOF 7
