REMARK  Name = ZINC13141062
REMARK  8 active torsions:
REMARK  status: ('A' for Active; 'I' for Inactive)
REMARK    1  A    between atoms: C_4  and  C_7
REMARK    2  A    between atoms: C_7  and  N_8
REMARK    3  A    between atoms: C_9  and  N_36
REMARK    4  A    between atoms: C_10  and  N_17
REMARK    5  A    between atoms: N_17  and  C_18
REMARK    6  A    between atoms: C_18  and  C_19
REMARK    7  A    between atoms: C_25  and  C_27
REMARK    8  A    between atoms: C_28  and  C_29
REMARK                            x       y       z     vdW  Elec       q    Type
REMARK                         _______ _______ _______ _____ _____    ______ ____
ROOT
ATOM      1  N   UNL     1      -0.982  -1.256  -2.990  0.00  0.00    -0.276 N 
ATOM      2  C   UNL     1      -1.816  -0.425  -3.702  0.00  0.00    +0.128 A 
ATOM      3  C   UNL     1      -3.113  -0.239  -3.268  0.00  0.00    +0.140 A 
ATOM      4  C   UNL     1      -3.540  -0.900  -2.100  0.00  0.00    +0.277 A 
ATOM      5  O   UNL     1      -4.679  -0.750  -1.691  0.00  0.00    -0.266 OA
ATOM      6  N   UNL     1      -2.681  -1.699  -1.437  0.00  0.00    -0.273 N 
ATOM      7  H   UNL     1      -2.983  -2.169  -0.608  0.00  0.00    +0.173 HD
ATOM      8  C   UNL     1      -1.423  -1.873  -1.878  0.00  0.00    +0.331 A 
ATOM      9  O   UNL     1      -0.669  -2.600  -1.261  0.00  0.00    -0.246 OA
ENDROOT
BRANCH   3  10
ATOM     10  N   UNL     1      -3.993   0.603  -3.978  0.00  0.00    -0.258 N 
ATOM     11  C   UNL     1      -4.447   1.737  -3.409  0.00  0.00    +0.244 C 
ATOM     12  O   UNL     1      -4.026   2.083  -2.320  0.00  0.00    -0.270 OA
BRANCH  11  13
ATOM     13  C   UNL     1      -5.444   2.554  -4.101  0.00  0.00    +0.068 C 
ATOM     14  C   UNL     1      -5.898   3.690  -3.533  0.00  0.00    +0.013 C 
BRANCH  14  15
ATOM     15  C   UNL     1      -6.901   4.511  -4.228  0.00  0.00    -0.025 A 
ATOM     16  C   UNL     1      -7.382   4.121  -5.482  0.00  0.00    +0.009 A 
ATOM     17  C   UNL     1      -8.326   4.893  -6.126  0.00  0.00    +0.020 A 
ATOM     18  C   UNL     1      -8.790   6.059  -5.538  0.00  0.00    +0.041 A 
ATOM     19  C   UNL     1      -8.314   6.454  -4.299  0.00  0.00    +0.020 A 
ATOM     20  C   UNL     1      -7.374   5.690  -3.641  0.00  0.00    +0.009 A 
ATOM     21 CL   UNL     1      -9.973   7.028  -6.359  0.00  0.00    -0.084 Cl
ENDBRANCH  14  15
ENDBRANCH  11  13
BRANCH  10  22
ATOM     22  C   UNL     1      -4.415   0.243  -5.334  0.00  0.00    +0.145 C 
BRANCH  22  23
ATOM     23  C   UNL     1      -5.609  -0.710  -5.261  0.00  0.00    +0.136 C 
ATOM     24  C   UNL     1      -5.993  -1.201  -6.675  0.00  0.00    +0.035 C 
ATOM     25  C   UNL     1      -7.536  -1.271  -6.642  0.00  0.00    +0.031 C 
ATOM     26  C   UNL     1      -7.902  -0.815  -5.213  0.00  0.00    +0.160 C 
ATOM     27  O   UNL     1      -6.780  -0.013  -4.782  0.00  0.00    -0.375 OA
ENDBRANCH  22  23
ENDBRANCH  10  22
ENDBRANCH   3  10
BRANCH   2  28
ATOM     28  N   UNL     1      -1.364   0.209  -4.834  0.00  0.00    -0.343 N 
ATOM     29  H   UNL     1      -0.481   0.010  -5.182  0.00  0.00    +0.144 HD
ATOM     30  H   UNL     1      -1.928   0.857  -5.285  0.00  0.00    +0.144 HD
ENDBRANCH   2  28
BRANCH   1  31
ATOM     31  C   UNL     1       0.395  -1.467  -3.442  0.00  0.00    +0.163 C 
BRANCH  31  35
ATOM     32  C   UNL     1       0.524  -4.809  -6.100  0.00  0.00    +0.000 A 
ATOM     33  C   UNL     1       0.311  -3.538  -6.598  0.00  0.00    +0.000 A 
ATOM     34  C   UNL     1       0.269  -2.456  -5.738  0.00  0.00    +0.005 A 
ATOM     35  C   UNL     1       0.441  -2.646  -4.380  0.00  0.00    -0.028 A 
ATOM     36  C   UNL     1       0.655  -3.918  -3.882  0.00  0.00    +0.005 A 
ATOM     37  C   UNL     1       0.697  -4.999  -4.742  0.00  0.00    +0.000 A 
ENDBRANCH  31  35
ENDBRANCH   1  31
TORSDOF 8
