REMARK  Name = ZINC39789787
REMARK  4 active torsions:
REMARK  status: ('A' for Active; 'I' for Inactive)
REMARK    1  A    between atoms: C_4  and  C_23
REMARK    2  A    between atoms: C_6  and  N_7
REMARK    3  A    between atoms: N_7  and  S_8
REMARK    4  A    between atoms: S_8  and  C_11
REMARK                            x       y       z     vdW  Elec       q    Type
REMARK                         _______ _______ _______ _____ _____    ______ ____
ROOT
ATOM      1  S   UNL     1      -2.644   0.086   0.029  0.00  0.00    +0.092 S 
ATOM      2  O   UNL     1      -2.717   0.758   1.278  0.00  0.00    -0.148 OA
ATOM      3  O   UNL     1      -2.742   0.772  -1.212  0.00  0.00    -0.148 OA
ENDROOT
BRANCH   1   4
ATOM      4  C   UNL     1      -3.919  -1.130   0.035  0.00  0.00    +0.112 A 
ATOM      5  C   UNL     1      -4.422  -1.599  -1.195  0.00  0.00    +0.031 A 
ATOM      6  C   UNL     1      -5.400  -2.531  -1.258  0.00  0.00    +0.027 A 
ATOM      7  C   UNL     1      -5.943  -3.060  -0.058  0.00  0.00    +0.055 A 
ATOM      8  N   UNL     1      -6.896  -3.968  -0.090  0.00  0.00    -0.276 N 
ATOM      9  C   UNL     1      -7.397  -4.456   1.064  0.00  0.00    +0.304 C 
ATOM     10  O   UNL     1      -8.275  -5.294   1.043  0.00  0.00    -0.265 OA
ATOM     11  C   UNL     1      -6.862  -3.958   2.369  0.00  0.00    +0.304 C 
ATOM     12  O   UNL     1      -7.304  -4.388   3.415  0.00  0.00    -0.265 OA
ATOM     13  N   UNL     1      -5.886  -3.027   2.376  0.00  0.00    -0.276 N 
ATOM     14  C   UNL     1      -5.412  -2.565   1.238  0.00  0.00    +0.057 A 
ATOM     15  C   UNL     1      -4.382  -1.589   1.219  0.00  0.00    +0.054 A 
ATOM     16  H   UNL     1      -5.534  -2.698   3.218  0.00  0.00    +0.155 HD
ATOM     17  H   UNL     1      -7.237  -4.285  -0.941  0.00  0.00    +0.155 HD
ENDBRANCH   1   4
BRANCH   1  18
ATOM     18  N   UNL     1      -1.198  -0.720   0.010  0.00  0.00    -0.098 NA
BRANCH  18  24
ATOM     19  C   UNL     1      -0.017   1.385   0.010  0.00  0.00    +0.028 A 
ATOM     20  C   UNL     1       1.171   2.090   0.002  0.00  0.00    +0.018 A 
ATOM     21  C   UNL     1       2.378   1.415  -0.013  0.00  0.00    +0.030 A 
ATOM     22  C   UNL     1       2.400   0.031  -0.021  0.00  0.00    +0.071 A 
ATOM     23  C   UNL     1       1.216  -0.679  -0.014  0.00  0.00    +0.040 A 
ATOM     24  C   UNL     1       0.002  -0.004   0.002  0.00  0.00    +0.075 A 
ATOM     25 BR   UNL     1       4.002   2.384  -0.025  0.00  0.00    -0.050 Br
BRANCH  22  26
ATOM     26  C   UNL     1       3.717  -0.701  -0.038  0.00  0.00    +0.418 C 
ATOM     27  F   UNL     1       3.484  -2.080  -0.043  0.00  0.00    -0.166 F 
ATOM     28  F   UNL     1       4.434  -0.345  -1.186  0.00  0.00    -0.166 F 
ATOM     29  F   UNL     1       4.456  -0.357   1.099  0.00  0.00    -0.166 F 
ENDBRANCH  22  26
ENDBRANCH  18  24
ENDBRANCH   1  18
TORSDOF 4
