REMARK  Name = ZINC38789564
REMARK  6 active torsions:
REMARK  status: ('A' for Active; 'I' for Inactive)
REMARK    1  A    between atoms: C_1  and  C_2
REMARK    2  A    between atoms: C_7  and  C_9
REMARK    3  A    between atoms: C_7  and  C_10
REMARK    4  A    between atoms: N_11  and  C_13
REMARK    5  A    between atoms: C_18  and  C_26
REMARK    6  A    between atoms: C_22  and  C_23
REMARK                            x       y       z     vdW  Elec       q    Type
REMARK                         _______ _______ _______ _____ _____    ______ ____
ROOT
ATOM      1  C   UNL     1      -3.271  -1.776  -1.658  0.00  0.00    +0.055 A 
ATOM      2  C   UNL     1      -3.247  -3.085  -2.198  0.00  0.00    +0.021 A 
ATOM      3  C   UNL     1      -2.843  -3.318  -3.520  0.00  0.00    +0.012 A 
ATOM      4  C   UNL     1      -2.831  -4.591  -4.007  0.00  0.00    +0.001 A 
ATOM      5  C   UNL     1      -3.216  -5.663  -3.207  0.00  0.00    +0.014 A 
ATOM      6  C   UNL     1      -3.613  -5.470  -1.918  0.00  0.00    +0.079 A 
ATOM      7  C   UNL     1      -3.637  -4.172  -1.382  0.00  0.00    +0.060 A 
ATOM      8  N   UNL     1      -4.024  -3.962  -0.115  0.00  0.00    -0.359 N 
ATOM      9  C   UNL     1      -4.056  -2.765   0.411  0.00  0.00    +0.100 A 
ATOM     10  C   UNL     1      -3.681  -1.627  -0.323  0.00  0.00    +0.101 A 
ATOM     11  H   UNL     1      -4.289  -4.721   0.428  0.00  0.00    +0.165 HD
ENDROOT
BRANCH   1  21
ATOM     12  C   UNL     1      -2.469   2.983  -2.903  0.00  0.00    +0.013 C 
ATOM     13  C   UNL     1      -2.144   1.496  -3.118  0.00  0.00    -0.014 C 
ATOM     14  C   UNL     1      -3.006   0.861  -4.243  0.00  0.00    +0.030 C 
ATOM     15  C   UNL     1      -2.831  -0.637  -3.888  0.00  0.00    +0.075 C 
ATOM     16  C   UNL     1      -1.431  -1.048  -4.338  0.00  0.00    +0.028 C 
ATOM     17  C   UNL     1      -0.321  -0.188  -3.764  0.00  0.00    -0.033 C 
ATOM     18  C   UNL     1      -0.679   1.259  -3.480  0.00  0.00    +0.014 C 
ATOM     19  C   UNL     1       0.829  -0.177  -4.803  0.00  0.00    +0.011 C 
ATOM     20  C   UNL     1       0.246  -0.848  -2.498  0.00  0.00    +0.011 C 
ATOM     21  N   UNL     1      -2.899  -0.688  -2.414  0.00  0.00    -0.325 N 
ATOM     22  C   UNL     1      -2.513   0.632  -1.892  0.00  0.00    +0.112 C 
ENDBRANCH   1  21
BRANCH   6  23
ATOM     23  C   UNL     1      -4.026  -6.645  -1.071  0.00  0.00    +0.419 C 
ATOM     24  F   UNL     1      -3.918  -7.821  -1.821  0.00  0.00    -0.166 F 
ATOM     25  F   UNL     1      -3.191  -6.728   0.049  0.00  0.00    -0.166 F 
ATOM     26  F   UNL     1      -5.351  -6.478  -0.653  0.00  0.00    -0.166 F 
ENDBRANCH   6  23
BRANCH  10  27
ATOM     27  C   UNL     1      -3.722  -0.297   0.297  0.00  0.00    +0.390 C 
ATOM     28  O   UNL     1      -4.771   0.130   0.761  0.00  0.00    -0.240 OA
ATOM     29  O   UNL     1      -2.707   0.385   0.350  0.00  0.00    -0.240 OA
ENDBRANCH  10  27
TORSDOF 3
