REMARK  Name = ZINC58247126
REMARK  6 active torsions:
REMARK  status: ('A' for Active; 'I' for Inactive)
REMARK    1  A    between atoms: C_1  and  C_2
REMARK    2  A    between atoms: C_2  and  C_3
REMARK    3  A    between atoms: C_2  and  N_13
REMARK    4  A    between atoms: C_6  and  N_9
REMARK    5  A    between atoms: C_14  and  C_16
REMARK    6  A    between atoms: C_18  and  C_21
REMARK                            x       y       z     vdW  Elec       q    Type
REMARK                         _______ _______ _______ _____ _____    ______ ____
ROOT
ATOM      1  C   UNL     1       0.169   1.493  -0.121  0.00  0.00    +0.033 C 
ATOM      2  C   UNL     1       0.012  -0.025  -0.012  0.00  0.00    +0.100 C 
ENDROOT
BRANCH   2   3
ATOM      3  C   UNL     1       0.738  -0.518   1.212  0.00  0.00    -0.027 A 
ATOM      4  C   UNL     1       2.110  -0.692   1.178  0.00  0.00    +0.007 A 
ATOM      5  C   UNL     1       2.778  -1.144   2.299  0.00  0.00    +0.023 A 
ATOM      6  C   UNL     1       2.072  -1.425   3.461  0.00  0.00    +0.035 A 
ATOM      7  C   UNL     1       0.694  -1.250   3.492  0.00  0.00    +0.023 A 
ATOM      8  C   UNL     1       0.032  -0.792   2.370  0.00  0.00    +0.007 A 
BRANCH   6   9
ATOM      9  N   UNL     1       2.746  -1.884   4.598  0.00  0.00    -0.270 N 
ATOM     10  C   UNL     1       3.998  -1.458   4.857  0.00  0.00    +0.301 C 
ATOM     11  O   UNL     1       4.506  -0.603   4.157  0.00  0.00    -0.253 OA
ATOM     12  N   UNL     1       4.688  -1.980   5.891  0.00  0.00    -0.313 N 
ATOM     13  H   UNL     1       2.312  -2.509   5.200  0.00  0.00    +0.156 HD
ATOM     14  H   UNL     1       4.282  -2.662   6.449  0.00  0.00    +0.146 HD
ATOM     15  H   UNL     1       5.589  -1.673   6.077  0.00  0.00    +0.146 HD
ENDBRANCH   6   9
ENDBRANCH   2   3
BRANCH   2  16
ATOM     16  N   UNL     1       0.577  -0.661  -1.205  0.00  0.00    -0.306 N 
ATOM     17  C   UNL     1      -0.172  -0.793  -2.317  0.00  0.00    +0.257 C 
ATOM     18  O   UNL     1      -1.314  -0.385  -2.331  0.00  0.00    -0.272 OA
ATOM     19  H   UNL     1       1.490  -0.988  -1.194  0.00  0.00    +0.149 HD
BRANCH  17  20
ATOM     20  C   UNL     1       0.409  -1.448  -3.544  0.00  0.00    +0.295 C 
ATOM     21  C   UNL     1       1.467  -0.535  -4.209  0.00  0.00    +0.117 C 
ATOM     22  C   UNL     1       1.225  -0.774  -5.688  0.00  0.00    +0.098 C 
ATOM     23  N   UNL     1       0.073  -1.349  -5.822  0.00  0.00    -0.088 NA
ATOM     24  O   UNL     1      -0.581  -1.561  -4.586  0.00  0.00    -0.380 OA
BRANCH  22  25
ATOM     25  C   UNL     1       2.139  -0.415  -6.777  0.00  0.00    +0.038 A 
ATOM     26  C   UNL     1       1.985  -0.596  -8.141  0.00  0.00    +0.019 A 
ATOM     27  C   UNL     1       2.991  -0.172  -8.975  0.00  0.00    +0.028 A 
ATOM     28  C   UNL     1       4.100   0.407  -8.438  0.00  0.00    +0.079 A 
ATOM     29  S   UNL     1       3.738   0.375  -6.691  0.00  0.00    -0.075 S 
ATOM     30 CL   UNL     1       5.506   1.026  -9.248  0.00  0.00    -0.076 Cl
ENDBRANCH  22  25
ENDBRANCH  17  20
ENDBRANCH   2  16
TORSDOF 5
