REMARK  Name = ZINC24781950
REMARK  8 active torsions:
REMARK  status: ('A' for Active; 'I' for Inactive)
REMARK    1  A    between atoms: C_1  and  C_2
REMARK    2  A    between atoms: C_2  and  C_4
REMARK    3  A    between atoms: C_2  and  O_15
REMARK    4  A    between atoms: N_6  and  C_7
REMARK    5  A    between atoms: O_15  and  C_16
REMARK    6  A    between atoms: C_16  and  C_18
REMARK    7  A    between atoms: C_20  and  S_25
REMARK    8  A    between atoms: S_25  and  N_28
REMARK                            x       y       z     vdW  Elec       q    Type
REMARK                         _______ _______ _______ _____ _____    ______ ____
ROOT
ATOM      1  O   UNL     1       0.683  -0.446  -1.173  0.00  0.00    -0.449 OA
ENDROOT
BRANCH   1   3
ATOM      2  C   UNL     1      -0.003   1.541   0.020  0.00  0.00    +0.062 C 
ATOM      3  C   UNL     1       0.012   0.011   0.003  0.00  0.00    +0.259 C 
BRANCH   3   4
ATOM      4  C   UNL     1       0.735  -0.498   1.224  0.00  0.00    +0.258 C 
ATOM      5  O   UNL     1       1.776  -1.107   1.101  0.00  0.00    -0.271 OA
ATOM      6  N   UNL     1       0.223  -0.277   2.451  0.00  0.00    -0.281 N 
ATOM      7  H   UNL     1      -0.575   0.266   2.553  0.00  0.00    +0.155 HD
BRANCH   6   8
ATOM      8  C   UNL     1       0.843  -0.829   3.577  0.00  0.00    +0.053 A 
ATOM      9  C   UNL     1       2.225  -0.957   3.619  0.00  0.00    +0.044 A 
ATOM     10  C   UNL     1       2.834  -1.502   4.733  0.00  0.00    +0.043 A 
ATOM     11  C   UNL     1       2.068  -1.921   5.807  0.00  0.00    +0.021 A 
ATOM     12  C   UNL     1       0.692  -1.795   5.769  0.00  0.00    +0.023 A 
ATOM     13  C   UNL     1       0.077  -1.245   4.660  0.00  0.00    +0.062 A 
ATOM     14 CL   UNL     1      -1.651  -1.082   4.615  0.00  0.00    -0.082 Cl
ATOM     15 CL   UNL     1       4.562  -1.663   4.785  0.00  0.00    -0.083 Cl
ENDBRANCH   6   8
ENDBRANCH   3   4
ENDBRANCH   1   3
BRANCH   1  16
ATOM     16  C   UNL     1      -0.072  -0.644  -2.271  0.00  0.00    +0.341 C 
ATOM     17  O   UNL     1      -1.268  -0.436  -2.230  0.00  0.00    -0.245 OA
BRANCH  16  18
ATOM     18  C   UNL     1       0.553  -1.116  -3.522  0.00  0.00    +0.079 A 
ATOM     19  C   UNL     1       1.927  -1.362  -3.570  0.00  0.00    +0.045 A 
ATOM     20  C   UNL     1       2.505  -1.802  -4.742  0.00  0.00    +0.106 A 
ATOM     21  C   UNL     1       1.727  -2.000  -5.870  0.00  0.00    +0.030 A 
ATOM     22  C   UNL     1       0.366  -1.759  -5.831  0.00  0.00    +0.023 A 
ATOM     23  C   UNL     1      -0.227  -1.323  -4.662  0.00  0.00    +0.055 A 
ATOM     24 CL   UNL     1      -1.937  -1.028  -4.612  0.00  0.00    -0.083 Cl
BRANCH  20  25
ATOM     25  S   UNL     1       4.238  -2.113  -4.805  0.00  0.00    +0.056 S 
ATOM     26  O   UNL     1       4.623  -1.995  -6.168  0.00  0.00    -0.153 OA
ATOM     27  O   UNL     1       4.829  -1.330  -3.776  0.00  0.00    -0.153 OA
BRANCH  25  28
ATOM     28  N   UNL     1       4.467  -3.698  -4.384  0.00  0.00    -0.204 NA
ATOM     29  H   UNL     1       5.218  -4.193  -4.749  0.00  0.00    +0.144 HD
ATOM     30  H   UNL     1       3.851  -4.131  -3.773  0.00  0.00    +0.144 HD
ENDBRANCH  25  28
ENDBRANCH  20  25
ENDBRANCH  16  18
ENDBRANCH   1  16
TORSDOF 7
