REMARK  Name = ZINC45629762
REMARK  5 active torsions:
REMARK  status: ('A' for Active; 'I' for Inactive)
REMARK    1  A    between atoms: C_1  and  C_2
REMARK    2  A    between atoms: C_4  and  C_28
REMARK    3  A    between atoms: C_12  and  C_14
REMARK    4  A    between atoms: C_14  and  N_15
REMARK    5  A    between atoms: C_16  and  C_18
REMARK                            x       y       z     vdW  Elec       q    Type
REMARK                         _______ _______ _______ _____ _____    ______ ____
ROOT
ATOM      1  C   UNL     1      -0.018   1.503   0.010  0.00  0.00    +0.044 C 
ATOM      2  C   UNL     1       0.002  -0.004   0.002  0.00  0.00    -0.049 A 
ATOM      3  C   UNL     1       0.006  -0.698  -1.199  0.00  0.00    +0.009 A 
ATOM      4  C   UNL     1       0.024  -2.068  -1.235  0.00  0.00    -0.024 A 
ATOM      5  C   UNL     1       0.040  -2.822  -0.038  0.00  0.00    +0.083 A 
ATOM      6  C   UNL     1       0.036  -2.081   1.166  0.00  0.00    +0.041 A 
ATOM      7  C   UNL     1       0.023  -0.709   1.191  0.00  0.00    +0.020 A 
ATOM      8  S   UNL     1       0.059  -3.361   2.397  0.00  0.00    -0.052 S 
ATOM      9  C   UNL     1       0.073  -4.752   1.275  0.00  0.00    +0.165 A 
ATOM     10  N   UNL     1       0.059  -4.165   0.101  0.00  0.00    -0.224 NA
ATOM     11  N   UNL     1       0.093  -6.106   1.569  0.00  0.00    -0.263 N 
ATOM     12  C   UNL     1       0.104  -6.517   2.853  0.00  0.00    +0.236 C 
ATOM     13  O   UNL     1       0.097  -5.701   3.750  0.00  0.00    -0.274 OA
ATOM     14  C   UNL     1       0.027  -2.779  -2.563  0.00  0.00    +0.046 C 
ATOM     15  H   UNL     1       0.099  -6.758   0.851  0.00  0.00    +0.157 HD
ENDROOT
BRANCH  12  16
ATOM     16  C   UNL     1       0.125  -7.989   3.172  0.00  0.00    +0.200 C 
BRANCH  16  17
ATOM     17  N   UNL     1       0.134  -8.173   4.626  0.00  0.00    -0.306 N 
ATOM     18  C   UNL     1       0.153  -9.416   5.147  0.00  0.00    +0.220 C 
ATOM     19  O   UNL     1       0.163 -10.382   4.414  0.00  0.00    -0.275 OA
ATOM     20  H   UNL     1       0.126  -7.401   5.212  0.00  0.00    +0.149 HD
BRANCH  18  21
ATOM     21  C   UNL     1       0.162  -9.605   6.643  0.00  0.00    +0.048 C 
ATOM     22  C   UNL     1       1.405  -8.937   7.234  0.00  0.00    +0.019 C 
ATOM     23  C   UNL     1       1.413  -9.129   8.752  0.00  0.00    -0.009 C 
ATOM     24  C   UNL     1       1.435 -10.624   9.076  0.00  0.00    +0.007 C 
ATOM     25  C   UNL     1       0.193 -11.292   8.485  0.00  0.00    -0.009 C 
ATOM     26  C   UNL     1       0.184 -11.100   6.967  0.00  0.00    +0.019 C 
ATOM     27  C   UNL     1      -1.063 -10.658   9.087  0.00  0.00    +0.007 C 
ATOM     28  C   UNL     1      -1.085  -9.163   8.762  0.00  0.00    -0.009 C 
ATOM     29  C   UNL     1       0.158  -8.494   9.354  0.00  0.00    +0.007 C 
ATOM     30  C   UNL     1      -1.094  -8.971   7.244  0.00  0.00    +0.019 C 
ENDBRANCH  18  21
ENDBRANCH  16  17
ENDBRANCH  12  16
TORSDOF 3
