REMARK  Name = ZINC12266738
REMARK  10 active torsions:
REMARK  status: ('A' for Active; 'I' for Inactive)
REMARK    1  A    between atoms: C_1  and  O_2
REMARK    2  A    between atoms: O_2  and  C_3
REMARK    3  A    between atoms: C_3  and  C_4
REMARK    4  A    between atoms: C_4  and  N_5
REMARK    5  A    between atoms: N_5  and  C_6
REMARK    6  A    between atoms: C_7  and  N_22
REMARK    7  A    between atoms: N_8  and  C_15
REMARK    8  A    between atoms: C_15  and  C_16
REMARK    9  A    between atoms: C_23  and  C_25
REMARK   10  A    between atoms: C_26  and  C_27
REMARK                            x       y       z     vdW  Elec       q    Type
REMARK                         _______ _______ _______ _____ _____    ______ ____
ROOT
ATOM      1  N   UNL     1      -0.529  -2.593   1.162  0.00  0.00    -0.259 N 
ATOM      2  C   UNL     1       0.793  -2.807   1.013  0.00  0.00    +0.244 C 
ATOM      3  O   UNL     1       1.440  -3.282   1.929  0.00  0.00    -0.270 OA
ENDROOT
BRANCH   1   4
ATOM      4  C   UNL     1      -1.142  -2.811   2.413  0.00  0.00    +0.140 A 
ATOM      5  C   UNL     1      -2.078  -3.813   2.571  0.00  0.00    +0.128 A 
ATOM      6  N   UNL     1      -2.658  -4.002   3.804  0.00  0.00    -0.276 N 
ATOM      7  C   UNL     1      -2.318  -3.218   4.843  0.00  0.00    +0.331 A 
ATOM      8  O   UNL     1      -2.842  -3.401   5.925  0.00  0.00    -0.246 OA
ATOM      9  N   UNL     1      -1.408  -2.237   4.708  0.00  0.00    -0.273 N 
ATOM     10  H   UNL     1      -1.179  -1.687   5.473  0.00  0.00    +0.173 HD
ATOM     11  C   UNL     1      -0.806  -2.014   3.523  0.00  0.00    +0.277 A 
ATOM     12  O   UNL     1       0.021  -1.125   3.413  0.00  0.00    -0.266 OA
BRANCH   5  13
ATOM     13  N   UNL     1      -2.426  -4.613   1.509  0.00  0.00    -0.343 N 
ATOM     14  H   UNL     1      -2.066  -4.432   0.627  0.00  0.00    +0.144 HD
ATOM     15  H   UNL     1      -3.033  -5.358   1.641  0.00  0.00    +0.144 HD
ENDBRANCH   5  13
BRANCH   6  16
ATOM     16  C   UNL     1      -3.653  -5.061   3.986  0.00  0.00    +0.163 C 
BRANCH  16  17
ATOM     17  C   UNL     1      -2.960  -6.336   4.396  0.00  0.00    -0.028 A 
ATOM     18  C   UNL     1      -2.521  -7.224   3.432  0.00  0.00    +0.005 A 
ATOM     19  C   UNL     1      -1.885  -8.393   3.808  0.00  0.00    +0.000 A 
ATOM     20  C   UNL     1      -1.689  -8.673   5.147  0.00  0.00    +0.000 A 
ATOM     21  C   UNL     1      -2.127  -7.784   6.111  0.00  0.00    +0.000 A 
ATOM     22  C   UNL     1      -2.759  -6.613   5.735  0.00  0.00    +0.005 A 
ENDBRANCH  16  17
ENDBRANCH   6  16
ENDBRANCH   1   4
BRANCH   2  23
ATOM     23  C   UNL     1       1.451  -2.470  -0.249  0.00  0.00    +0.068 C 
ATOM     24  C   UNL     1       2.776  -2.685  -0.399  0.00  0.00    +0.013 C 
BRANCH  24  25
ATOM     25  C   UNL     1       3.436  -2.347  -1.665  0.00  0.00    -0.017 A 
ATOM     26  C   UNL     1       2.712  -1.799  -2.720  0.00  0.00    +0.008 A 
ATOM     27  C   UNL     1       3.340  -1.481  -3.916  0.00  0.00    +0.001 A 
ATOM     28  C   UNL     1       4.672  -1.689  -4.106  0.00  0.00    +0.008 A 
ATOM     29  C   UNL     1       5.466  -2.239  -3.085  0.00  0.00    -0.017 A 
ATOM     30  C   UNL     1       4.870  -2.573  -1.844  0.00  0.00    -0.011 A 
ATOM     31  C   UNL     1       5.658  -3.116  -0.823  0.00  0.00    +0.009 A 
ATOM     32  C   UNL     1       6.992  -3.311  -1.031  0.00  0.00    +0.001 A 
ATOM     33  C   UNL     1       7.582  -2.977  -2.248  0.00  0.00    +0.001 A 
ATOM     34  C   UNL     1       6.842  -2.458  -3.267  0.00  0.00    +0.008 A 
ENDBRANCH  24  25
ENDBRANCH   2  23
BRANCH   1  35
ATOM     35  C   UNL     1      -1.329  -2.133   0.024  0.00  0.00    +0.142 C 
BRANCH  35  36
ATOM     36  C   UNL     1      -1.450  -0.609   0.068  0.00  0.00    +0.179 C 
BRANCH  36  38
ATOM     37  C   UNL     1      -0.161   1.406  -0.092  0.00  0.00    +0.194 C 
ATOM     38  O   UNL     1      -0.160  -0.023  -0.116  0.00  0.00    -0.381 OA
ENDBRANCH  36  38
ENDBRANCH  35  36
ENDBRANCH   1  35
TORSDOF 9
