REMARK  Name = ZINC07031529
REMARK  6 active torsions:
REMARK  status: ('A' for Active; 'I' for Inactive)
REMARK    1  A    between atoms: C_3  and  N_28
REMARK    2  A    between atoms: C_4  and  C_8
REMARK    3  A    between atoms: C_8  and  O_10
REMARK    4  A    between atoms: O_10  and  C_11
REMARK    5  A    between atoms: C_11  and  C_12
REMARK    6  A    between atoms: N_17  and  C_18
REMARK                            x       y       z     vdW  Elec       q    Type
REMARK                         _______ _______ _______ _____ _____    ______ ____
ROOT
ATOM      1  C   UNL     1       3.607   7.348   0.239  0.00  0.00    +0.258 C 
ATOM      2  O   UNL     1       2.494   7.821   0.335  0.00  0.00    -0.272 OA
ATOM      3  N   UNL     1       4.686   8.156   0.252  0.00  0.00    -0.237 N 
ATOM      4  C   UNL     1       4.528   9.489   0.371  0.00  0.00    +0.306 C 
ATOM      5  O   UNL     1       3.413   9.963   0.467  0.00  0.00    -0.252 OA
ATOM      6  N   UNL     1       5.607  10.297   0.385  0.00  0.00    -0.294 N 
ATOM      7  H   UNL     1       5.695   7.727   0.165  0.00  0.00    +0.159 HD
ATOM      8  H   UNL     1       6.616   9.868   0.298  0.00  0.00    +0.151 HD
ENDROOT
BRANCH   6   9
ATOM      9  C   UNL     1       5.435  11.746   0.514  0.00  0.00    +0.037 C 
ATOM     10  C   UNL     1       4.597  12.267  -0.655  0.00  0.00    +0.029 C 
ATOM     11  C   UNL     1       4.418  13.780  -0.520  0.00  0.00    -0.008 C 
ATOM     12  C   UNL     1       5.789  14.460  -0.532  0.00  0.00    +0.007 C 
ATOM     13  C   UNL     1       6.627  13.938   0.637  0.00  0.00    -0.008 C 
ATOM     14  C   UNL     1       6.806  12.425   0.502  0.00  0.00    +0.029 C 
ATOM     15  C   UNL     1       5.915  14.252   1.955  0.00  0.00    +0.007 C 
ATOM     16  C   UNL     1       4.544  13.573   1.967  0.00  0.00    -0.008 C 
ATOM     17  C   UNL     1       3.706  14.094   0.798  0.00  0.00    +0.007 C 
ATOM     18  C   UNL     1       4.723  12.059   1.831  0.00  0.00    +0.029 C 
ENDBRANCH   6   9
BRANCH   1  19
ATOM     19  C   UNL     1       3.783   5.857   0.105  0.00  0.00    +0.328 C 
BRANCH  19  20
ATOM     20  O   UNL     1       2.482   5.213   0.117  0.00  0.00    -0.452 OA
BRANCH  20  21
ATOM     21  C   UNL     1       2.463   3.870   0.006  0.00  0.00    +0.341 C 
ATOM     22  O   UNL     1       3.506   3.255  -0.098  0.00  0.00    -0.245 OA
BRANCH  21  26
ATOM     23  C   UNL     1      -1.241   1.789   0.015  0.00  0.00    +0.022 A 
ATOM     24  C   UNL     1      -0.060   1.076   0.025  0.00  0.00    +0.025 A 
ATOM     25  C   UNL     1       1.158   1.745   0.020  0.00  0.00    +0.039 A 
ATOM     26  C   UNL     1       1.179   3.149   0.011  0.00  0.00    +0.081 A 
ATOM     27  C   UNL     1      -0.026   3.857   0.006  0.00  0.00    +0.036 A 
ATOM     28  C   UNL     1      -1.224   3.176   0.010  0.00  0.00    +0.042 A 
ATOM     29 CL   UNL     1      -2.719   4.058   0.004  0.00  0.00    -0.084 Cl
BRANCH  25  30
ATOM     30  N   UNL     1       2.348   1.028   0.025  0.00  0.00    -0.357 N 
ATOM     31  H   UNL     1       3.310   1.561   0.021  0.00  0.00    +0.142 HD
ATOM     32  H   UNL     1       2.328  -0.071   0.032  0.00  0.00    +0.142 HD
ENDBRANCH  25  30
ENDBRANCH  21  26
ENDBRANCH  20  21
ENDBRANCH  19  20
ENDBRANCH   1  19
TORSDOF 6
