REMARK  Name = ZINC10380238
REMARK  12 active torsions:
REMARK  status: ('A' for Active; 'I' for Inactive)
REMARK    1  A    between atoms: C_1  and  C_2
REMARK    2  A    between atoms: C_4  and  C_31
REMARK    3  A    between atoms: C_6  and  N_8
REMARK    4  A    between atoms: C_12  and  S_13
REMARK    5  A    between atoms: S_13  and  C_14
REMARK    6  A    between atoms: C_14  and  C_15
REMARK    7  A    between atoms: C_15  and  C_17
REMARK    8  A    between atoms: C_18  and  N_30
REMARK    9  A    between atoms: N_19  and  C_26
REMARK   10  A    between atoms: C_26  and  C_27
REMARK   11  A    between atoms: C_27  and  C_28
REMARK   12  A    between atoms: C_27  and  C_29
REMARK                            x       y       z     vdW  Elec       q    Type
REMARK                         _______ _______ _______ _____ _____    ______ ____
ROOT
ATOM      1  C   UNL     1      -5.509   2.969   3.974  0.00  0.00    +0.182 C 
ATOM      2  O   UNL     1      -4.690   3.799   4.314  0.00  0.00    -0.291 OA
ENDROOT
BRANCH   1   3
ATOM      3  C   UNL     1      -6.745   2.879   4.649  0.00  0.00    +0.120 A 
ATOM      4  C   UNL     1      -7.005   3.656   5.792  0.00  0.00    +0.116 A 
ATOM      5  N   UNL     1      -8.219   3.538   6.408  0.00  0.00    -0.281 N 
ATOM      6  C   UNL     1      -9.154   2.692   5.950  0.00  0.00    +0.331 A 
ATOM      7  O   UNL     1     -10.217   2.621   6.536  0.00  0.00    -0.246 OA
ATOM      8  N   UNL     1      -8.961   1.922   4.867  0.00  0.00    -0.274 N 
ATOM      9  H   UNL     1      -9.688   1.306   4.563  0.00  0.00    +0.173 HD
ATOM     10  C   UNL     1      -7.798   1.968   4.184  0.00  0.00    +0.266 A 
ATOM     11  O   UNL     1      -7.626   1.268   3.203  0.00  0.00    -0.267 OA
BRANCH   4  12
ATOM     12  N   UNL     1      -6.066   4.514   6.274  0.00  0.00    -0.344 N 
ATOM     13  H   UNL     1      -5.237   4.649   5.787  0.00  0.00    +0.144 HD
ATOM     14  H   UNL     1      -6.224   4.991   7.103  0.00  0.00    +0.144 HD
ENDBRANCH   4  12
BRANCH   5  15
ATOM     15  C   UNL     1      -8.502   4.347   7.596  0.00  0.00    +0.131 C 
BRANCH  15  16
ATOM     16  C   UNL     1      -8.067   3.584   8.848  0.00  0.00    +0.003 C 
ATOM     17  C   UNL     1      -6.547   3.405   8.834  0.00  0.00    +0.009 C 
ATOM     18  C   UNL     1      -8.475   4.373  10.094  0.00  0.00    +0.009 C 
ENDBRANCH  15  16
ENDBRANCH   5  15
ENDBRANCH   1   3
BRANCH   1  19
ATOM     19  C   UNL     1      -5.205   2.035   2.832  0.00  0.00    +0.157 C 
BRANCH  19  20
ATOM     20  S   UNL     1      -3.556   2.397   2.179  0.00  0.00    -0.079 S 
BRANCH  20  25
ATOM     21  N   UNL     1      -2.411   1.007   0.049  0.00  0.00    -0.295 N 
ATOM     22  C   UNL     1      -2.750  -0.032  -0.791  0.00  0.00    +0.113 A 
ATOM     23  C   UNL     1      -3.983  -0.434  -0.440  0.00  0.00    +0.131 A 
ATOM     24  N   UNL     1      -4.402   0.327   0.585  0.00  0.00    -0.230 NA
ATOM     25  C   UNL     1      -3.465   1.194   0.894  0.00  0.00    +0.174 A 
BRANCH  21  31
ATOM     26  C   UNL     1      -0.071   5.333   0.013  0.00  0.00    +0.044 C 
ATOM     27  C   UNL     1      -0.047   3.826   0.023  0.00  0.00    -0.048 A 
ATOM     28  C   UNL     1       1.162   3.155   0.018  0.00  0.00    +0.006 A 
ATOM     29  C   UNL     1       1.188   1.772   0.027  0.00  0.00    -0.048 A 
ATOM     30  C   UNL     1       0.006   1.058   0.041  0.00  0.00    +0.029 A 
ATOM     31  C   UNL     1      -1.209   1.729   0.041  0.00  0.00    +0.049 A 
ATOM     32  C   UNL     1      -1.232   3.117   0.036  0.00  0.00    +0.029 A 
ATOM     33  C   UNL     1       2.507   1.044   0.021  0.00  0.00    +0.044 C 
ENDBRANCH  21  31
ENDBRANCH  20  25
ENDBRANCH  19  20
ENDBRANCH   1  19
TORSDOF 8
