REMARK  Name = ZINC00985864
REMARK  13 active torsions:
REMARK  status: ('A' for Active; 'I' for Inactive)
REMARK    1  A    between atoms: C_1  and  C_2
REMARK    2  A    between atoms: C_2  and  C_3
REMARK    3  A    between atoms: C_2  and  C_4
REMARK    4  A    between atoms: C_4  and  C_5
REMARK    5  A    between atoms: C_8  and  C_11
REMARK    6  A    between atoms: C_18  and  N_41
REMARK    7  A    between atoms: C_19  and  C_39
REMARK    8  A    between atoms: C_20  and  C_22
REMARK    9  A    between atoms: C_26  and  O_37
REMARK   10  A    between atoms: C_27  and  O_28
REMARK   11  A    between atoms: O_28  and  C_29
REMARK   12  A    between atoms: C_29  and  C_30
REMARK   13  A    between atoms: O_37  and  C_38
REMARK                            x       y       z     vdW  Elec       q    Type
REMARK                         _______ _______ _______ _____ _____    ______ ____
ROOT
ATOM      1  C   UNL     1      -2.293   0.157   4.280  0.00  0.00    +0.100 A 
ATOM      2  C   UNL     1      -2.715  -0.005   5.603  0.00  0.00    +0.054 A 
ATOM      3  C   UNL     1      -1.905   0.750   6.400  0.00  0.00    +0.223 A 
ATOM      4  N   UNL     1      -1.004   1.364   5.606  0.00  0.00    -0.246 N 
ATOM      5  H   UNL     1      -0.301   1.965   5.899  0.00  0.00    +0.192 HD
ATOM      6  N   UNL     1      -1.259   0.977   4.281  0.00  0.00    -0.171 NA
ATOM      7  O   UNL     1      -2.056   0.813   7.747  0.00  0.00    -0.423 OA
ATOM      8  C   UNL     1      -3.200   0.327   8.271  0.00  0.00    +0.200 C 
ATOM      9  C   UNL     1      -4.074  -0.442   7.584  0.00  0.00    +0.098 C 
ATOM     10  C   UNL     1      -3.846  -0.839   6.147  0.00  0.00    +0.105 C 
ENDROOT
BRANCH   1  14
ATOM     11  C   UNL     1      -4.021  -1.684   0.858  0.00  0.00    -0.047 A 
ATOM     12  C   UNL     1      -2.647  -1.663   1.008  0.00  0.00    +0.004 A 
ATOM     13  C   UNL     1      -2.080  -1.066   2.117  0.00  0.00    +0.010 A 
ATOM     14  C   UNL     1      -2.896  -0.485   3.085  0.00  0.00    +0.003 A 
ATOM     15  C   UNL     1      -4.280  -0.510   2.929  0.00  0.00    +0.010 A 
ATOM     16  C   UNL     1      -4.836  -1.105   1.814  0.00  0.00    +0.004 A 
BRANCH  11  17
ATOM     17  C   UNL     1      -4.634  -2.337  -0.354  0.00  0.00    +0.038 C 
BRANCH  17  19
ATOM     18  C   UNL     1      -3.332  -0.934  -1.961  0.00  0.00    +0.007 C 
ATOM     19  C   UNL     1      -4.737  -1.313  -1.487  0.00  0.00    -0.013 C 
ATOM     20  C   UNL     1      -5.523  -1.918  -2.652  0.00  0.00    +0.007 C 
ENDBRANCH  17  19
ENDBRANCH  11  17
ENDBRANCH   1  14
BRANCH  10  21
ATOM     21  C   UNL     1      -3.481  -2.300   6.074  0.00  0.00    +0.011 A 
ATOM     22  C   UNL     1      -2.175  -2.698   6.292  0.00  0.00    +0.008 A 
ATOM     23  C   UNL     1      -1.837  -4.036   6.226  0.00  0.00    +0.004 A 
ATOM     24  C   UNL     1      -2.804  -4.983   5.941  0.00  0.00    +0.049 A 
ATOM     25  C   UNL     1      -4.114  -4.591   5.723  0.00  0.00    +0.162 A 
ATOM     26  C   UNL     1      -4.455  -3.244   5.795  0.00  0.00    +0.166 A 
BRANCH  25  27
ATOM     27  O   UNL     1      -5.066  -5.521   5.443  0.00  0.00    -0.491 OA
ATOM     28  C   UNL     1      -4.644  -6.886   5.390  0.00  0.00    +0.277 C 
ENDBRANCH  25  27
BRANCH  26  29
ATOM     29  O   UNL     1      -5.742  -2.855   5.587  0.00  0.00    -0.483 OA
BRANCH  29  30
ATOM     30  C   UNL     1      -6.165  -2.714   4.229  0.00  0.00    +0.264 C 
BRANCH  30  31
ATOM     31  C   UNL     1      -7.622  -2.332   4.194  0.00  0.00    -0.010 A 
ATOM     32  C   UNL     1      -8.595  -3.303   4.343  0.00  0.00    +0.010 A 
ATOM     33  C   UNL     1      -9.931  -2.954   4.312  0.00  0.00    +0.039 A 
ATOM     34  C   UNL     1     -10.297  -1.631   4.131  0.00  0.00    +0.123 A 
ATOM     35  C   UNL     1      -9.322  -0.659   3.982  0.00  0.00    +0.039 A 
ATOM     36  C   UNL     1      -7.986  -1.010   4.019  0.00  0.00    +0.010 A 
ATOM     37  F   UNL     1     -11.603  -1.288   4.100  0.00  0.00    -0.205 F 
ENDBRANCH  30  31
ENDBRANCH  29  30
ENDBRANCH  26  29
ENDBRANCH  10  21
BRANCH   8  38
ATOM     38  N   UNL     1      -3.493   0.631   9.577  0.00  0.00    -0.328 N 
ATOM     39  H   UNL     1      -2.885   1.181  10.095  0.00  0.00    +0.145 HD
ATOM     40  H   UNL     1      -4.309   0.296   9.981  0.00  0.00    +0.145 HD
ENDBRANCH   8  38
BRANCH   9  41
ATOM     41  C   UNL     1      -5.260  -0.897   8.246  0.00  0.00    +0.101 C 
ATOM     42  N   UNL     1      -6.200  -1.258   8.771  0.00  0.00    -0.191 NA
ENDBRANCH   9  41
TORSDOF 10
