REMARK  Name = ZINC13844177
REMARK  7 active torsions:
REMARK  status: ('A' for Active; 'I' for Inactive)
REMARK    1  A    between atoms: C_3  and  C_6
REMARK    2  A    between atoms: C_7  and  C_31
REMARK    3  A    between atoms: C_12  and  S_14
REMARK    4  A    between atoms: S_14  and  C_15
REMARK    5  A    between atoms: C_15  and  C_16
REMARK    6  A    between atoms: N_18  and  C_19
REMARK    7  A    between atoms: C_20  and  C_28
REMARK                            x       y       z     vdW  Elec       q    Type
REMARK                         _______ _______ _______ _____ _____    ______ ____
ROOT
ATOM      1  C   UNL     1      -4.098  -0.015   0.040  0.00  0.00    +0.228 C 
ATOM      2  O   UNL     1      -4.301  -1.211   0.035  0.00  0.00    -0.275 OA
ATOM      3  N   UNL     1      -5.136   0.845   0.054  0.00  0.00    -0.279 N 
ATOM      4  H   UNL     1      -4.974   1.801   0.057  0.00  0.00    +0.155 HD
ENDROOT
BRANCH   3   5
ATOM      5  C   UNL     1      -6.436   0.362   0.063  0.00  0.00    +0.084 A 
ATOM      6  C   UNL     1      -7.623   1.081   0.083  0.00  0.00    +0.068 A 
ATOM      7  C   UNL     1      -8.865   0.328   0.086  0.00  0.00    -0.023 A 
ATOM      8  C   UNL     1      -8.723  -1.016   0.078  0.00  0.00    -0.004 A 
ATOM      9  S   UNL     1      -6.973  -1.285   0.060  0.00  0.00    -0.077 S 
ATOM     10  C   UNL     1      -9.816  -2.040   0.084  0.00  0.00    +0.043 C 
ATOM     11  C   UNL     1     -11.127  -1.345   0.479  0.00  0.00    +0.005 C 
ATOM     12  C   UNL     1     -11.277  -0.066  -0.350  0.00  0.00    +0.005 C 
ATOM     13  C   UNL     1     -10.246   0.970   0.102  0.00  0.00    +0.037 C 
BRANCH   6  14
ATOM     14  C   UNL     1      -7.623   2.547   0.098  0.00  0.00    +0.244 C 
ATOM     15  O   UNL     1      -7.636   3.166  -0.950  0.00  0.00    -0.270 OA
ATOM     16  N   UNL     1      -7.609   3.210   1.271  0.00  0.00    -0.325 N 
ATOM     17  H   UNL     1      -7.600   2.717   2.107  0.00  0.00    +0.145 HD
ATOM     18  H   UNL     1      -7.610   4.180   1.281  0.00  0.00    +0.145 HD
ENDBRANCH   6  14
ENDBRANCH   3   5
BRANCH   1  19
ATOM     19  C   UNL     1      -2.686   0.509   0.029  0.00  0.00    +0.173 C 
BRANCH  19  20
ATOM     20  S   UNL     1      -1.526  -0.881   0.011  0.00  0.00    -0.078 S 
BRANCH  20  27
ATOM     21  C   UNL     1       1.117   2.025   0.002  0.00  0.00    +0.131 A 
ATOM     22  C   UNL     1       2.359   1.353  -0.013  0.00  0.00    +0.145 A 
ATOM     23  C   UNL     1       2.355  -0.065  -0.020  0.00  0.00    +0.270 A 
ATOM     24  O   UNL     1       3.401  -0.689  -0.033  0.00  0.00    -0.266 OA
ATOM     25  N   UNL     1       1.169  -0.708  -0.013  0.00  0.00    -0.301 N 
ATOM     26  H   UNL     1       1.147  -1.678  -0.018  0.00  0.00    +0.171 HD
ATOM     27  C   UNL     1       0.002  -0.004   0.002  0.00  0.00    +0.170 A 
ATOM     28  N   UNL     1      -0.016   1.313   0.009  0.00  0.00    -0.219 NA
BRANCH  21  31
ATOM     29  C   UNL     1       0.360   5.599   0.027  0.00  0.00    +0.042 A 
ATOM     30  C   UNL     1      -0.061   4.259   0.019  0.00  0.00    +0.051 A 
ATOM     31  C   UNL     1       1.069   3.493   0.010  0.00  0.00    +0.154 A 
ATOM     32  O   UNL     1       2.134   4.321   0.004  0.00  0.00    -0.461 OA
ATOM     33  C   UNL     1       1.710   5.592   0.014  0.00  0.00    +0.196 A 
ENDBRANCH  21  31
BRANCH  22  34
ATOM     34  C   UNL     1       3.590   2.084  -0.021  0.00  0.00    +0.107 C 
ATOM     35  N   UNL     1       4.566   2.665  -0.027  0.00  0.00    -0.191 NA
ENDBRANCH  22  34
ENDBRANCH  20  27
ENDBRANCH  19  20
ENDBRANCH   1  19
TORSDOF 7
