REMARK  Name = ZINC42860070
REMARK  5 active torsions:
REMARK  status: ('A' for Active; 'I' for Inactive)
REMARK    1  A    between atoms: C_1  and  C_2
REMARK    2  A    between atoms: C_8  and  C_10
REMARK    3  A    between atoms: C_10  and  N_11
REMARK    4  A    between atoms: N_11  and  C_12
REMARK    5  A    between atoms: C_17  and  N_18
REMARK                            x       y       z     vdW  Elec       q    Type
REMARK                         _______ _______ _______ _____ _____    ______ ____
ROOT
ATOM      1  C   UNL     1       0.342  -0.059   4.956  0.00  0.00    +0.050 A 
ATOM      2  C   UNL     1      -0.845   0.638   5.093  0.00  0.00    +0.053 A 
ATOM      3  C   UNL     1      -1.302   0.980   6.365  0.00  0.00    +0.080 A 
ATOM      4  C   UNL     1      -0.546   0.610   7.501  0.00  0.00    +0.067 A 
ATOM      5  C   UNL     1       0.650  -0.093   7.350  0.00  0.00    +0.040 A 
ATOM      6  C   UNL     1       1.087  -0.429   6.084  0.00  0.00    +0.047 A 
ATOM      7  C   UNL     1      -1.059   0.988   8.823  0.00  0.00    +0.259 A 
ATOM      8  O   UNL     1      -0.456   0.700   9.841  0.00  0.00    -0.267 OA
ATOM      9  N   UNL     1      -2.228   1.669   8.868  0.00  0.00    -0.313 N 
ATOM     10  H   UNL     1      -2.596   1.935   9.725  0.00  0.00    +0.170 HD
ATOM     11  C   UNL     1      -2.890   1.985   7.724  0.00  0.00    +0.199 A 
ATOM     12  N   UNL     1      -2.462   1.664   6.541  0.00  0.00    -0.237 NA
ENDROOT
BRANCH   6  13
ATOM     13  N   UNL     1       2.284  -1.139   5.927  0.00  0.00    -0.357 N 
ATOM     14  H   UNL     1       2.595  -1.374   5.039  0.00  0.00    +0.142 HD
ATOM     15  H   UNL     1       2.801  -1.397   6.706  0.00  0.00    +0.142 HD
ENDBRANCH   6  13
BRANCH   1  16
ATOM     16  N   UNL     1       0.799  -0.401   3.684  0.00  0.00    -0.342 N 
ATOM     17  H   UNL     1       1.629  -0.893   3.583  0.00  0.00    +0.146 HD
BRANCH  16  18
ATOM     18  C   UNL     1       0.026  -0.018   2.500  0.00  0.00    +0.105 C 
BRANCH  18  25
ATOM     19  C   UNL     1      -0.019   1.526   0.010  0.00  0.00    +0.008 C 
ATOM     20  C   UNL     1       0.002  -0.004   0.002  0.00  0.00    -0.010 C 
ATOM     21  C   UNL     1       0.718  -0.497  -1.257  0.00  0.00    +0.003 C 
ATOM     22  C   UNL     1       0.739  -2.027  -1.265  0.00  0.00    +0.000 C 
ATOM     23  C   UNL     1       1.479  -2.534  -0.026  0.00  0.00    +0.000 C 
ATOM     24  C   UNL     1       0.763  -2.041   1.233  0.00  0.00    +0.005 C 
ATOM     25  C   UNL     1       0.742  -0.511   1.242  0.00  0.00    +0.009 C 
ENDBRANCH  18  25
ENDBRANCH  16  18
ENDBRANCH   1  16
TORSDOF 4
