REMARK  Name = ZINC34701675
REMARK  9 active torsions:
REMARK  status: ('A' for Active; 'I' for Inactive)
REMARK    1  A    between atoms: C_1  and  C_2
REMARK    2  A    between atoms: C_2  and  C_3
REMARK    3  A    between atoms: C_6  and  N_9
REMARK    4  A    between atoms: N_9  and  C_10
REMARK    5  A    between atoms: C_16  and  C_17
REMARK    6  A    between atoms: C_19  and  N_26
REMARK    7  A    between atoms: C_21  and  O_24
REMARK    8  A    between atoms: C_22  and  O_23
REMARK    9  A    between atoms: O_24  and  C_25
REMARK                            x       y       z     vdW  Elec       q    Type
REMARK                         _______ _______ _______ _____ _____    ______ ____
ROOT
ATOM      1  C   UNL     1       4.476  -1.925  -4.569  0.00  0.00    +0.224 C 
ATOM      2  N   UNL     1       4.952  -2.151  -5.944  0.00  0.00    -0.284 N 
ATOM      3  C   UNL     1       5.397  -3.354  -6.259  0.00  0.00    +0.252 C 
ATOM      4  O   UNL     1       5.800  -3.585  -7.383  0.00  0.00    -0.270 OA
ATOM      5  C   UNL     1       5.401  -4.413  -5.235  0.00  0.00    +0.074 C 
ATOM      6  C   UNL     1       5.810  -5.700  -5.349  0.00  0.00    +0.031 C 
ATOM      7  S   UNL     1       4.731  -3.577  -3.804  0.00  0.00    -0.078 S 
ATOM      8  H   UNL     1       4.939  -1.436  -6.600  0.00  0.00    +0.152 HD
ENDROOT
BRANCH   6   9
ATOM      9  C   UNL     1       5.891  -6.553  -4.156  0.00  0.00    +0.023 A 
ATOM     10  C   UNL     1       5.929  -5.978  -2.880  0.00  0.00    +0.044 A 
ATOM     11  C   UNL     1       6.005  -6.783  -1.764  0.00  0.00    +0.130 A 
ATOM     12  C   UNL     1       6.044  -8.161  -1.897  0.00  0.00    +0.082 A 
ATOM     13  C   UNL     1       6.008  -8.746  -3.153  0.00  0.00    +0.164 A 
ATOM     14  C   UNL     1       5.926  -7.949  -4.288  0.00  0.00    +0.166 A 
BRANCH  11  15
ATOM     15  N   UNL     1       6.044  -6.172  -0.417  0.00  0.00    +0.057 N 
ATOM     16  O   UNL     1       6.010  -4.969  -0.297  0.00  0.00    -0.126 OA
ATOM     17  O   UNL     1       6.111  -6.875   0.565  0.00  0.00    -0.126 OA
ENDBRANCH  11  15
BRANCH  14  18
ATOM     18  O   UNL     1       5.884  -8.519  -5.521  0.00  0.00    -0.503 OA
ATOM     19  H   UNL     1       6.754  -8.658  -5.919  0.00  0.00    +0.292 HD
ENDBRANCH  14  18
BRANCH  13  20
ATOM     20  O   UNL     1       6.047 -10.100  -3.274  0.00  0.00    -0.491 OA
ATOM     21  C   UNL     1       6.126 -10.857  -2.065  0.00  0.00    +0.277 C 
ENDBRANCH  13  20
ENDBRANCH   6   9
BRANCH   1  22
ATOM     22  N   UNL     1       3.059  -1.556  -4.560  0.00  0.00    -0.317 N 
ATOM     23  H   UNL     1       2.526  -1.657  -5.364  0.00  0.00    +0.149 HD
BRANCH  22  27
ATOM     24  C   UNL     1       1.317  -0.072  -1.081  0.00  0.00    -0.048 A 
ATOM     25  C   UNL     1       0.555  -0.216  -2.227  0.00  0.00    +0.005 A 
ATOM     26  C   UNL     1       1.130  -0.707  -3.382  0.00  0.00    +0.023 A 
ATOM     27  C   UNL     1       2.474  -1.058  -3.393  0.00  0.00    +0.029 A 
ATOM     28  C   UNL     1       3.236  -0.912  -2.240  0.00  0.00    +0.023 A 
ATOM     29  C   UNL     1       2.656  -0.414  -1.090  0.00  0.00    +0.005 A 
BRANCH  24  31
ATOM     30  C   UNL     1       0.813   1.990   0.202  0.00  0.00    +0.009 C 
ATOM     31  C   UNL     1       0.686   0.465   0.178  0.00  0.00    +0.032 C 
ENDBRANCH  24  31
ENDBRANCH  22  27
ENDBRANCH   1  22
TORSDOF 7
