REMARK  Name = ZINC12698261
REMARK  4 active torsions:
REMARK  status: ('A' for Active; 'I' for Inactive)
REMARK    1  A    between atoms: C_1  and  C_2
REMARK    2  A    between atoms: C_6  and  C_15
REMARK    3  A    between atoms: N_17  and  N_18
REMARK    4  A    between atoms: C_19  and  C_21
REMARK                            x       y       z     vdW  Elec       q    Type
REMARK                         _______ _______ _______ _____ _____    ______ ____
ROOT
ATOM      1  C   UNL     1       3.475   1.381  -0.774  0.00  0.00    +0.271 C 
ATOM      2  O   UNL     1       3.367   2.578  -0.940  0.00  0.00    -0.270 OA
ATOM      3  N   UNL     1       2.378   0.598  -0.784  0.00  0.00    -0.231 N 
ATOM      4  H   UNL     1       2.464  -0.359  -0.652  0.00  0.00    +0.173 HD
ENDROOT
BRANCH   1  10
ATOM      5  C   UNL     1       5.316  -2.285   2.271  0.00  0.00    +0.109 C 
ATOM      6  C   UNL     1       6.474  -1.551   1.644  0.00  0.00    +0.217 C 
ATOM      7  O   UNL     1       7.588  -2.028   1.686  0.00  0.00    -0.276 OA
ATOM      8  N   UNL     1       6.271  -0.365   1.038  0.00  0.00    -0.264 N 
ATOM      9  C   UNL     1       4.912   0.175   0.856  0.00  0.00    +0.168 C 
ATOM     10  C   UNL     1       4.835   0.770  -0.557  0.00  0.00    +0.278 C 
ATOM     11  O   UNL     1       5.840   1.778  -0.689  0.00  0.00    -0.476 OA
ATOM     12  C   UNL     1       7.106   1.463  -0.310  0.00  0.00    +0.143 A 
ATOM     13  C   UNL     1       7.347   0.399   0.556  0.00  0.00    +0.078 A 
ATOM     14  C   UNL     1       8.643   0.094   0.940  0.00  0.00    +0.027 A 
ATOM     15  C   UNL     1       9.699   0.847   0.461  0.00  0.00    +0.002 A 
ATOM     16  C   UNL     1       9.463   1.902  -0.400  0.00  0.00    +0.004 A 
ATOM     17  C   UNL     1       8.172   2.212  -0.786  0.00  0.00    +0.047 A 
ENDBRANCH   1  10
BRANCH   3  18
ATOM     18  N   UNL     1       1.113   1.166  -0.986  0.00  0.00    -0.230 N 
ATOM     19  C   UNL     1       0.016   0.383  -0.996  0.00  0.00    +0.267 C 
ATOM     20  O   UNL     1       0.124  -0.818  -0.830  0.00  0.00    -0.268 OA
ATOM     21  H   UNL     1       1.027   2.123  -1.119  0.00  0.00    +0.173 HD
BRANCH  19  22
ATOM     22  C   UNL     1      -1.306   0.977  -1.213  0.00  0.00    +0.076 A 
ATOM     23  C   UNL     1      -2.538   0.363  -1.271  0.00  0.00    +0.024 A 
ATOM     24  C   UNL     1      -3.667   1.160  -1.475  0.00  0.00    -0.036 A 
ATOM     25  C   UNL     1      -3.459   2.477  -1.670  0.00  0.00    -0.006 A 
ATOM     26  S   UNL     1      -1.745   2.683  -1.481  0.00  0.00    -0.088 S 
ATOM     27  C   UNL     1      -4.375   3.612  -2.049  0.00  0.00    +0.043 C 
ATOM     28  C   UNL     1      -5.816   3.148  -2.264  0.00  0.00    +0.005 C 
ATOM     29  C   UNL     1      -6.531   2.976  -0.934  0.00  0.00    +0.000 C 
ATOM     30  C   UNL     1      -5.633   2.405   0.145  0.00  0.00    +0.000 C 
ATOM     31  C   UNL     1      -5.652   0.881  -0.016  0.00  0.00    +0.005 C 
ATOM     32  C   UNL     1      -5.044   0.519  -1.371  0.00  0.00    +0.036 C 
ENDBRANCH  19  22
ENDBRANCH   3  18
TORSDOF 3
