REMARK  Name = ZINC32071516
REMARK  11 active torsions:
REMARK  status: ('A' for Active; 'I' for Inactive)
REMARK    1  A    between atoms: C_1  and  C_2
REMARK    2  A    between atoms: C_2  and  N_3
REMARK    3  A    between atoms: N_3  and  C_4
REMARK    4  A    between atoms: N_3  and  C_16
REMARK    5  A    between atoms: C_4  and  C_6
REMARK    6  A    between atoms: C_4  and  C_8
REMARK    7  A    between atoms: C_6  and  N_7
REMARK    8  A    between atoms: C_11  and  O_15
REMARK    9  A    between atoms: C_16  and  C_17
REMARK   10  A    between atoms: C_16  and  C_18
REMARK   11  A    between atoms: C_16  and  C_19
REMARK                            x       y       z     vdW  Elec       q    Type
REMARK                         _______ _______ _______ _____ _____    ______ ____
ROOT
ATOM      1  C   UNL     1      -1.427  -1.867  -0.410  0.00  0.00    +0.070 C 
ENDROOT
BRANCH   1   2
ATOM      2  C   UNL     1      -2.751  -2.518  -0.719  0.00  0.00    -0.031 A 
ATOM      3  C   UNL     1      -3.887  -2.132  -0.032  0.00  0.00    +0.009 A 
ATOM      4  C   UNL     1      -5.101  -2.728  -0.312  0.00  0.00    +0.047 A 
ATOM      5  C   UNL     1      -5.181  -3.714  -1.285  0.00  0.00    +0.131 A 
ATOM      6  C   UNL     1      -4.039  -4.099  -1.974  0.00  0.00    +0.060 A 
ATOM      7  C   UNL     1      -2.828  -3.496  -1.693  0.00  0.00    +0.024 A 
ATOM      8 BR   UNL     1      -4.143  -5.443  -3.300  0.00  0.00    -0.047 Br
BRANCH   5   9
ATOM      9  O   UNL     1      -6.375  -4.302  -1.562  0.00  0.00    -0.506 OA
ATOM     10  H   UNL     1      -6.881  -3.855  -2.254  0.00  0.00    +0.292 HD
ENDBRANCH   5   9
ENDBRANCH   1   2
BRANCH   1  11
ATOM     11  N   UNL     1      -1.317  -0.605  -1.155  0.00  0.00    -0.293 NA
BRANCH  11  12
ATOM     12  C   UNL     1      -0.875  -0.846  -2.535  0.00  0.00    +0.014 C 
ATOM     13  C   UNL     1      -0.099   0.372  -3.041  0.00  0.00    +0.027 C 
ATOM     14  C   UNL     1       0.030  -2.079  -2.573  0.00  0.00    +0.027 C 
ATOM     15  C   UNL     1      -2.095  -1.080  -3.428  0.00  0.00    +0.027 C 
ENDBRANCH  11  12
BRANCH  11  17
ATOM     16  C   UNL     1      -2.333   1.595  -1.508  0.00  0.00    +0.020 C 
ATOM     17  C   UNL     1      -2.586   0.134  -1.130  0.00  0.00    +0.082 C 
ENDBRANCH  11  17
ENDBRANCH   1  11
BRANCH   1  18
ATOM     18  C   UNL     1      -1.336  -1.583   1.091  0.00  0.00    -0.063 C 
BRANCH  18  19
ATOM     19  N   UNL     1      -0.043  -0.954   1.393  0.00  0.00    +0.379 N 
ATOM     20  H   UNL     1       0.052  -0.843   2.391  0.00  0.00    -0.090 HD
ATOM     21  H   UNL     1       0.704  -1.538   1.047  0.00  0.00    -0.090 HD
ATOM     22  H   UNL     1       0.003  -0.050   0.948  0.00  0.00    -0.090 HD
ENDBRANCH  18  19
ENDBRANCH   1  18
TORSDOF 7
