REMARK  Name = ZINC20508821
REMARK  3 active torsions:
REMARK  status: ('A' for Active; 'I' for Inactive)
REMARK    1  A    between atoms: C_4  and  C_7
REMARK    2  A    between atoms: C_13  and  C_29
REMARK    3  A    between atoms: C_14  and  C_23
REMARK                            x       y       z     vdW  Elec       q    Type
REMARK                         _______ _______ _______ _____ _____    ______ ____
ROOT
ATOM      1  C   UNL     1       5.338   6.706   0.364  0.00  0.00    +0.041 C 
ATOM      2  C   UNL     1       4.547   5.995  -0.479  0.00  0.00    +0.138 A 
ATOM      3  C   UNL     1       4.775   5.738  -1.907  0.00  0.00    +0.363 A 
ATOM      4  O   UNL     1       5.717   6.123  -2.574  0.00  0.00    -0.243 OA
ATOM      5  O   UNL     1       3.739   4.994  -2.334  0.00  0.00    -0.403 OA
ATOM      6  C   UNL     1       2.882   4.759  -1.313  0.00  0.00    +0.227 A 
ATOM      7  C   UNL     1       1.712   4.049  -1.327  0.00  0.00    +0.103 C 
ATOM      8  C   UNL     1       0.925   3.929  -0.040  0.00  0.00    +0.119 C 
ATOM      9  C   UNL     1       1.500   4.612   1.178  0.00  0.00    +0.119 A 
ATOM     10  C   UNL     1       2.663   5.280   1.051  0.00  0.00    +0.235 A 
ATOM     11  O   UNL     1       2.953   5.792   2.270  0.00  0.00    -0.408 OA
ATOM     12  C   UNL     1       1.971   5.432   3.113  0.00  0.00    +0.287 A 
ATOM     13  N   UNL     1       1.091   4.718   2.454  0.00  0.00    -0.197 NA
ATOM     14  N   UNL     1       1.899   5.761   4.455  0.00  0.00    -0.313 N 
ATOM     15  N   UNL     1       3.338   5.350  -0.169  0.00  0.00    -0.241 N 
ATOM     16  H   UNL     1       1.049   5.415   5.062  0.00  0.00    +0.147 HD
ATOM     17  H   UNL     1       2.692   6.368   4.916  0.00  0.00    +0.147 HD
ENDROOT
BRANCH   1  21
ATOM     18  C   UNL     1       8.649   8.873  -1.157  0.00  0.00    +0.000 A 
ATOM     19  C   UNL     1       7.447   8.882  -1.843  0.00  0.00    +0.001 A 
ATOM     20  C   UNL     1       6.365   8.180  -1.355  0.00  0.00    +0.008 A 
ATOM     21  C   UNL     1       6.485   7.457  -0.163  0.00  0.00    -0.023 A 
ATOM     22  C   UNL     1       7.703   7.457   0.527  0.00  0.00    +0.008 A 
ATOM     23  C   UNL     1       8.776   8.160   0.023  0.00  0.00    +0.001 A 
ENDBRANCH   1  21
BRANCH   8  24
ATOM     24  C   UNL     1       0.773   2.463   0.277  0.00  0.00    -0.033 A 
ATOM     25  C   UNL     1      -0.474   1.871   0.229  0.00  0.00    +0.004 A 
ATOM     26  C   UNL     1      -0.613   0.526   0.520  0.00  0.00    +0.000 A 
ATOM     27  C   UNL     1       0.496  -0.226   0.859  0.00  0.00    +0.000 A 
ATOM     28  C   UNL     1       1.744   0.367   0.907  0.00  0.00    +0.000 A 
ATOM     29  C   UNL     1       1.883   1.711   0.615  0.00  0.00    +0.004 A 
ENDBRANCH   8  24
BRANCH   7  30
ATOM     30  C   UNL     1       1.243   3.433  -2.532  0.00  0.00    +0.101 C 
ATOM     31  N   UNL     1       0.872   2.944  -3.488  0.00  0.00    -0.191 NA
ENDBRANCH   7  30
TORSDOF 3
