REMARK  Name = ZINC06605633
REMARK  9 active torsions:
REMARK  status: ('A' for Active; 'I' for Inactive)
REMARK    1  A    between atoms: C_1  and  C_2
REMARK    2  A    between atoms: C_2  and  C_3
REMARK    3  A    between atoms: C_2  and  C_4
REMARK    4  A    between atoms: C_4  and  C_6
REMARK    5  A    between atoms: C_4  and  N_16
REMARK    6  A    between atoms: C_17  and  C_19
REMARK    7  A    between atoms: C_19  and  N_20
REMARK    8  A    between atoms: C_23  and  C_27
REMARK    9  A    between atoms: C_23  and  C_28
REMARK                            x       y       z     vdW  Elec       q    Type
REMARK                         _______ _______ _______ _____ _____    ______ ____
ROOT
ATOM      1  N   UNL     1       5.295   1.306  -0.162  0.00  0.00    -0.304 N 
ATOM      2  C   UNL     1       6.535   1.037   0.292  0.00  0.00    +0.232 C 
ATOM      3  O   UNL     1       7.194   1.914   0.810  0.00  0.00    -0.274 OA
ATOM      4  H   UNL     1       4.768   0.605  -0.576  0.00  0.00    +0.149 HD
ENDROOT
BRANCH   1   5
ATOM      5  C   UNL     1       4.743   2.656  -0.029  0.00  0.00    +0.141 C 
BRANCH   5   6
ATOM      6  C   UNL     1       3.238   2.585  -0.015  0.00  0.00    +0.129 A 
ATOM      7  N   UNL     1       2.512   1.434  -0.014  0.00  0.00    -0.340 N 
ATOM      8  H   UNL     1       2.877   0.503  -0.022  0.00  0.00    +0.167 HD
ATOM      9  C   UNL     1       1.178   1.790   0.000  0.00  0.00    +0.066 A 
ATOM     10  C   UNL     1      -0.013   1.076   0.008  0.00  0.00    +0.028 A 
ATOM     11  C   UNL     1      -1.214   1.752   0.017  0.00  0.00    +0.002 A 
ATOM     12  C   UNL     1      -1.240   3.139   0.031  0.00  0.00    +0.002 A 
ATOM     13  C   UNL     1      -0.078   3.858   0.023  0.00  0.00    +0.030 A 
ATOM     14  C   UNL     1       1.151   3.194   0.008  0.00  0.00    +0.089 A 
ATOM     15  N   UNL     1       2.442   3.615  -0.002  0.00  0.00    -0.231 NA
ENDBRANCH   5   6
BRANCH   5  17
ATOM     16  C   UNL     1       6.730   3.586  -1.225  0.00  0.00    +0.009 C 
ATOM     17  C   UNL     1       5.202   3.513  -1.211  0.00  0.00    +0.011 C 
ATOM     18  C   UNL     1       4.708   2.887  -2.517  0.00  0.00    +0.009 C 
ENDBRANCH   5  17
ENDBRANCH   1   5
BRANCH   2  19
ATOM     19  C   UNL     1       7.103  -0.352   0.155  0.00  0.00    +0.213 C 
BRANCH  19  20
ATOM     20  N   UNL     1       8.454  -0.385   0.720  0.00  0.00    -0.215 N 
ATOM     21  C   UNL     1       8.730  -0.672   2.007  0.00  0.00    +0.251 C 
ATOM     22  O   UNL     1       7.937  -0.941   2.884  0.00  0.00    -0.272 OA
ATOM     23  C   UNL     1      10.239  -0.589   2.131  0.00  0.00    +0.135 C 
ATOM     24  N   UNL     1      10.679  -0.230   0.772  0.00  0.00    -0.281 N 
ATOM     25  C   UNL     1       9.568  -0.139   0.019  0.00  0.00    +0.310 C 
ATOM     26  O   UNL     1       9.574   0.140  -1.163  0.00  0.00    -0.252 OA
ATOM     27  C   UNL     1      10.637   0.496   3.134  0.00  0.00    +0.047 C 
ATOM     28  H   UNL     1      11.592  -0.090   0.477  0.00  0.00    +0.152 HD
BRANCH  23  29
ATOM     29  C   UNL     1      10.812  -1.921   2.540  0.00  0.00    -0.016 A 
ATOM     30  C   UNL     1      10.066  -2.783   3.323  0.00  0.00    +0.006 A 
ATOM     31  C   UNL     1      10.590  -4.008   3.694  0.00  0.00    +0.000 A 
ATOM     32  C   UNL     1      11.863  -4.366   3.290  0.00  0.00    +0.000 A 
ATOM     33  C   UNL     1      12.610  -3.502   2.512  0.00  0.00    +0.000 A 
ATOM     34  C   UNL     1      12.084  -2.280   2.137  0.00  0.00    +0.006 A 
ENDBRANCH  23  29
ENDBRANCH  19  20
ENDBRANCH   2  19
TORSDOF 6
