REMARK  Name = ZINC39710291
REMARK  13 active torsions:
REMARK  status: ('A' for Active; 'I' for Inactive)
REMARK    1  A    between atoms: C_1  and  C_2
REMARK    2  A    between atoms: C_2  and  C_3
REMARK    3  A    between atoms: C_3  and  C_4
REMARK    4  A    between atoms: C_3  and  C_5
REMARK    5  A    between atoms: C_3  and  N_6
REMARK    6  A    between atoms: C_7  and  C_12
REMARK    7  A    between atoms: C_12  and  C_14
REMARK    8  A    between atoms: C_12  and  N_27
REMARK    9  A    between atoms: C_19  and  C_26
REMARK   10  A    between atoms: N_27  and  C_28
REMARK   11  A    between atoms: N_27  and  C_36
REMARK   12  A    between atoms: C_28  and  C_29
REMARK   13  A    between atoms: C_36  and  C_37
REMARK                            x       y       z     vdW  Elec       q    Type
REMARK                         _______ _______ _______ _____ _____    ______ ____
ROOT
ATOM      1  C   UNL     1       2.579  -3.423  -2.126  0.00  0.00    -0.008 C 
ENDROOT
BRANCH   1   2
ATOM      2  C   UNL     1       2.082  -4.656  -1.367  0.00  0.00    +0.088 C 
ATOM      3  C   UNL     1       1.272  -4.175  -0.179  0.00  0.00    -0.006 C 
ATOM      4  C   UNL     1       1.681  -4.575   1.059  0.00  0.00    -0.007 A 
ATOM      5  C   UNL     1       0.957  -4.157   2.260  0.00  0.00    +0.012 A 
ATOM      6  C   UNL     1       1.400  -4.580   3.472  0.00  0.00    -0.050 A 
ATOM      7  C   UNL     1       2.524  -5.398   3.589  0.00  0.00    +0.005 A 
ATOM      8  C   UNL     1       3.239  -5.820   2.514  0.00  0.00    +0.024 A 
ATOM      9  C   UNL     1       2.864  -5.439   1.213  0.00  0.00    +0.040 A 
ATOM     10  N   UNL     1       3.573  -5.860   0.165  0.00  0.00    -0.285 N 
ATOM     11  C   UNL     1       3.276  -5.538  -1.082  0.00  0.00    +0.223 C 
ATOM     12  O   UNL     1       3.962  -5.952  -1.998  0.00  0.00    -0.275 OA
ATOM     13  C   UNL     1       0.663  -4.156   4.716  0.00  0.00    +0.044 C 
ATOM     14  H   UNL     1       4.343  -6.428   0.326  0.00  0.00    +0.155 HD
ENDBRANCH   1   2
BRANCH   1  16
ATOM     15  N   UNL     1       0.771  -1.954  -1.304  0.00  0.00    -0.182 NA
ATOM     16  C   UNL     1       1.387  -2.546  -2.510  0.00  0.00    +0.205 C 
ATOM     17  N   UNL     1       0.319  -3.360  -3.107  0.00  0.00    -0.152 NA
ATOM     18  N   UNL     1      -0.692  -3.266  -2.408  0.00  0.00    -0.070 NA
ATOM     19  N   UNL     1      -0.511  -2.439  -1.300  0.00  0.00    -0.179 N 
ATOM     20  H   UNL     1      -1.185  -2.239  -0.632  0.00  0.00    +0.191 HD
BRANCH  15  21
ATOM     21  C   UNL     1       0.779  -0.487  -1.374  0.00  0.00    +0.037 C 
ATOM     22  C   UNL     1       0.082  -0.034  -2.659  0.00  0.00    +0.029 C 
ATOM     23  C   UNL     1       2.224   0.016  -1.373  0.00  0.00    +0.029 C 
BRANCH  21  25
ATOM     24  C   UNL     1       0.046   1.614  -0.237  0.00  0.00    +0.006 C 
ATOM     25  C   UNL     1       0.038   0.086  -0.164  0.00  0.00    +0.020 C 
ENDBRANCH  21  25
ENDBRANCH  15  21
ENDBRANCH   1  16
BRANCH   1  26
ATOM     26  N   UNL     1       3.287  -3.849  -3.341  0.00  0.00    +0.392 N 
ATOM     27  H   UNL     1       3.992  -4.528  -3.099  0.00  0.00    -0.080 HD
BRANCH  26  28
ATOM     28  C   UNL     1       2.330  -4.449  -4.280  0.00  0.00    -0.040 C 
BRANCH  28  29
ATOM     29  C   UNL     1       3.054  -4.878  -5.529  0.00  0.00    -0.046 A 
ATOM     30  C   UNL     1       3.016  -4.082  -6.659  0.00  0.00    +0.003 A 
ATOM     31  C   UNL     1       3.680  -4.476  -7.805  0.00  0.00    +0.000 A 
ATOM     32  C   UNL     1       4.383  -5.666  -7.823  0.00  0.00    +0.001 A 
ATOM     33  C   UNL     1       4.422  -6.463  -6.695  0.00  0.00    +0.020 A 
ATOM     34  C   UNL     1       3.762  -6.067  -5.545  0.00  0.00    +0.042 A 
ATOM     35 CL   UNL     1       3.816  -7.064  -4.125  0.00  0.00    -0.083 Cl
ENDBRANCH  28  29
ENDBRANCH  26  28
BRANCH  26  36
ATOM     36  C   UNL     1       3.924  -2.684  -3.969  0.00  0.00    -0.002 C 
BRANCH  36  37
ATOM     37  C   UNL     1       5.012  -2.159  -3.068  0.00  0.00    +0.089 A 
ATOM     38  C   UNL     1       6.318  -2.473  -3.147  0.00  0.00    +0.042 A 
ATOM     39  C   UNL     1       6.973  -1.761  -2.116  0.00  0.00    +0.041 A 
ATOM     40  C   UNL     1       6.029  -1.054  -1.469  0.00  0.00    +0.195 A 
ATOM     41  O   UNL     1       4.844  -1.295  -2.054  0.00  0.00    -0.470 OA
ENDBRANCH  36  37
ENDBRANCH  26  36
ENDBRANCH   1  26
TORSDOF 9
