REMARK  Name = ZINC63806840
REMARK  9 active torsions:
REMARK  status: ('A' for Active; 'I' for Inactive)
REMARK    1  A    between atoms: C_1  and  O_2
REMARK    2  A    between atoms: O_2  and  C_3
REMARK    3  A    between atoms: C_6  and  S_24
REMARK    4  A    between atoms: C_8  and  N_9
REMARK    5  A    between atoms: C_10  and  C_12
REMARK    6  A    between atoms: C_12  and  C_13
REMARK    7  A    between atoms: C_13  and  C_14
REMARK    8  A    between atoms: C_14  and  C_15
REMARK    9  A    between atoms: S_24  and  N_27
REMARK                            x       y       z     vdW  Elec       q    Type
REMARK                         _______ _______ _______ _____ _____    ______ ____
ROOT
ATOM      1  C   UNL     1      -1.211  -0.643  -0.006  0.00  0.00    +0.141 A 
ATOM      2  C   UNL     1      -2.388   0.088  -0.006  0.00  0.00    +0.049 A 
ATOM      3  C   UNL     1      -3.607  -0.563  -0.001  0.00  0.00    +0.032 A 
ATOM      4  C   UNL     1      -3.657  -1.945   0.004  0.00  0.00    +0.107 A 
ATOM      5  C   UNL     1      -2.488  -2.682   0.004  0.00  0.00    +0.055 A 
ATOM      6  C   UNL     1      -1.261  -2.035  -0.006  0.00  0.00    +0.077 A 
ENDROOT
BRANCH   6   7
ATOM      7  N   UNL     1      -0.074  -2.780  -0.012  0.00  0.00    -0.283 N 
ATOM      8  C   UNL     1      -0.009  -3.950   0.655  0.00  0.00    +0.217 C 
ATOM      9  O   UNL     1      -1.000  -4.397   1.192  0.00  0.00    -0.275 OA
ATOM     10  H   UNL     1       0.701  -2.454  -0.495  0.00  0.00    +0.155 HD
BRANCH   8  11
ATOM     11  C   UNL     1       1.294  -4.701   0.734  0.00  0.00    +0.096 C 
BRANCH  11  12
ATOM     12  C   UNL     1       1.095  -5.986   1.541  0.00  0.00    +0.014 C 
BRANCH  12  13
ATOM     13  C   UNL     1       2.419  -6.749   1.621  0.00  0.00    +0.033 C 
BRANCH  13  14
ATOM     14  C   UNL     1       2.222  -8.014   2.416  0.00  0.00    -0.042 C 
ATOM     15  C   UNL     1       1.961  -9.248   1.929  0.00  0.00    -0.001 A 
ATOM     16  C   UNL     1       1.788  -9.763   0.565  0.00  0.00    +0.010 A 
ATOM     17  C   UNL     1       1.529 -11.079   0.388  0.00  0.00    +0.001 A 
ATOM     18  C   UNL     1       1.421 -11.960   1.472  0.00  0.00    +0.002 A 
ATOM     19  C   UNL     1       1.567 -11.562   2.754  0.00  0.00    +0.026 A 
ATOM     20  C   UNL     1       1.843 -10.200   3.056  0.00  0.00    +0.043 A 
ATOM     21  N   UNL     1       2.023  -9.578   4.196  0.00  0.00    -0.380 N 
ATOM     22  C   UNL     1       2.283  -8.161   3.920  0.00  0.00    +0.144 C 
ATOM     23  H   UNL     1       1.994  -9.988   5.075  0.00  0.00    +0.160 HD
ENDBRANCH  13  14
ENDBRANCH  12  13
ENDBRANCH  11  12
ENDBRANCH   8  11
ENDBRANCH   6   7
BRANCH   4  24
ATOM     24  S   UNL     1      -5.215  -2.768   0.012  0.00  0.00    +0.061 S 
ATOM     25  O   UNL     1      -4.990  -4.057   0.567  0.00  0.00    -0.153 OA
ATOM     26  O   UNL     1      -6.154  -1.855   0.562  0.00  0.00    -0.153 OA
BRANCH  24  27
ATOM     27  N   UNL     1      -5.652  -3.003  -1.568  0.00  0.00    -0.177 NA
ATOM     28  C   UNL     1      -6.423  -1.977  -2.233  0.00  0.00    +0.109 C 
ATOM     29  C   UNL     1      -7.934  -2.241  -2.019  0.00  0.00    +0.017 C 
ATOM     30  C   UNL     1      -8.362  -3.414  -2.797  0.00  0.00    +0.001 C 
ATOM     31  C   UNL     1      -7.689  -4.720  -2.388  0.00  0.00    +0.001 C 
ATOM     32  C   UNL     1      -6.366  -4.846  -3.103  0.00  0.00    +0.017 C 
ATOM     33  C   UNL     1      -5.234  -4.248  -2.241  0.00  0.00    +0.109 C 
ENDBRANCH  24  27
ENDBRANCH   4  24
BRANCH   1  35
ATOM     34  C   UNL     1      -0.037   1.425  -0.011  0.00  0.00    +0.277 C 
ATOM     35  O   UNL     1      -0.011  -0.004  -0.011  0.00  0.00    -0.493 OA
ENDBRANCH   1  35
TORSDOF 8
