REMARK  Name = ZINC59106104
REMARK  10 active torsions:
REMARK  status: ('A' for Active; 'I' for Inactive)
REMARK    1  A    between atoms: C_1  and  O_2
REMARK    2  A    between atoms: O_2  and  C_3
REMARK    3  A    between atoms: C_5  and  C_23
REMARK    4  A    between atoms: C_7  and  C_20
REMARK    5  A    between atoms: C_8  and  O_9
REMARK    6  A    between atoms: O_9  and  C_10
REMARK    7  A    between atoms: C_10  and  C_11
REMARK    8  A    between atoms: C_15  and  N_17
REMARK    9  A    between atoms: C_20  and  C_21
REMARK   10  A    between atoms: N_29  and  C_30
REMARK                            x       y       z     vdW  Elec       q    Type
REMARK                         _______ _______ _______ _____ _____    ______ ____
ROOT
ATOM      1  C   UNL     1       0.223  -1.087  -1.796  0.00  0.00    +0.162 A 
ATOM      2  C   UNL     1       1.135  -0.375  -2.550  0.00  0.00    +0.057 A 
ATOM      3  C   UNL     1       1.827  -1.010  -3.588  0.00  0.00    -0.020 A 
ATOM      4  C   UNL     1       1.590  -2.364  -3.855  0.00  0.00    +0.015 A 
ATOM      5  C   UNL     1       0.679  -3.066  -3.098  0.00  0.00    +0.002 A 
ATOM      6  C   UNL     1      -0.003  -2.436  -2.065  0.00  0.00    +0.166 A 
ENDROOT
BRANCH   3   7
ATOM      7  C   UNL     1       2.798  -0.259  -4.394  0.00  0.00    +0.028 C 
ATOM      8  C   UNL     1       3.988  -0.823  -4.722  0.00  0.00    +0.078 C 
ATOM      9  C   UNL     1       4.580  -2.094  -4.264  0.00  0.00    +0.256 C 
ATOM     10  O   UNL     1       4.000  -2.819  -3.476  0.00  0.00    -0.269 OA
ATOM     11  N   UNL     1       5.769  -2.412  -4.748  0.00  0.00    -0.260 N 
ATOM     12  C   UNL     1       6.409  -1.578  -5.639  0.00  0.00    +0.166 C 
ATOM     13  N   UNL     1       7.581  -1.740  -6.212  0.00  0.00    -0.226 NA
ATOM     14  S   UNL     1       5.256  -0.229  -5.833  0.00  0.00    -0.049 S 
ATOM     15  H   UNL     1       6.194  -3.239  -4.473  0.00  0.00    +0.157 HD
BRANCH  13  16
ATOM     16  C   UNL     1       8.056  -0.793  -7.079  0.00  0.00    +0.067 A 
ATOM     17  C   UNL     1       7.215  -0.249  -8.052  0.00  0.00    +0.030 A 
ATOM     18  C   UNL     1       7.698   0.705  -8.923  0.00  0.00    +0.040 A 
ATOM     19  C   UNL     1       9.016   1.124  -8.833  0.00  0.00    +0.124 A 
ATOM     20  C   UNL     1       9.855   0.588  -7.870  0.00  0.00    +0.040 A 
ATOM     21  C   UNL     1       9.381  -0.362  -6.990  0.00  0.00    +0.030 A 
ATOM     22  F   UNL     1       9.484   2.059  -9.689  0.00  0.00    -0.205 F 
ENDBRANCH  13  16
ENDBRANCH   3   7
BRANCH   1  24
ATOM     23  C   UNL     1      -0.170   0.910  -0.566  0.00  0.00    +0.277 C 
ATOM     24  O   UNL     1      -0.451  -0.473  -0.786  0.00  0.00    -0.491 OA
ENDBRANCH   1  24
BRANCH   6  25
ATOM     25  O   UNL     1      -0.897  -3.135  -1.319  0.00  0.00    -0.483 OA
BRANCH  25  26
ATOM     26  C   UNL     1      -0.423  -3.691  -0.091  0.00  0.00    +0.264 C 
BRANCH  26  27
ATOM     27  C   UNL     1      -1.573  -4.321   0.653  0.00  0.00    -0.008 A 
ATOM     28  C   UNL     1      -2.315  -3.567   1.543  0.00  0.00    +0.007 A 
ATOM     29  C   UNL     1      -3.370  -4.145   2.225  0.00  0.00    +0.003 A 
ATOM     30  C   UNL     1      -3.682  -5.475   2.017  0.00  0.00    +0.033 A 
ATOM     31  C   UNL     1      -2.940  -6.228   1.127  0.00  0.00    +0.127 A 
ATOM     32  C   UNL     1      -1.888  -5.650   0.441  0.00  0.00    +0.039 A 
BRANCH  31  33
ATOM     33  N   UNL     1      -3.274  -7.653   0.904  0.00  0.00    +0.056 N 
ATOM     34  O   UNL     1      -4.196  -8.158   1.502  0.00  0.00    -0.126 OA
ATOM     35  O   UNL     1      -2.625  -8.312   0.125  0.00  0.00    -0.126 OA
ENDBRANCH  31  33
ENDBRANCH  26  27
ENDBRANCH  25  26
ENDBRANCH   6  25
BRANCH   5  36
ATOM     36  C   UNL     1       0.424  -4.523  -3.387  0.00  0.00    +0.065 C 
BRANCH  36  37
ATOM     37  C   UNL     1      -0.765  -4.653  -4.303  0.00  0.00    -0.030 C 
ATOM     38  C   UNL     1      -0.643  -5.274  -5.451  0.00  0.00    +0.004 C 
ENDBRANCH  36  37
ENDBRANCH   5  36
TORSDOF 9
