REMARK  Name = ZINC12305930
REMARK  7 active torsions:
REMARK  status: ('A' for Active; 'I' for Inactive)
REMARK    1  A    between atoms: C_1  and  C_2
REMARK    2  A    between atoms: C_3  and  C_16
REMARK    3  A    between atoms: C_5  and  C_7
REMARK    4  A    between atoms: C_9  and  O_14
REMARK    5  A    between atoms: O_14  and  C_15
REMARK    6  A    between atoms: C_16  and  N_56
REMARK    7  A    between atoms: C_21  and  C_23
REMARK                            x       y       z     vdW  Elec       q    Type
REMARK                         _______ _______ _______ _____ _____    ______ ____
ROOT
ATOM      1  C   UNL     1      -6.726   1.012   0.684  0.00  0.00    -0.077 C 
ATOM      2  C   UNL     1      -7.304   1.090  -0.731  0.00  0.00    -0.019 C 
ATOM      3  C   UNL     1      -6.865   2.403  -1.385  0.00  0.00    -0.003 C 
ATOM      4  C   UNL     1      -5.335   2.472  -1.396  0.00  0.00    -0.008 C 
ATOM      5  C   UNL     1      -4.814   2.354   0.038  0.00  0.00    -0.001 C 
ATOM      6  N   UNL     1      -5.250   1.059   0.603  0.00  0.00    +0.390 N 
ATOM      7  H   UNL     1      -4.926   0.303  -0.011  0.00  0.00    -0.080 HD
ENDROOT
BRANCH   5   8
ATOM      8  C   UNL     1      -3.308   2.402   0.031  0.00  0.00    +0.095 A 
ATOM      9  N   UNL     1      -2.564   3.541   0.045  0.00  0.00    -0.343 N 
ATOM     10  H   UNL     1      -2.914   4.477   0.062  0.00  0.00    +0.167 HD
ATOM     11  C   UNL     1      -1.236   3.164   0.030  0.00  0.00    +0.066 A 
ATOM     12  C   UNL     1      -0.034   3.859   0.023  0.00  0.00    +0.028 A 
ATOM     13  C   UNL     1       1.156   3.164   0.008  0.00  0.00    +0.002 A 
ATOM     14  C   UNL     1       1.160   1.776   0.001  0.00  0.00    +0.002 A 
ATOM     15  C   UNL     1      -0.013   1.076   0.008  0.00  0.00    +0.030 A 
ATOM     16  C   UNL     1      -1.231   1.759   0.017  0.00  0.00    +0.089 A 
ATOM     17  N   UNL     1      -2.529   1.359   0.021  0.00  0.00    -0.234 NA
ENDBRANCH   5   8
BRANCH   6  18
ATOM     18  C   UNL     1      -4.665   0.872   1.946  0.00  0.00    -0.018 C 
BRANCH  18  21
ATOM     19  C   UNL     1      -3.753  -2.112   1.745  0.00  0.00    +0.088 C 
ATOM     20  C   UNL     1      -4.932  -1.591   2.525  0.00  0.00    +0.124 A 
ATOM     21  C   UNL     1      -5.326  -0.307   2.613  0.00  0.00    +0.066 A 
ATOM     22  N   UNL     1      -6.409  -0.262   3.404  0.00  0.00    -0.216 NA
ATOM     23  C   UNL     1      -6.694  -1.483   3.795  0.00  0.00    +0.230 A 
ATOM     24  O   UNL     1      -5.789  -2.323   3.265  0.00  0.00    -0.440 OA
BRANCH  23  25
ATOM     25  C   UNL     1      -7.817  -1.867   4.675  0.00  0.00    +0.075 A 
ATOM     26  C   UNL     1      -8.008  -3.205   5.023  0.00  0.00    +0.061 A 
ATOM     27  C   UNL     1      -9.062  -3.557   5.848  0.00  0.00    +0.121 A 
ATOM     28  C   UNL     1      -9.927  -2.583   6.328  0.00  0.00    +0.048 A 
ATOM     29  C   UNL     1      -9.741  -1.257   5.985  0.00  0.00    +0.043 A 
ATOM     30  C   UNL     1      -8.688  -0.891   5.166  0.00  0.00    +0.136 A 
ATOM     31  F   UNL     1      -8.506   0.406   4.838  0.00  0.00    -0.205 F 
BRANCH  27  32
ATOM     32  O   UNL     1      -9.250  -4.860   6.189  0.00  0.00    -0.495 OA
ATOM     33  C   UNL     1     -10.358  -5.153   7.043  0.00  0.00    +0.277 C 
ENDBRANCH  27  32
ENDBRANCH  23  25
ENDBRANCH  18  21
ENDBRANCH   6  18
TORSDOF 5
