REMARK  Name = ZINC40066910
REMARK  8 active torsions:
REMARK  status: ('A' for Active; 'I' for Inactive)
REMARK    1  A    between atoms: C_4  and  N_7
REMARK    2  A    between atoms: C_8  and  C_28
REMARK    3  A    between atoms: C_11  and  S_12
REMARK    4  A    between atoms: S_12  and  C_13
REMARK    5  A    between atoms: C_13  and  C_14
REMARK    6  A    between atoms: N_16  and  C_17
REMARK    7  A    between atoms: N_16  and  C_25
REMARK    8  A    between atoms: C_28  and  N_29
REMARK                            x       y       z     vdW  Elec       q    Type
REMARK                         _______ _______ _______ _____ _____    ______ ____
ROOT
ATOM      1  N   UNL     1       3.579  -2.070   0.410  0.00  0.00    -0.276 N 
ATOM      2  C   UNL     1       4.117  -3.008  -0.430  0.00  0.00    +0.122 A 
ATOM      3  N   UNL     1       5.319  -3.269   0.000  0.00  0.00    -0.135 NA
ATOM      4  N   UNL     1       5.578  -2.566   1.045  0.00  0.00    -0.122 NA
ATOM      5  C   UNL     1       4.548  -1.807   1.339  0.00  0.00    +0.197 A 
ENDROOT
BRANCH   1   9
ATOM      6  C   UNL     1      -0.214  -0.356   0.170  0.00  0.00    +0.000 A 
ATOM      7  C   UNL     1       0.910   0.428  -0.014  0.00  0.00    +0.002 A 
ATOM      8  C   UNL     1       2.168  -0.137   0.065  0.00  0.00    +0.026 A 
ATOM      9  C   UNL     1       2.303  -1.493   0.330  0.00  0.00    +0.050 A 
ATOM     10  C   UNL     1       1.173  -2.278   0.514  0.00  0.00    +0.026 A 
ATOM     11  C   UNL     1      -0.083  -1.707   0.434  0.00  0.00    +0.002 A 
ENDBRANCH   1   9
BRANCH   5  12
ATOM     12  S   UNL     1       4.433  -0.669   2.680  0.00  0.00    -0.076 S 
BRANCH  12  13
ATOM     13  C   UNL     1       6.040  -0.807   3.511  0.00  0.00    +0.173 C 
BRANCH  13  14
ATOM     14  C   UNL     1       6.076   0.127   4.692  0.00  0.00    +0.226 C 
ATOM     15  O   UNL     1       5.113   0.819   4.949  0.00  0.00    -0.275 OA
ATOM     16  N   UNL     1       7.178   0.195   5.465  0.00  0.00    -0.293 N 
BRANCH  16  17
ATOM     17  C   UNL     1       7.176   1.021   6.675  0.00  0.00    +0.099 C 
ATOM     18  C   UNL     1       6.067   0.543   7.627  0.00  0.00    +0.046 C 
ATOM     19  C   UNL     1       5.844   1.591   8.745  0.00  0.00    +0.168 C 
ATOM     20  S   UNL     1       6.339   3.163   7.929  0.00  0.00    -0.029 S 
ATOM     21  O   UNL     1       5.184   3.968   7.737  0.00  0.00    -0.174 OA
ATOM     22  O   UNL     1       7.462   3.704   8.611  0.00  0.00    -0.174 OA
ATOM     23  C   UNL     1       6.886   2.502   6.299  0.00  0.00    +0.188 C 
ENDBRANCH  16  17
BRANCH  16  24
ATOM     24  C   UNL     1       8.379  -0.558   5.095  0.00  0.00    +0.077 C 
ATOM     25  C   UNL     1       9.468  -0.718   6.157  0.00  0.00    +0.024 C 
ATOM     26  C   UNL     1       9.690   0.221   4.970  0.00  0.00    +0.024 C 
ENDBRANCH  16  24
ENDBRANCH  13  14
ENDBRANCH  12  13
ENDBRANCH   5  12
BRANCH   2  27
ATOM     27  C   UNL     1       3.444  -3.626  -1.629  0.00  0.00    -0.001 C 
BRANCH  27  28
ATOM     28  N   UNL     1       3.731  -2.818  -2.821  0.00  0.00    +0.384 N 
ATOM     29  C   UNL     1       3.126  -1.489  -2.668  0.00  0.00    -0.078 C 
ATOM     30  C   UNL     1       3.490  -0.617  -3.871  0.00  0.00    -0.019 C 
ATOM     31  C   UNL     1       2.962  -1.274  -5.149  0.00  0.00    -0.004 C 
ATOM     32  C   UNL     1       3.542  -2.688  -5.261  0.00  0.00    -0.019 C 
ATOM     33  C   UNL     1       3.176  -3.483  -4.006  0.00  0.00    -0.078 C 
ATOM     34  H   UNL     1       4.729  -2.720  -2.928  0.00  0.00    -0.081 HD
ENDBRANCH  27  28
ENDBRANCH   2  27
TORSDOF 8
