REMARK  Name = ZINC57234765
REMARK  11 active torsions:
REMARK  status: ('A' for Active; 'I' for Inactive)
REMARK    1  A    between atoms: C_1  and  C_2
REMARK    2  A    between atoms: C_2  and  C_3
REMARK    3  A    between atoms: C_3  and  C_5
REMARK    4  A    between atoms: C_3  and  C_6
REMARK    5  A    between atoms: C_9  and  O_12
REMARK    6  A    between atoms: O_12  and  C_13
REMARK    7  A    between atoms: C_13  and  C_14
REMARK    8  A    between atoms: C_14  and  O_15
REMARK    9  A    between atoms: O_15  and  C_16
REMARK   10  A    between atoms: C_19  and  C_22
REMARK   11  A    between atoms: C_27  and  C_34
REMARK                            x       y       z     vdW  Elec       q    Type
REMARK                         _______ _______ _______ _____ _____    ______ ____
ROOT
ATOM      1  C   UNL     1       0.709 -10.116   3.555  0.00  0.00    +0.121 A 
ATOM      2  C   UNL     1      -0.307 -11.064   3.490  0.00  0.00    +0.046 A 
ATOM      3  C   UNL     1      -0.010 -12.373   3.212  0.00  0.00    +0.011 A 
ATOM      4  C   UNL     1       1.321 -12.756   2.994  0.00  0.00    -0.024 A 
ATOM      5  C   UNL     1       2.341 -11.796   3.062  0.00  0.00    +0.011 A 
ATOM      6  C   UNL     1       2.031 -10.489   3.335  0.00  0.00    +0.046 A 
ENDROOT
BRANCH   4   7
ATOM      7  C   UNL     1       1.645 -14.154   2.698  0.00  0.00    +0.024 C 
ATOM      8  C   UNL     1       0.791 -14.910   1.930  0.00  0.00    +0.082 C 
ATOM      9  C   UNL     1       0.979 -16.379   1.756  0.00  0.00    +0.144 C 
ATOM     10  N   UNL     1       2.155 -16.951   1.707  0.00  0.00    -0.282 NA
ATOM     11  N   UNL     1      -0.228 -17.089   1.652  0.00  0.00    -0.278 N 
ATOM     12  C   UNL     1      -0.346 -18.324   2.060  0.00  0.00    +0.045 C 
ATOM     13  C   UNL     1      -1.712 -18.973   1.891  0.00  0.00    +0.131 C 
ATOM     14  S   UNL     1      -2.533 -17.669   0.875  0.00  0.00    -0.084 S 
ATOM     15  C   UNL     1      -1.305 -16.408   1.139  0.00  0.00    +0.168 C 
ATOM     16  N   UNL     1      -1.401 -15.121   0.909  0.00  0.00    -0.152 NA
ATOM     17  C   UNL     1      -0.374 -14.312   1.233  0.00  0.00    +0.273 C 
ATOM     18  O   UNL     1      -0.400 -13.124   0.956  0.00  0.00    -0.268 OA
ATOM     19  H   UNL     1       2.957 -16.426   1.855  0.00  0.00    +0.188 HD
BRANCH  12  20
ATOM     20  C   UNL     1       0.781 -19.049   2.653  0.00  0.00    -0.004 A 
ATOM     21  C   UNL     1       1.559 -18.447   3.652  0.00  0.00    +0.009 A 
ATOM     22  C   UNL     1       2.617 -19.137   4.204  0.00  0.00    +0.001 A 
ATOM     23  C   UNL     1       2.913 -20.419   3.773  0.00  0.00    +0.000 A 
ATOM     24  C   UNL     1       2.150 -21.021   2.787  0.00  0.00    +0.001 A 
ATOM     25  C   UNL     1       1.084 -20.350   2.228  0.00  0.00    +0.009 A 
ENDBRANCH  12  20
ENDBRANCH   4   7
BRANCH   1  26
ATOM     26  O   UNL     1       0.409  -8.822   3.831  0.00  0.00    -0.489 OA
BRANCH  26  27
ATOM     27  C   UNL     1      -0.968  -8.507   4.047  0.00  0.00    +0.270 C 
BRANCH  27  28
ATOM     28  C   UNL     1      -1.110  -7.013   4.341  0.00  0.00    +0.270 C 
BRANCH  28  29
ATOM     29  O   UNL     1      -0.727  -6.261   3.188  0.00  0.00    -0.489 OA
BRANCH  29  33
ATOM     30  C   UNL     1      -0.935  -2.151   3.474  0.00  0.00    -0.044 A 
ATOM     31  C   UNL     1      -0.509  -2.740   2.298  0.00  0.00    +0.007 A 
ATOM     32  C   UNL     1      -0.438  -4.117   2.200  0.00  0.00    +0.046 A 
ATOM     33  C   UNL     1      -0.795  -4.907   3.282  0.00  0.00    +0.121 A 
ATOM     34  C   UNL     1      -1.222  -4.314   4.461  0.00  0.00    +0.046 A 
ATOM     35  C   UNL     1      -1.286  -2.937   4.556  0.00  0.00    +0.007 A 
BRANCH  30  36
ATOM     36  C   UNL     1      -1.012  -0.650   3.579  0.00  0.00    +0.016 C 
ATOM     37  C   UNL     1       0.376  -0.051   3.340  0.00  0.00    +0.012 C 
BRANCH  36  39
ATOM     38  C   UNL     1      -2.159   1.394   2.715  0.00  0.00    +0.004 C 
ATOM     39  C   UNL     1      -1.986  -0.115   2.528  0.00  0.00    +0.004 C 
ENDBRANCH  36  39
ENDBRANCH  30  36
ENDBRANCH  29  33
ENDBRANCH  28  29
ENDBRANCH  27  28
ENDBRANCH  26  27
ENDBRANCH   1  26
TORSDOF 9
