REMARK  Name = ZINC15968795
REMARK  6 active torsions:
REMARK  status: ('A' for Active; 'I' for Inactive)
REMARK    1  A    between atoms: C_1  and  C_2
REMARK    2  A    between atoms: C_13  and  C_16
REMARK    3  A    between atoms: C_16  and  C_17
REMARK    4  A    between atoms: C_20  and  O_23
REMARK    5  A    between atoms: N_26  and  C_29
REMARK    6  A    between atoms: C_29  and  C_30
REMARK                            x       y       z     vdW  Elec       q    Type
REMARK                         _______ _______ _______ _____ _____    ______ ____
ROOT
ATOM      1  C   UNL     1      -0.018   1.503   0.010  0.00  0.00    +0.044 C 
ATOM      2  C   UNL     1       0.002  -0.004   0.002  0.00  0.00    -0.050 A 
ATOM      3  C   UNL     1       0.006  -0.691  -1.198  0.00  0.00    +0.005 A 
ATOM      4  C   UNL     1       0.024  -2.070  -1.212  0.00  0.00    +0.024 A 
ATOM      5  C   UNL     1       0.040  -2.783  -0.015  0.00  0.00    +0.039 A 
ATOM      6  C   UNL     1       0.036  -2.081   1.186  0.00  0.00    +0.004 A 
ATOM      7  C   UNL     1       0.023  -0.704   1.195  0.00  0.00    +0.011 A 
ATOM      8  C   UNL     1       0.057  -3.122   2.269  0.00  0.00    +0.136 C 
ATOM      9  C   UNL     1      -1.165  -3.000   3.188  0.00  0.00    +0.122 C 
ATOM     10  C   UNL     1      -0.630  -3.365   4.601  0.00  0.00    +0.107 C 
ATOM     11  C   UNL     1       0.859  -3.705   4.386  0.00  0.00    +0.072 C 
ATOM     12  N   UNL     1       1.236  -2.971   3.141  0.00  0.00    -0.295 NA
ATOM     13  C   UNL     1      -0.757  -2.069   5.368  0.00  0.00    +0.227 C 
ATOM     14  O   UNL     1      -0.434  -1.905   6.525  0.00  0.00    -0.275 OA
ATOM     15  N   UNL     1      -1.281  -1.130   4.571  0.00  0.00    -0.237 N 
ATOM     16  C   UNL     1      -1.562  -1.546   3.315  0.00  0.00    +0.229 C 
ATOM     17  O   UNL     1      -2.047  -0.873   2.431  0.00  0.00    -0.275 OA
ATOM     18  C   UNL     1       0.072  -4.440   1.545  0.00  0.00    +0.243 C 
ATOM     19  O   UNL     1       0.091  -5.543   2.049  0.00  0.00    -0.273 OA
ATOM     20  N   UNL     1       0.060  -4.157   0.228  0.00  0.00    -0.283 N 
ATOM     21  H   UNL     1       2.054  -3.383   2.717  0.00  0.00    +0.124 HD
ATOM     22  H   UNL     1       0.064  -4.831  -0.470  0.00  0.00    +0.155 HD
ENDROOT
BRANCH  11  23
ATOM     23  C   UNL     1       1.696  -3.198   5.562  0.00  0.00    +0.054 C 
BRANCH  23  24
ATOM     24  C   UNL     1       3.125  -3.646   5.392  0.00  0.00    -0.046 A 
ATOM     25  C   UNL     1       3.535  -4.858   5.915  0.00  0.00    +0.007 A 
ATOM     26  C   UNL     1       4.845  -5.271   5.761  0.00  0.00    +0.045 A 
ATOM     27  C   UNL     1       5.748  -4.468   5.080  0.00  0.00    +0.117 A 
ATOM     28  C   UNL     1       5.334  -3.253   4.555  0.00  0.00    +0.045 A 
ATOM     29  C   UNL     1       4.022  -2.847   4.707  0.00  0.00    +0.007 A 
BRANCH  27  30
ATOM     30  O   UNL     1       7.037  -4.872   4.927  0.00  0.00    -0.507 OA
ATOM     31  H   UNL     1       7.194  -5.389   4.126  0.00  0.00    +0.292 HD
ENDBRANCH  27  30
ENDBRANCH  23  24
ENDBRANCH  11  23
BRANCH  15  32
ATOM     32  C   UNL     1      -1.536   0.240   5.023  0.00  0.00    +0.151 C 
BRANCH  32  33
ATOM     33  C   UNL     1      -0.318   1.089   4.766  0.00  0.00    -0.026 A 
ATOM     34  C   UNL     1       0.665   1.194   5.732  0.00  0.00    +0.009 A 
ATOM     35  C   UNL     1       1.784   1.972   5.501  0.00  0.00    +0.050 A 
ATOM     36  C   UNL     1       1.923   2.648   4.300  0.00  0.00    +0.166 A 
ATOM     37  C   UNL     1       0.932   2.542   3.327  0.00  0.00    +0.167 A 
ATOM     38  C   UNL     1      -0.184   1.757   3.563  0.00  0.00    +0.054 A 
ATOM     39  O   UNL     1       1.299   3.294   2.248  0.00  0.00    -0.453 OA
ATOM     40  C   UNL     1       2.323   4.184   2.729  0.00  0.00    +0.466 C 
ATOM     41  O   UNL     1       2.910   3.466   3.830  0.00  0.00    -0.453 OA
ENDBRANCH  32  33
ENDBRANCH  15  32
TORSDOF 5
