REMARK  Name = ZINC40981617
REMARK  10 active torsions:
REMARK  status: ('A' for Active; 'I' for Inactive)
REMARK    1  A    between atoms: C_1  and  C_2
REMARK    2  A    between atoms: C_2  and  C_3
REMARK    3  A    between atoms: C_3  and  S_4
REMARK    4  A    between atoms: S_4  and  C_5
REMARK    5  A    between atoms: C_10  and  C_19
REMARK    6  A    between atoms: C_12  and  C_16
REMARK    7  A    between atoms: C_13  and  C_15
REMARK    8  A    between atoms: C_22  and  O_25
REMARK    9  A    between atoms: O_25  and  C_26
REMARK   10  A    between atoms: C_26  and  C_27
REMARK                            x       y       z     vdW  Elec       q    Type
REMARK                         _______ _______ _______ _____ _____    ______ ____
ROOT
ATOM      1  C   UNL     1       1.997  -2.531  -2.610  0.00  0.00    +0.210 A 
ATOM      2  N   UNL     1       2.454  -1.712  -3.569  0.00  0.00    -0.187 NA
ATOM      3  C   UNL     1       2.836  -2.417  -4.599  0.00  0.00    +0.219 A 
ATOM      4  N   UNL     1       2.631  -3.727  -4.313  0.00  0.00    -0.220 N 
ATOM      5  N   UNL     1       2.093  -3.775  -3.028  0.00  0.00    -0.141 NA
ATOM      6  C   UNL     1       2.952  -4.815  -5.233  0.00  0.00    +0.177 C 
ATOM      7  C   UNL     1       3.242  -4.249  -6.597  0.00  0.00    +0.060 C 
ATOM      8  C   UNL     1       3.432  -2.941  -6.822  0.00  0.00    +0.018 C 
ATOM      9  N   UNL     1       3.365  -2.008  -5.816  0.00  0.00    -0.287 N 
ATOM     10  C   UNL     1       3.729  -2.478  -8.225  0.00  0.00    +0.061 C 
ATOM     11  H   UNL     1       3.676  -1.099  -5.949  0.00  0.00    +0.155 HD
ENDROOT
BRANCH   6  12
ATOM     12  C   UNL     1       4.163  -5.558  -4.729  0.00  0.00    -0.018 A 
ATOM     13  C   UNL     1       5.362  -4.890  -4.562  0.00  0.00    +0.009 A 
ATOM     14  C   UNL     1       6.473  -5.568  -4.101  0.00  0.00    +0.046 A 
ATOM     15  C   UNL     1       6.386  -6.921  -3.805  0.00  0.00    +0.121 A 
ATOM     16  C   UNL     1       5.181  -7.589  -3.974  0.00  0.00    +0.046 A 
ATOM     17  C   UNL     1       4.071  -6.904  -4.430  0.00  0.00    +0.009 A 
BRANCH  15  18
ATOM     18  O   UNL     1       7.478  -7.591  -3.352  0.00  0.00    -0.487 OA
BRANCH  18  19
ATOM     19  C   UNL     1       7.314  -8.982  -3.068  0.00  0.00    +0.264 C 
BRANCH  19  20
ATOM     20  C   UNL     1       8.621  -9.552  -2.580  0.00  0.00    -0.009 A 
ATOM     21  C   UNL     1       9.527 -10.075  -3.485  0.00  0.00    +0.008 A 
ATOM     22  C   UNL     1      10.726 -10.598  -3.039  0.00  0.00    +0.022 A 
ATOM     23  C   UNL     1      11.020 -10.600  -1.687  0.00  0.00    +0.059 A 
ATOM     24  C   UNL     1      10.112 -10.076  -0.781  0.00  0.00    +0.060 A 
ATOM     25  C   UNL     1       8.915  -9.548  -1.230  0.00  0.00    +0.028 A 
ATOM     26 CL   UNL     1      10.479 -10.078   0.915  0.00  0.00    -0.082 Cl
ATOM     27 CL   UNL     1      12.525 -11.258  -1.126  0.00  0.00    -0.082 Cl
ENDBRANCH  19  20
ENDBRANCH  18  19
ENDBRANCH  15  18
ENDBRANCH   6  12
BRANCH   7  28
ATOM     28  C   UNL     1       3.318  -5.139  -7.694  0.00  0.00    +0.241 C 
ATOM     29  O   UNL     1       2.298  -5.530  -8.233  0.00  0.00    -0.271 OA
ATOM     30  N   UNL     1       4.519  -5.555  -8.143  0.00  0.00    -0.325 N 
ATOM     31  H   UNL     1       5.331  -5.243  -7.714  0.00  0.00    +0.145 HD
ATOM     32  H   UNL     1       4.571  -6.165  -8.895  0.00  0.00    +0.145 HD
ENDBRANCH   7  28
BRANCH   1  33
ATOM     33  S   UNL     1       1.376  -2.023  -1.042  0.00  0.00    -0.084 S 
BRANCH  33  34
ATOM     34  C   UNL     1       1.506  -0.215  -1.082  0.00  0.00    +0.077 C 
BRANCH  34  36
ATOM     35  C   UNL     1       1.103   1.889   0.203  0.00  0.00    +0.004 C 
ATOM     36  C   UNL     1       0.993   0.364   0.238  0.00  0.00    +0.008 C 
ENDBRANCH  34  36
ENDBRANCH  33  34
ENDBRANCH   1  33
TORSDOF 8
