REMARK  Name = ZINC09818210
REMARK  5 active torsions:
REMARK  status: ('A' for Active; 'I' for Inactive)
REMARK    1  A    between atoms: C_1  and  C_2
REMARK    2  A    between atoms: C_12  and  C_14
REMARK    3  A    between atoms: C_14  and  C_15
REMARK    4  A    between atoms: N_20  and  S_21
REMARK    5  A    between atoms: S_21  and  C_24
REMARK                            x       y       z     vdW  Elec       q    Type
REMARK                         _______ _______ _______ _____ _____    ______ ____
ROOT
ATOM      1  C   UNL     1      -3.531  -6.084   0.005  0.00  0.00    +0.059 A 
ATOM      2  C   UNL     1      -4.148  -6.821  -0.949  0.00  0.00    +0.072 A 
ATOM      3  S   UNL     1      -5.851  -6.682  -0.427  0.00  0.00    -0.059 S 
ATOM      4  C   UNL     1      -5.580  -5.678   0.964  0.00  0.00    +0.178 A 
ATOM      5  N   UNL     1      -4.270  -5.524   0.944  0.00  0.00    -0.228 NA
ATOM      6  N   UNL     1      -6.504  -5.170   1.863  0.00  0.00    -0.194 N 
ATOM      7  H   UNL     1      -6.207  -4.616   2.603  0.00  0.00    +0.176 HD
ENDROOT
BRANCH   6   8
ATOM      8  S   UNL     1      -8.114  -5.506   1.676  0.00  0.00    +0.074 S 
ATOM      9  O   UNL     1      -8.789  -4.874   2.755  0.00  0.00    -0.150 OA
ATOM     10  O   UNL     1      -8.430  -5.236   0.317  0.00  0.00    -0.150 OA
BRANCH   8  11
ATOM     11  C   UNL     1      -8.314  -7.242   1.905  0.00  0.00    +0.109 A 
ATOM     12  C   UNL     1      -8.225  -8.096   0.822  0.00  0.00    +0.031 A 
ATOM     13  C   UNL     1      -8.377  -9.458   1.001  0.00  0.00    +0.040 A 
ATOM     14  C   UNL     1      -8.628  -9.966   2.264  0.00  0.00    +0.124 A 
ATOM     15  C   UNL     1      -8.722  -9.109   3.348  0.00  0.00    +0.040 A 
ATOM     16  C   UNL     1      -8.565  -7.747   3.167  0.00  0.00    +0.031 A 
ATOM     17  F   UNL     1      -8.781 -11.296   2.439  0.00  0.00    -0.205 F 
ENDBRANCH   8  11
ENDBRANCH   6   8
BRANCH   1  18
ATOM     18  C   UNL     1      -2.035  -5.902  -0.009  0.00  0.00    +0.152 C 
BRANCH  18  30
ATOM     19  C   UNL     1       3.728  -0.721  -0.037  0.00  0.00    +0.046 C 
ATOM     20  C   UNL     1       2.403  -0.004  -0.021  0.00  0.00    -0.024 A 
ATOM     21  C   UNL     1       2.374   1.367  -0.013  0.00  0.00    +0.005 A 
ATOM     22  C   UNL     1       1.177   2.067   0.002  0.00  0.00    +0.001 A 
ATOM     23  C   UNL     1      -0.017   1.368   0.010  0.00  0.00    +0.017 A 
ATOM     24  C   UNL     1       0.002  -0.004   0.002  0.00  0.00    +0.041 A 
ATOM     25  C   UNL     1       1.202  -0.751  -0.013  0.00  0.00    +0.083 A 
ATOM     26  N   UNL     1       1.056  -2.094  -0.019  0.00  0.00    -0.224 NA
ATOM     27  C   UNL     1      -0.121  -2.675  -0.010  0.00  0.00    +0.165 A 
ATOM     28  S   UNL     1      -1.236  -1.278   0.008  0.00  0.00    -0.052 S 
ATOM     29  N   UNL     1      -0.422  -4.027  -0.015  0.00  0.00    -0.264 N 
ATOM     30  C   UNL     1      -1.707  -4.431  -0.004  0.00  0.00    +0.224 C 
ATOM     31  O   UNL     1      -2.601  -3.611   0.009  0.00  0.00    -0.275 OA
ATOM     32  H   UNL     1       0.293  -4.683  -0.025  0.00  0.00    +0.157 HD
ENDBRANCH  18  30
ENDBRANCH   1  18
TORSDOF 4
