REMARK  Name = ZINC64604387
REMARK  10 active torsions:
REMARK  status: ('A' for Active; 'I' for Inactive)
REMARK    1  A    between atoms: C_1  and  C_2
REMARK    2  A    between atoms: C_6  and  S_12
REMARK    3  A    between atoms: C_10  and  C_11
REMARK    4  A    between atoms: S_12  and  C_13
REMARK    5  A    between atoms: C_13  and  C_14
REMARK    6  A    between atoms: C_16  and  C_19
REMARK    7  A    between atoms: C_19  and  C_20
REMARK    8  A    between atoms: C_20  and  C_21
REMARK    9  A    between atoms: N_23  and  C_24
REMARK   10  A    between atoms: C_26  and  C_37
REMARK                            x       y       z     vdW  Elec       q    Type
REMARK                         _______ _______ _______ _____ _____    ______ ____
ROOT
ATOM      1  C   UNL     1      -4.105  -4.917  -1.807  0.00  0.00    +0.182 A 
ATOM      2  N   UNL     1      -4.805  -4.718  -2.930  0.00  0.00    -0.195 NA
ATOM      3  C   UNL     1      -5.884  -5.449  -2.920  0.00  0.00    +0.228 A 
ATOM      4  O   UNL     1      -5.908  -6.146  -1.777  0.00  0.00    -0.338 OA
ATOM      5  N   UNL     1      -4.732  -5.786  -1.068  0.00  0.00    -0.060 NA
ENDROOT
BRANCH   1   6
ATOM      6  C   UNL     1      -2.801  -4.248  -1.457  0.00  0.00    +0.152 C 
BRANCH   6   7
ATOM      7  S   UNL     1      -1.422  -5.247  -2.082  0.00  0.00    -0.107 S 
BRANCH   7  13
ATOM      8  C   UNL     1      -0.018   1.503   0.010  0.00  0.00    +0.044 C 
ATOM      9  C   UNL     1       0.002  -0.004   0.002  0.00  0.00    -0.045 A 
ATOM     10  C   UNL     1       0.005  -0.645  -1.184  0.00  0.00    +0.031 A 
ATOM     11  C   UNL     1       0.025  -2.114  -1.215  0.00  0.00    +0.061 A 
ATOM     12  N   UNL     1       0.033  -2.979  -2.187  0.00  0.00    -0.355 N 
ATOM     13  C   UNL     1       0.054  -4.318  -1.586  0.00  0.00    +0.236 C 
ATOM     14  N   UNL     1       0.059  -4.118  -0.131  0.00  0.00    -0.355 N 
ATOM     15  C   UNL     1       0.042  -2.835   0.087  0.00  0.00    +0.061 A 
ATOM     16  C   UNL     1       0.037  -2.031   1.317  0.00  0.00    +0.031 A 
ATOM     17  C   UNL     1       0.023  -0.686   1.232  0.00  0.00    -0.045 A 
ATOM     18  C   UNL     1       0.024   0.120   2.506  0.00  0.00    +0.044 C 
ATOM     19  H   UNL     1       0.025  -2.776  -3.136  0.00  0.00    +0.162 HD
ATOM     20  H   UNL     1       0.072  -4.815   0.544  0.00  0.00    +0.162 HD
ENDBRANCH   7  13
ENDBRANCH   6   7
ENDBRANCH   1   6
BRANCH   3  21
ATOM     21  C   UNL     1      -6.926  -5.501  -4.008  0.00  0.00    +0.108 C 
BRANCH  21  22
ATOM     22  C   UNL     1      -6.557  -6.591  -5.016  0.00  0.00    +0.105 C 
BRANCH  22  23
ATOM     23  C   UNL     1      -7.598  -6.643  -6.104  0.00  0.00    +0.214 C 
ATOM     24  O   UNL     1      -8.543  -5.883  -6.076  0.00  0.00    -0.276 OA
ATOM     25  N   UNL     1      -7.480  -7.535  -7.108  0.00  0.00    -0.302 N 
ATOM     26  H   UNL     1      -6.725  -8.143  -7.130  0.00  0.00    +0.150 HD
BRANCH  25  27
ATOM     27  C   UNL     1      -8.492  -7.585  -8.165  0.00  0.00    +0.148 C 
ATOM     28  C   UNL     1      -7.827  -7.741  -9.550  0.00  0.00    +0.126 C 
ATOM     29  C   UNL     1      -7.771  -9.205  -9.975  0.00  0.00    +0.021 C 
ATOM     30  C   UNL     1      -7.377  -9.368 -11.418  0.00  0.00    +0.006 C 
ATOM     31  C   UNL     1      -8.517  -9.207 -12.403  0.00  0.00    +0.000 C 
ATOM     32  C   UNL     1      -9.730 -10.035 -11.992  0.00  0.00    +0.001 C 
ATOM     33  C   UNL     1     -10.176  -9.612 -10.592  0.00  0.00    +0.014 C 
ATOM     34  C   UNL     1      -9.073  -9.930  -9.608  0.00  0.00    +0.053 C 
ATOM     35  S   UNL     1      -9.514  -9.106  -8.014  0.00  0.00    -0.134 S 
BRANCH  28  36
ATOM     36  C   UNL     1      -8.601  -6.981 -10.545  0.00  0.00    +0.069 C 
ATOM     37  N   UNL     1      -9.198  -6.394 -11.313  0.00  0.00    -0.196 NA
ENDBRANCH  28  36
ENDBRANCH  25  27
ENDBRANCH  22  23
ENDBRANCH  21  22
ENDBRANCH   3  21
TORSDOF 8
