REMARK  Name = ZINC31164999
REMARK  8 active torsions:
REMARK  status: ('A' for Active; 'I' for Inactive)
REMARK    1  A    between atoms: C_1  and  C_2
REMARK    2  A    between atoms: C_2  and  C_31
REMARK    3  A    between atoms: C_8  and  O_30
REMARK    4  A    between atoms: C_9  and  C_12
REMARK    5  A    between atoms: C_12  and  C_14
REMARK    6  A    between atoms: C_15  and  O_29
REMARK    7  A    between atoms: C_19  and  O_20
REMARK    8  A    between atoms: C_21  and  O_28
REMARK                            x       y       z     vdW  Elec       q    Type
REMARK                         _______ _______ _______ _____ _____    ______ ____
ROOT
ATOM      1  C   UNL     1      -1.576   3.659   4.029  0.00  0.00    +0.106 A 
ATOM      2  C   UNL     1      -2.446   4.645   3.536  0.00  0.00    +0.135 A 
ATOM      3  C   UNL     1      -2.475   5.896   4.117  0.00  0.00    +0.092 A 
ATOM      4  C   UNL     1      -1.641   6.198   5.195  0.00  0.00    +0.139 A 
ATOM      5  C   UNL     1      -0.776   5.223   5.678  0.00  0.00    +0.079 A 
ATOM      6  C   UNL     1      -0.740   3.963   5.117  0.00  0.00    +0.141 A 
ATOM      7  C   UNL     1       0.001   5.839   6.826  0.00  0.00    +0.193 C 
ATOM      8  C   UNL     1       1.484   5.769   6.510  0.00  0.00    +0.057 C 
ATOM      9  C   UNL     1       1.815   6.886   5.901  0.00  0.00    +0.191 C 
ATOM     10  O   UNL     1       0.779   7.737   5.729  0.00  0.00    -0.458 OA
ATOM     11  C   UNL     1      -0.286   7.360   6.620  0.00  0.00    +0.403 C 
ATOM     12  O   UNL     1      -1.529   7.352   5.904  0.00  0.00    -0.450 OA
ENDROOT
BRANCH   1  13
ATOM     13  C   UNL     1      -1.544   2.322   3.418  0.00  0.00    +0.207 C 
ATOM     14  O   UNL     1      -0.853   1.447   3.906  0.00  0.00    -0.286 OA
BRANCH  13  23
ATOM     15  C   UNL     1       0.479   1.350  -0.716  0.00  0.00    +0.055 C 
ATOM     16  C   UNL     1       0.079   2.795  -0.413  0.00  0.00    +0.105 C 
ATOM     17  C   UNL     1      -0.887   3.301  -1.492  0.00  0.00    +0.052 C 
ATOM     18  C   UNL     1      -2.070   2.332  -1.569  0.00  0.00    +0.043 C 
ATOM     19  C   UNL     1      -2.590   2.053  -0.182  0.00  0.00    -0.005 A 
ATOM     20  C   UNL     1      -3.861   1.515  -0.044  0.00  0.00    +0.011 A 
ATOM     21  C   UNL     1      -4.381   1.239   1.205  0.00  0.00    +0.046 A 
ATOM     22  C   UNL     1      -3.633   1.498   2.342  0.00  0.00    +0.131 A 
ATOM     23  C   UNL     1      -2.348   2.042   2.216  0.00  0.00    +0.106 A 
ATOM     24  C   UNL     1      -1.828   2.321   0.939  0.00  0.00    +0.139 A 
ATOM     25  O   UNL     1      -0.585   2.856   0.850  0.00  0.00    -0.485 OA
ATOM     26  C   UNL     1       1.327   3.680  -0.383  0.00  0.00    +0.055 C 
BRANCH  22  27
ATOM     27  O   UNL     1      -4.142   1.227   3.570  0.00  0.00    -0.506 OA
ATOM     28  H   UNL     1      -3.546   1.434   4.470  0.00  0.00    +0.292 HD
ENDBRANCH  22  27
ENDBRANCH  13  23
ENDBRANCH   1  13
BRANCH   6  29
ATOM     29  O   UNL     1       0.104   3.022   5.610  0.00  0.00    -0.505 OA
ATOM     30  H   UNL     1       0.758   3.262   6.462  0.00  0.00    +0.292 HD
ENDBRANCH   6  29
BRANCH   7  31
ATOM     31  O   UNL     1      -0.343   5.342   8.120  0.00  0.00    -0.373 OA
ATOM     32  H   UNL     1       0.168   5.731   9.013  0.00  0.00    +0.211 HD
ENDBRANCH   7  31
BRANCH   2  33
ATOM     33  O   UNL     1      -3.260   4.367   2.486  0.00  0.00    -0.506 OA
ATOM     34  H   UNL     1      -3.942   5.138   2.099  0.00  0.00    +0.292 HD
ENDBRANCH   2  33
TORSDOF 6
