REMARK  Name = ZINC33680854
REMARK  5 active torsions:
REMARK  status: ('A' for Active; 'I' for Inactive)
REMARK    1  A    between atoms: C_8  and  C_10
REMARK    2  A    between atoms: N_18  and  C_21
REMARK    3  A    between atoms: C_27  and  C_29
REMARK    4  A    between atoms: C_27  and  C_40
REMARK    5  A    between atoms: C_29  and  C_30
REMARK                            x       y       z     vdW  Elec       q    Type
REMARK                         _______ _______ _______ _____ _____    ______ ____
ROOT
ATOM      1  C   UNL     1      -0.750  -3.325   2.591  0.00  0.00    +0.010 C 
ATOM      2  C   UNL     1      -2.228  -3.124   2.819  0.00  0.00    +0.080 C 
ATOM      3  C   UNL     1      -2.560  -2.388   1.461  0.00  0.00    +0.086 C 
ATOM      4  C   UNL     1      -4.017  -2.360   1.551  0.00  0.00    +0.225 C 
ATOM      5  O   UNL     1      -4.765  -1.484   1.173  0.00  0.00    -0.275 OA
ATOM      6  N   UNL     1      -4.356  -3.544   2.157  0.00  0.00    -0.239 N 
ATOM      7  C   UNL     1      -3.280  -4.163   2.739  0.00  0.00    +0.225 C 
ATOM      8  O   UNL     1      -3.206  -5.315   3.109  0.00  0.00    -0.275 OA
ATOM      9  C   UNL     1      -1.514  -1.334   1.445  0.00  0.00    +0.052 C 
ATOM     10  N   UNL     1      -0.317  -1.980   2.078  0.00  0.00    +0.398 N 
ATOM     11  H   UNL     1       0.052  -1.370   2.915  0.00  0.00    -0.083 HD
ATOM     12  H   UNL     1       0.486  -2.111   1.337  0.00  0.00    -0.083 HD
ENDROOT
BRANCH   1  20
ATOM     13  C   UNL     1       2.110  -5.137   7.629  0.00  0.00    +0.001 A 
ATOM     14  C   UNL     1       1.964  -3.799   7.968  0.00  0.00    +0.004 A 
ATOM     15  C   UNL     1       1.342  -2.920   7.107  0.00  0.00    +0.047 A 
ATOM     16  C   UNL     1       0.857  -3.373   5.887  0.00  0.00    +0.135 A 
ATOM     17  C   UNL     1       1.008  -4.729   5.550  0.00  0.00    +0.020 A 
ATOM     18  C   UNL     1       1.639  -5.604   6.433  0.00  0.00    +0.011 A 
ATOM     19  C   UNL     1       0.399  -4.873   4.222  0.00  0.00    +0.051 A 
ATOM     20  C   UNL     1      -0.048  -3.656   3.882  0.00  0.00    +0.093 A 
ATOM     21  O   UNL     1       0.225  -2.773   4.859  0.00  0.00    -0.461 OA
ENDBRANCH   1  20
BRANCH   6  22
ATOM     22  C   UNL     1      -5.716  -4.087   2.179  0.00  0.00    +0.084 C 
ATOM     23  C   UNL     1      -6.183  -4.236   3.628  0.00  0.00    +0.023 C 
ATOM     24  C   UNL     1      -7.603  -4.803   3.651  0.00  0.00    +0.002 C 
ATOM     25  C   UNL     1      -7.617  -6.172   2.968  0.00  0.00    +0.000 C 
ATOM     26  C   UNL     1      -7.150  -6.024   1.519  0.00  0.00    +0.002 C 
ATOM     27  C   UNL     1      -5.730  -5.456   1.496  0.00  0.00    +0.023 C 
ENDBRANCH   6  22
BRANCH   9  28
ATOM     28  C   UNL     1      -1.954  -0.141   2.253  0.00  0.00    +0.347 C 
ATOM     29  O   UNL     1      -3.132   0.095   2.390  0.00  0.00    -0.248 OA
ATOM     30  O   UNL     1      -1.040   0.661   2.820  0.00  0.00    -0.248 OA
ENDBRANCH   9  28
BRANCH   9  31
ATOM     31  C   UNL     1      -1.197  -0.917   0.008  0.00  0.00    +0.037 C 
BRANCH  31  32
ATOM     32  C   UNL     1       0.002  -0.004   0.002  0.00  0.00    -0.023 A 
ATOM     33  C   UNL     1      -0.016   1.338   0.009  0.00  0.00    +0.087 A 
ATOM     34  N   UNL     1       1.264   1.822  -0.000  0.00  0.00    -0.360 N 
ATOM     35  H   UNL     1       1.441   2.908   0.004  0.00  0.00    +0.165 HD
ATOM     36  C   UNL     1       2.159   0.777  -0.014  0.00  0.00    +0.047 A 
ATOM     37  C   UNL     1       1.409  -0.413  -0.014  0.00  0.00    +0.003 A 
ATOM     38  C   UNL     1       2.060  -1.648  -0.027  0.00  0.00    +0.010 A 
ATOM     39  C   UNL     1       3.426  -1.694  -0.041  0.00  0.00    +0.001 A 
ATOM     40  C   UNL     1       4.171  -0.523  -0.041  0.00  0.00    +0.002 A 
ATOM     41  C   UNL     1       3.549   0.706  -0.029  0.00  0.00    +0.026 A 
ENDBRANCH  31  32
ENDBRANCH   9  31
TORSDOF 5
