REMARK  Name = ZINC00912139
REMARK  10 active torsions:
REMARK  status: ('A' for Active; 'I' for Inactive)
REMARK    1  A    between atoms: C_1  and  O_2
REMARK    2  A    between atoms: O_2  and  C_3
REMARK    3  A    between atoms: C_7  and  C_17
REMARK    4  A    between atoms: C_14  and  O_15
REMARK    5  A    between atoms: O_15  and  C_16
REMARK    6  A    between atoms: C_17  and  C_19
REMARK    7  A    between atoms: C_17  and  N_63
REMARK    8  A    between atoms: N_23  and  C_24
REMARK    9  A    between atoms: C_24  and  C_25
REMARK   10  A    between atoms: C_34  and  O_37
REMARK                            x       y       z     vdW  Elec       q    Type
REMARK                         _______ _______ _______ _____ _____    ______ ____
ROOT
ATOM      1  C   UNL     1      -2.349  -0.745   1.988  0.00  0.00    +0.039 C 
ENDROOT
BRANCH   1   6
ATOM      2  C   UNL     1      -4.709   4.970   2.423  0.00  0.00    +0.162 A 
ATOM      3  C   UNL     1      -4.233   3.852   1.774  0.00  0.00    +0.059 A 
ATOM      4  C   UNL     1      -3.800   2.749   2.521  0.00  0.00    +0.002 A 
ATOM      5  C   UNL     1      -3.283   1.549   1.863  0.00  0.00    +0.017 A 
ATOM      6  C   UNL     1      -2.881   0.508   2.635  0.00  0.00    +0.011 A 
ATOM      7  C   UNL     1      -2.954   0.596   4.040  0.00  0.00    +0.251 A 
ATOM      8  O   UNL     1      -2.583  -0.350   4.714  0.00  0.00    -0.268 OA
ATOM      9  N   UNL     1      -3.423   1.695   4.655  0.00  0.00    -0.322 N 
ATOM     10  H   UNL     1      -3.461   1.723   5.654  0.00  0.00    +0.169 HD
ATOM     11  C   UNL     1      -3.853   2.787   3.928  0.00  0.00    +0.053 A 
ATOM     12  C   UNL     1      -4.336   3.922   4.566  0.00  0.00    +0.075 A 
ATOM     13  C   UNL     1      -4.761   5.005   3.820  0.00  0.00    +0.163 A 
BRANCH   2  15
ATOM     14  C   UNL     1      -5.050   5.941   0.279  0.00  0.00    +0.277 C 
ATOM     15  O   UNL     1      -5.130   6.043   1.702  0.00  0.00    -0.491 OA
ENDBRANCH   2  15
BRANCH  13  16
ATOM     16  O   UNL     1      -5.233   6.113   4.448  0.00  0.00    -0.491 OA
ATOM     17  C   UNL     1      -5.260   6.087   5.877  0.00  0.00    +0.277 C 
ENDBRANCH  13  16
ENDBRANCH   1   6
BRANCH   1  23
ATOM     18  C   UNL     1      -4.567  -1.665   2.299  0.00  0.00    -0.075 C 
ATOM     19  C   UNL     1      -5.346  -2.825   2.922  0.00  0.00    +0.013 C 
ATOM     20  C   UNL     1      -4.950  -4.131   2.227  0.00  0.00    +0.111 C 
ATOM     21  C   UNL     1      -3.437  -4.331   2.358  0.00  0.00    +0.013 C 
ATOM     22  C   UNL     1      -2.714  -3.127   1.751  0.00  0.00    -0.075 C 
ATOM     23  N   UNL     1      -3.120  -1.906   2.480  0.00  0.00    +0.389 N 
ATOM     24  H   UNL     1      -2.926  -2.035   3.480  0.00  0.00    -0.080 HD
BRANCH  20  25
ATOM     25  O   UNL     1      -5.631  -5.226   2.843  0.00  0.00    -0.392 OA
ATOM     26  H   UNL     1      -6.595  -5.164   2.798  0.00  0.00    +0.210 HD
ENDBRANCH  20  25
ENDBRANCH   1  23
BRANCH   1  27
ATOM     27  C   UNL     1      -0.902  -0.929   2.363  0.00  0.00    +0.143 A 
ATOM     28  N   UNL     1      -0.432  -1.209   3.554  0.00  0.00    -0.115 NA
ATOM     29  N   UNL     1       0.852  -1.284   3.468  0.00  0.00    -0.023 NA
ATOM     30  N   UNL     1       1.212  -1.065   2.252  0.00  0.00    -0.044 NA
ATOM     31  N   UNL     1       0.160  -0.836   1.541  0.00  0.00    -0.226 N 
BRANCH  31  32
ATOM     32  C   UNL     1       0.127  -0.537   0.107  0.00  0.00    +0.182 C 
BRANCH  32  33
ATOM     33  C   UNL     1       0.366   0.936  -0.105  0.00  0.00    -0.026 A 
ATOM     34  C   UNL     1      -0.705   1.793  -0.269  0.00  0.00    +0.008 A 
ATOM     35  C   UNL     1      -0.486   3.145  -0.458  0.00  0.00    +0.038 A 
ATOM     36  C   UNL     1       0.807   3.638  -0.494  0.00  0.00    +0.123 A 
ATOM     37  C   UNL     1       1.879   2.777  -0.335  0.00  0.00    +0.038 A 
ATOM     38  C   UNL     1       1.658   1.427  -0.141  0.00  0.00    +0.008 A 
ATOM     39  F   UNL     1       1.022   4.958  -0.685  0.00  0.00    -0.205 F 
ENDBRANCH  32  33
ENDBRANCH  31  32
ENDBRANCH   1  27
TORSDOF 8
