REMARK  Name = ZINC18227815
REMARK  6 active torsions:
REMARK  status: ('A' for Active; 'I' for Inactive)
REMARK    1  A    between atoms: C_1  and  C_2
REMARK    2  A    between atoms: C_3  and  C_31
REMARK    3  A    between atoms: N_9  and  C_22
REMARK    4  A    between atoms: N_11  and  S_12
REMARK    5  A    between atoms: S_12  and  C_15
REMARK    6  A    between atoms: C_22  and  C_23
REMARK                            x       y       z     vdW  Elec       q    Type
REMARK                         _______ _______ _______ _____ _____    ______ ____
ROOT
ATOM      1  C   UNL     1       4.925  -0.993  -6.853  0.00  0.00    +0.062 C 
ATOM      2  C   UNL     1       3.546  -0.386  -6.894  0.00  0.00    +0.025 C 
ATOM      3  C   UNL     1       2.940  -0.188  -8.068  0.00  0.00    +0.006 C 
ATOM      4  S   UNL     1       1.383   0.528  -7.569  0.00  0.00    -0.075 S 
ATOM      5  C   UNL     1       1.661   0.510  -5.804  0.00  0.00    +0.097 C 
ATOM      6  C   UNL     1       0.828   0.939  -4.777  0.00  0.00    +0.106 C 
ATOM      7  C   UNL     1      -0.409   1.597  -4.852  0.00  0.00    +0.262 C 
ATOM      8  O   UNL     1      -0.900   1.872  -5.937  0.00  0.00    -0.269 OA
ATOM      9  N   UNL     1      -1.038   1.909  -3.733  0.00  0.00    -0.241 N 
ATOM     10  C   UNL     1      -0.469   1.596  -2.513  0.00  0.00    +0.189 C 
ATOM     11  N   UNL     1      -0.925   1.822  -1.309  0.00  0.00    -0.105 NA
ATOM     12  S   UNL     1       1.050   0.797  -3.009  0.00  0.00    -0.045 S 
ATOM     13  N   UNL     1       2.923  -0.037  -5.735  0.00  0.00    -0.245 N 
ATOM     14  C   UNL     1       3.546  -0.232  -4.508  0.00  0.00    +0.170 A 
ATOM     15  N   UNL     1       3.572  -1.314  -3.754  0.00  0.00    -0.233 NA
ATOM     16  C   UNL     1       4.221  -1.332  -2.607  0.00  0.00    +0.120 A 
ATOM     17  C   UNL     1       4.858  -0.204  -2.207  0.00  0.00    +0.068 A 
ATOM     18  S   UNL     1       4.484   0.889  -3.570  0.00  0.00    -0.060 S 
ATOM     19  C   UNL     1       3.442  -0.492  -9.456  0.00  0.00    +0.053 C 
ENDROOT
BRANCH  11  20
ATOM     20  S   UNL     1      -0.051   1.340   0.012  0.00  0.00    +0.101 S 
ATOM     21  O   UNL     1      -0.030  -0.081  -0.011  0.00  0.00    -0.146 OA
ATOM     22  O   UNL     1       1.137   2.119   0.019  0.00  0.00    -0.146 OA
BRANCH  20  23
ATOM     23  C   UNL     1      -0.968   1.807   1.442  0.00  0.00    +0.113 A 
ATOM     24  C   UNL     1      -0.762   3.045   2.021  0.00  0.00    +0.029 A 
ATOM     25  C   UNL     1      -1.485   3.413   3.141  0.00  0.00    +0.002 A 
ATOM     26  C   UNL     1      -2.406   2.539   3.687  0.00  0.00    +0.000 A 
ATOM     27  C   UNL     1      -2.608   1.298   3.111  0.00  0.00    +0.002 A 
ATOM     28  C   UNL     1      -1.888   0.932   1.989  0.00  0.00    +0.029 A 
ENDBRANCH  20  23
ENDBRANCH  11  20
BRANCH   9  29
ATOM     29  C   UNL     1      -2.335   2.590  -3.785  0.00  0.00    +0.142 C 
BRANCH  29  30
ATOM     30  C   UNL     1      -2.119   4.081  -3.788  0.00  0.00    -0.015 C 
ATOM     31  C   UNL     1      -2.636   4.815  -4.743  0.00  0.00    +0.005 C 
ENDBRANCH  29  30
ENDBRANCH   9  29
TORSDOF 4
