REMARK  Name = ZINC21078067
REMARK  6 active torsions:
REMARK  status: ('A' for Active; 'I' for Inactive)
REMARK    1  A    between atoms: C_3  and  O_30
REMARK    2  A    between atoms: C_6  and  C_7
REMARK    3  A    between atoms: N_8  and  N_9
REMARK    4  A    between atoms: C_12  and  S_15
REMARK    5  A    between atoms: S_15  and  C_16
REMARK    6  A    between atoms: C_16  and  C_17
REMARK                            x       y       z     vdW  Elec       q    Type
REMARK                         _______ _______ _______ _____ _____    ______ ____
ROOT
ATOM      1  N   UNL     1      -4.837   0.932   0.031  0.00  0.00    -0.205 N 
ATOM      2  C   UNL     1      -6.046   1.612   0.040  0.00  0.00    +0.232 A 
ATOM      3  N   UNL     1      -7.289   1.042   0.044  0.00  0.00    -0.186 NA
ATOM      4  C   UNL     1      -8.214   2.048   0.054  0.00  0.00    +0.211 A 
ATOM      5  N   UNL     1      -7.571   3.191   0.057  0.00  0.00    -0.144 NA
ATOM      6  N   UNL     1      -6.197   2.914   0.053  0.00  0.00    -0.245 N 
ATOM      7  H   UNL     1      -4.825  -0.168   0.025  0.00  0.00    +0.177 HD
ATOM      8  H   UNL     1      -5.315   3.571   0.060  0.00  0.00    +0.192 HD
ENDROOT
BRANCH   1  10
ATOM      9  C   UNL     1      -2.500   1.008   0.020  0.00  0.00    +0.138 C 
ATOM     10  N   UNL     1      -3.632   1.645   0.029  0.00  0.00    -0.188 NA
BRANCH   9  16
ATOM     11  C   UNL     1      -0.013   1.076   0.008  0.00  0.00    +0.013 A 
ATOM     12  C   UNL     1       1.171   1.782   0.001  0.00  0.00    +0.046 A 
ATOM     13  C   UNL     1       1.153   3.171   0.007  0.00  0.00    +0.117 A 
ATOM     14  C   UNL     1      -0.056   3.854   0.021  0.00  0.00    +0.046 A 
ATOM     15  C   UNL     1      -1.244   3.156   0.029  0.00  0.00    +0.013 A 
ATOM     16  C   UNL     1      -1.232   1.759   0.017  0.00  0.00    -0.005 A 
BRANCH  13  17
ATOM     17  O   UNL     1       2.322   3.863  -0.001  0.00  0.00    -0.507 OA
ATOM     18  H   UNL     1       2.310   4.963   0.004  0.00  0.00    +0.292 HD
ENDBRANCH  13  17
ENDBRANCH   9  16
ENDBRANCH   1  10
BRANCH   4  19
ATOM     19  S   UNL     1      -9.964   1.844   0.061  0.00  0.00    -0.075 S 
BRANCH  19  20
ATOM     20  C   UNL     1     -10.604   3.542   0.073  0.00  0.00    +0.173 C 
BRANCH  20  21
ATOM     21  C   UNL     1     -12.110   3.511   0.080  0.00  0.00    +0.229 C 
ATOM     22  O   UNL     1     -12.695   2.449   0.077  0.00  0.00    -0.275 OA
ATOM     23  N   UNL     1     -12.807   4.665   0.090  0.00  0.00    -0.264 N 
ATOM     24  C   UNL     1     -14.193   4.637   0.097  0.00  0.00    +0.165 A 
ATOM     25  N   UNL     1     -15.036   5.642   0.106  0.00  0.00    -0.225 NA
ATOM     26  C   UNL     1     -16.375   5.466   0.111  0.00  0.00    +0.080 A 
ATOM     27  C   UNL     1     -17.386   6.455   0.121  0.00  0.00    +0.030 A 
ATOM     28  C   UNL     1     -18.710   6.104   0.124  0.00  0.00    +0.017 A 
ATOM     29  C   UNL     1     -19.108   4.774   0.118  0.00  0.00    +0.019 A 
ATOM     30  C   UNL     1     -18.145   3.780   0.107  0.00  0.00    +0.032 A 
ATOM     31  C   UNL     1     -16.817   4.123   0.104  0.00  0.00    +0.042 A 
ATOM     32  S   UNL     1     -15.285   3.222   0.085  0.00  0.00    -0.052 S 
ATOM     33 BR   UNL     1     -20.945   4.325   0.122  0.00  0.00    -0.050 Br
ATOM     34  H   UNL     1     -12.277   5.628   0.093  0.00  0.00    +0.157 HD
ENDBRANCH  20  21
ENDBRANCH  19  20
ENDBRANCH   4  19
TORSDOF 6
