REMARK  Name = ZINC38751611
REMARK  13 active torsions:
REMARK  status: ('A' for Active; 'I' for Inactive)
REMARK    1  A    between atoms: C_1  and  C_2
REMARK    2  A    between atoms: C_2  and  N_3
REMARK    3  A    between atoms: N_3  and  C_4
REMARK    4  A    between atoms: C_4  and  C_5
REMARK    5  A    between atoms: N_7  and  C_8
REMARK    6  A    between atoms: C_8  and  C_9
REMARK    7  A    between atoms: C_8  and  C_10
REMARK    8  A    between atoms: C_11  and  C_13
REMARK    9  A    between atoms: C_13  and  S_14
REMARK   10  A    between atoms: S_14  and  C_15
REMARK   11  A    between atoms: C_19  and  C_28
REMARK   12  A    between atoms: N_20  and  C_21
REMARK   13  A    between atoms: C_26  and  C_27
REMARK                            x       y       z     vdW  Elec       q    Type
REMARK                         _______ _______ _______ _____ _____    ______ ____
ROOT
ATOM      1  C   UNL     1      -1.290  -0.706   5.457  0.00  0.00    +0.241 C 
ATOM      2  N   UNL     1      -0.037  -1.448   5.244  0.00  0.00    -0.237 N 
ATOM      3  N   UNL     1       0.980  -0.491   5.142  0.00  0.00    -0.169 NA
ATOM      4  C   UNL     1       0.505   0.721   5.265  0.00  0.00    +0.151 C 
ATOM      5  N   UNL     1      -0.881   0.708   5.465  0.00  0.00    -0.254 N 
ATOM      6  H   UNL     1       0.065  -2.411   5.186  0.00  0.00    +0.171 HD
ENDROOT
BRANCH   4   7
ATOM      7  C   UNL     1       1.284   1.886   5.206  0.00  0.00    +0.022 C 
ATOM      8  C   UNL     1       2.663   1.970   5.006  0.00  0.00    +0.006 A 
ATOM      9  C   UNL     1       3.659   0.989   4.811  0.00  0.00    +0.010 A 
ATOM     10  C   UNL     1       4.951   1.367   4.638  0.00  0.00    +0.001 A 
ATOM     11  C   UNL     1       5.327   2.712   4.647  0.00  0.00    +0.002 A 
ATOM     12  C   UNL     1       4.423   3.706   4.829  0.00  0.00    +0.026 A 
ATOM     13  C   UNL     1       3.054   3.389   5.016  0.00  0.00    +0.043 A 
ATOM     14  N   UNL     1       1.999   4.156   5.209  0.00  0.00    -0.380 N 
ATOM     15  C   UNL     1       0.805   3.315   5.339  0.00  0.00    +0.152 C 
ATOM     16  H   UNL     1       2.010   5.125   5.254  0.00  0.00    +0.160 HD
ENDBRANCH   4   7
BRANCH   5  17
ATOM     17  C   UNL     1      -1.714   1.817   5.636  0.00  0.00    +0.041 A 
ATOM     18  C   UNL     1      -2.280   2.440   4.531  0.00  0.00    +0.024 A 
ATOM     19  C   UNL     1      -3.102   3.536   4.704  0.00  0.00    +0.002 A 
ATOM     20  C   UNL     1      -3.362   4.013   5.976  0.00  0.00    +0.000 A 
ATOM     21  C   UNL     1      -2.800   3.395   7.078  0.00  0.00    +0.005 A 
ATOM     22  C   UNL     1      -1.981   2.296   6.912  0.00  0.00    -0.029 A 
ATOM     23  C   UNL     1      -1.374   1.619   8.114  0.00  0.00    +0.045 C 
ENDBRANCH   5  17
BRANCH   1  24
ATOM     24  S   UNL     1      -2.454  -1.024   4.102  0.00  0.00    -0.108 S 
BRANCH  24  25
ATOM     25  C   UNL     1      -1.470  -0.744   2.604  0.00  0.00    +0.168 C 
BRANCH  25  27
ATOM     26  N   UNL     1      -1.765  -0.956   0.158  0.00  0.00    -0.292 N 
ATOM     27  C   UNL     1      -2.294  -1.087   1.390  0.00  0.00    +0.226 C 
ATOM     28  O   UNL     1      -3.433  -1.482   1.523  0.00  0.00    -0.275 OA
BRANCH  26  30
ATOM     29  C   UNL     1      -0.388   1.046  -0.118  0.00  0.00    +0.024 C 
ATOM     30  C   UNL     1      -0.389  -0.479  -0.002  0.00  0.00    +0.105 C 
ENDBRANCH  26  30
BRANCH  26  31
ATOM     31  C   UNL     1      -2.567  -1.290  -1.022  0.00  0.00    +0.203 C 
BRANCH  31  32
ATOM     32  C   UNL     1      -2.371  -2.743  -1.368  0.00  0.00    +0.231 C 
ATOM     33  O   UNL     1      -1.634  -3.433  -0.695  0.00  0.00    -0.274 OA
ATOM     34  N   UNL     1      -3.014  -3.278  -2.425  0.00  0.00    -0.312 N 
ATOM     35  H   UNL     1      -3.603  -2.726  -2.963  0.00  0.00    +0.149 HD
BRANCH  34  36
ATOM     36  C   UNL     1      -2.823  -4.691  -2.761  0.00  0.00    +0.067 C 
ATOM     37  C   UNL     1      -3.783  -5.546  -1.931  0.00  0.00    +0.027 C 
ATOM     38  C   UNL     1      -3.107  -4.904  -4.249  0.00  0.00    +0.027 C 
ENDBRANCH  34  36
ENDBRANCH  31  32
ENDBRANCH  26  31
ENDBRANCH  25  27
ENDBRANCH  24  25
ENDBRANCH   1  24
TORSDOF 9
