REMARK  Name = ZINC31632730
REMARK  6 active torsions:
REMARK  status: ('A' for Active; 'I' for Inactive)
REMARK    1  A    between atoms: C_1  and  C_2
REMARK    2  A    between atoms: C_2  and  C_23
REMARK    3  A    between atoms: N_5  and  C_9
REMARK    4  A    between atoms: C_9  and  C_10
REMARK    5  A    between atoms: N_12  and  C_13
REMARK    6  A    between atoms: C_16  and  N_20
REMARK                            x       y       z     vdW  Elec       q    Type
REMARK                         _______ _______ _______ _____ _____    ______ ____
ROOT
ATOM      1  C   UNL     1      -3.771   1.108  -1.013  0.00  0.00    +0.047 C 
ATOM      2  C   UNL     1      -2.923   0.738   0.205  0.00  0.00    +0.136 C 
ATOM      3  C   UNL     1      -3.711   0.932   1.486  0.00  0.00    +0.251 C 
ATOM      4  O   UNL     1      -4.178   1.968   1.909  0.00  0.00    -0.272 OA
ATOM      5  N   UNL     1      -3.782  -0.287   2.057  0.00  0.00    -0.215 N 
ATOM      6  C   UNL     1      -3.156  -1.213   1.323  0.00  0.00    +0.310 C 
ATOM      7  O   UNL     1      -3.085  -2.386   1.633  0.00  0.00    -0.252 OA
ATOM      8  N   UNL     1      -2.613  -0.702   0.203  0.00  0.00    -0.281 N 
ATOM      9  H   UNL     1      -2.037  -1.139  -0.625  0.00  0.00    +0.152 HD
ENDROOT
BRANCH   2  10
ATOM     10  C   UNL     1      -1.655   1.553   0.234  0.00  0.00    -0.008 A 
ATOM     11  C   UNL     1      -0.444   0.934   0.208  0.00  0.00    +0.007 A 
ATOM     12  C   UNL     1       0.739   1.671   0.228  0.00  0.00    +0.001 A 
ATOM     13  C   UNL     1       0.717   3.031   0.280  0.00  0.00    +0.008 A 
ATOM     14  C   UNL     1      -0.516   3.705   0.313  0.00  0.00    -0.018 A 
ATOM     15  C   UNL     1      -1.719   2.955   0.293  0.00  0.00    -0.012 A 
ATOM     16  C   UNL     1      -2.951   3.630   0.327  0.00  0.00    +0.009 A 
ATOM     17  C   UNL     1      -2.974   4.990   0.378  0.00  0.00    +0.001 A 
ATOM     18  C   UNL     1      -1.791   5.727   0.397  0.00  0.00    +0.001 A 
ATOM     19  C   UNL     1      -0.579   5.108   0.366  0.00  0.00    +0.008 A 
ENDBRANCH   2  10
BRANCH   5  20
ATOM     20  C   UNL     1      -4.461  -0.562   3.326  0.00  0.00    +0.214 C 
BRANCH  20  21
ATOM     21  C   UNL     1      -3.486  -0.398   4.463  0.00  0.00    +0.235 C 
ATOM     22  O   UNL     1      -2.338  -0.082   4.237  0.00  0.00    -0.274 OA
ATOM     23  N   UNL     1      -3.891  -0.602   5.732  0.00  0.00    -0.283 N 
ATOM     24  H   UNL     1      -4.907  -0.974   5.933  0.00  0.00    +0.155 HD
BRANCH  23  25
ATOM     25  C   UNL     1      -3.019  -0.342   6.796  0.00  0.00    +0.052 A 
ATOM     26  C   UNL     1      -1.981   0.566   6.637  0.00  0.00    +0.027 A 
ATOM     27  C   UNL     1      -1.125   0.825   7.690  0.00  0.00    +0.034 A 
ATOM     28  C   UNL     1      -1.294   0.174   8.898  0.00  0.00    +0.128 A 
ATOM     29  C   UNL     1      -2.324  -0.735   9.058  0.00  0.00    +0.054 A 
ATOM     30  C   UNL     1      -3.188  -0.995   8.011  0.00  0.00    +0.064 A 
ATOM     31 CL   UNL     1      -4.480  -2.136   8.212  0.00  0.00    -0.082 Cl
BRANCH  28  32
ATOM     32  N   UNL     1      -0.372   0.450  10.022  0.00  0.00    +0.056 N 
ATOM     33  O   UNL     1      -0.520  -0.123  11.086  0.00  0.00    -0.126 OA
ATOM     34  O   UNL     1       0.536   1.250   9.882  0.00  0.00    -0.126 OA
ENDBRANCH  28  32
ENDBRANCH  23  25
ENDBRANCH  20  21
ENDBRANCH   5  20
TORSDOF 5
