REMARK  Name = ZINC59378441
REMARK  8 active torsions:
REMARK  status: ('A' for Active; 'I' for Inactive)
REMARK    1  A    between atoms: C_4  and  O_30
REMARK    2  A    between atoms: C_5  and  C_7
REMARK    3  A    between atoms: C_7  and  C_8
REMARK    4  A    between atoms: C_8  and  C_9
REMARK    5  A    between atoms: N_11  and  N_12
REMARK    6  A    between atoms: C_13  and  C_14
REMARK    7  A    between atoms: C_17  and  S_19
REMARK    8  A    between atoms: S_19  and  C_20
REMARK                            x       y       z     vdW  Elec       q    Type
REMARK                         _______ _______ _______ _____ _____    ______ ____
ROOT
ATOM      1  N   UNL     1       1.534  -6.290   2.552  0.00  0.00    -0.185 NA
ATOM      2  C   UNL     1       1.652  -6.946   3.671  0.00  0.00    +0.176 C 
ENDROOT
BRANCH   2   3
ATOM      3  C   UNL     1       1.671  -8.409   3.662  0.00  0.00    +0.149 A 
ATOM      4  C   UNL     1       1.784  -9.215   4.760  0.00  0.00    +0.052 A 
ATOM      5  C   UNL     1       1.758 -10.540   4.296  0.00  0.00    +0.057 A 
ATOM      6  C   UNL     1       1.632 -10.486   2.943  0.00  0.00    +0.169 A 
ATOM      7  O   UNL     1       1.575  -9.196   2.569  0.00  0.00    -0.447 OA
BRANCH   6   8
ATOM      8  S   UNL     1       1.551 -11.875   1.861  0.00  0.00    -0.014 S 
BRANCH   8   9
ATOM      9  C   UNL     1       1.392 -11.159   0.259  0.00  0.00    +0.175 A 
ATOM     10  N   UNL     1       1.288 -11.861  -0.908  0.00  0.00    -0.333 N 
ATOM     11  H   UNL     1       1.288 -12.827  -1.000  0.00  0.00    +0.168 HD
ATOM     12  C   UNL     1       1.182 -10.938  -1.935  0.00  0.00    +0.067 A 
ATOM     13  C   UNL     1       1.053 -11.042  -3.312  0.00  0.00    +0.028 A 
ATOM     14  C   UNL     1       0.969  -9.900  -4.082  0.00  0.00    +0.002 A 
ATOM     15  C   UNL     1       1.014  -8.647  -3.488  0.00  0.00    +0.002 A 
ATOM     16  C   UNL     1       1.142  -8.525  -2.122  0.00  0.00    +0.030 A 
ATOM     17  C   UNL     1       1.228  -9.672  -1.328  0.00  0.00    +0.090 A 
ATOM     18  N   UNL     1       1.351  -9.873   0.010  0.00  0.00    -0.222 NA
ENDBRANCH   8   9
ENDBRANCH   6   8
ENDBRANCH   2   3
BRANCH   1  21
ATOM     19  C   UNL     1       1.393  -4.210   1.402  0.00  0.00    +0.233 C 
ATOM     20  O   UNL     1       1.299  -4.812   0.353  0.00  0.00    -0.274 OA
ATOM     21  N   UNL     1       1.516  -4.889   2.560  0.00  0.00    -0.207 N 
ATOM     22  H   UNL     1       1.591  -4.408   3.399  0.00  0.00    +0.177 HD
BRANCH  19  23
ATOM     23  C   UNL     1       1.374  -2.703   1.411  0.00  0.00    +0.102 C 
BRANCH  23  24
ATOM     24  C   UNL     1       1.227  -2.187  -0.022  0.00  0.00    +0.048 C 
BRANCH  24  29
ATOM     25  C   UNL     1      -0.017   1.378   0.010  0.00  0.00    +0.000 A 
ATOM     26  C   UNL     1       1.170   2.088   0.002  0.00  0.00    +0.004 A 
ATOM     27  C   UNL     1       2.377   1.417  -0.013  0.00  0.00    +0.045 A 
ATOM     28  C   UNL     1       2.399   0.030  -0.021  0.00  0.00    +0.120 A 
ATOM     29  C   UNL     1       1.207  -0.680  -0.013  0.00  0.00    -0.005 A 
ATOM     30  C   UNL     1       0.002  -0.004   0.002  0.00  0.00    +0.007 A 
BRANCH  28  31
ATOM     31  O   UNL     1       3.586  -0.632  -0.037  0.00  0.00    -0.506 OA
ATOM     32  H   UNL     1       3.938  -0.829   0.842  0.00  0.00    +0.292 HD
ENDBRANCH  28  31
ENDBRANCH  24  29
ENDBRANCH  23  24
ENDBRANCH  19  23
ENDBRANCH   1  21
TORSDOF 8
