REMARK  Name = ZINC39560967
REMARK  8 active torsions:
REMARK  status: ('A' for Active; 'I' for Inactive)
REMARK    1  A    between atoms: C_4  and  N_7
REMARK    2  A    between atoms: N_7  and  C_8
REMARK    3  A    between atoms: C_8  and  C_9
REMARK    4  A    between atoms: C_11  and  C_13
REMARK    5  A    between atoms: C_13  and  O_14
REMARK    6  A    between atoms: O_14  and  C_15
REMARK    7  A    between atoms: C_15  and  C_17
REMARK    8  A    between atoms: C_19  and  N_25
REMARK                            x       y       z     vdW  Elec       q    Type
REMARK                         _______ _______ _______ _____ _____    ______ ____
ROOT
ATOM      1  O   UNL     1       4.725  -4.127   0.242  0.00  0.00    -0.451 OA
ENDROOT
BRANCH   1   2
ATOM      2  C   UNL     1       5.806  -4.925   0.335  0.00  0.00    +0.360 C 
ATOM      3  O   UNL     1       6.920  -4.440   0.340  0.00  0.00    -0.243 OA
BRANCH   2   4
ATOM      4  C   UNL     1       5.638  -6.391   0.431  0.00  0.00    +0.169 A 
ATOM      5  C   UNL     1       6.760  -7.209   0.533  0.00  0.00    +0.095 A 
ATOM      6  C   UNL     1       6.584  -8.591   0.623  0.00  0.00    +0.067 A 
ATOM      7  C   UNL     1       5.285  -9.094   0.608  0.00  0.00    +0.100 A 
ATOM      8  C   UNL     1       4.218  -8.215   0.504  0.00  0.00    +0.150 A 
ATOM      9  N   UNL     1       4.416  -6.916   0.426  0.00  0.00    -0.226 NA
ATOM     10 CL   UNL     1       2.597  -8.835   0.484  0.00  0.00    -0.060 Cl
ATOM     11 CL   UNL     1       5.005 -10.804   0.717  0.00  0.00    -0.078 Cl
ATOM     12 CL   UNL     1       8.354  -6.521   0.546  0.00  0.00    -0.079 Cl
BRANCH   6  13
ATOM     13  N   UNL     1       7.680  -9.445   0.726  0.00  0.00    -0.356 N 
ATOM     14  H   UNL     1       8.579  -9.082   0.735  0.00  0.00    +0.142 HD
ATOM     15  H   UNL     1       7.543 -10.403   0.788  0.00  0.00    +0.142 HD
ENDBRANCH   6  13
ENDBRANCH   2   4
ENDBRANCH   1   2
BRANCH   1  16
ATOM     16  C   UNL     1       4.962  -2.721   0.153  0.00  0.00    +0.328 C 
BRANCH  16  18
ATOM     17  N   UNL     1       3.622  -0.651  -0.037  0.00  0.00    -0.255 N 
ATOM     18  C   UNL     1       3.645  -1.995   0.057  0.00  0.00    +0.258 C 
ATOM     19  O   UNL     1       2.606  -2.620   0.064  0.00  0.00    -0.271 OA
BRANCH  17  23
ATOM     20  C   UNL     1      -0.018   1.376  -0.006  0.00  0.00    +0.000 A 
ATOM     21  C   UNL     1       0.750   1.355  -1.156  0.00  0.00    +0.002 A 
ATOM     22  C   UNL     1       1.957   0.684  -1.169  0.00  0.00    +0.023 A 
ATOM     23  C   UNL     1       2.399   0.030  -0.027  0.00  0.00    +0.037 A 
ATOM     24  C   UNL     1       1.626   0.054   1.127  0.00  0.00    +0.023 A 
ATOM     25  C   UNL     1       0.420   0.727   1.134  0.00  0.00    +0.002 A 
ENDBRANCH  17  23
BRANCH  17  26
ATOM     26  C   UNL     1       4.876   0.097  -0.151  0.00  0.00    +0.232 C 
BRANCH  26  27
ATOM     27  C   UNL     1       5.363   0.446   1.193  0.00  0.00    +0.082 C 
ATOM     28  N   UNL     1       5.739   0.715   2.231  0.00  0.00    -0.195 NA
ENDBRANCH  26  27
ENDBRANCH  17  26
ENDBRANCH  16  18
ENDBRANCH   1  16
TORSDOF 8
