REMARK  Name = ZINC54551062
REMARK  7 active torsions:
REMARK  status: ('A' for Active; 'I' for Inactive)
REMARK    1  A    between atoms: C_1  and  C_2
REMARK    2  A    between atoms: C_6  and  N_9
REMARK    3  A    between atoms: C_7  and  C_8
REMARK    4  A    between atoms: C_16  and  N_28
REMARK    5  A    between atoms: C_17  and  N_21
REMARK    6  A    between atoms: C_22  and  C_27
REMARK    7  A    between atoms: C_24  and  C_26
REMARK                            x       y       z     vdW  Elec       q    Type
REMARK                         _______ _______ _______ _____ _____    ______ ____
ROOT
ATOM      1  N   UNL     1      -0.179  -3.364   1.934  0.00  0.00    -0.327 N 
ATOM      2  C   UNL     1      -1.398  -3.679   2.692  0.00  0.00    +0.124 C 
ATOM      3  C   UNL     1      -1.343  -5.150   3.120  0.00  0.00    +0.125 C 
ATOM      4  N   UNL     1      -0.036  -5.410   3.741  0.00  0.00    -0.311 N 
ATOM      5  C   UNL     1       1.183  -5.095   2.983  0.00  0.00    +0.125 C 
ATOM      6  C   UNL     1       1.127  -3.628   2.552  0.00  0.00    +0.124 C 
ATOM      7  C   UNL     1       0.045  -5.942   5.021  0.00  0.00    +0.148 A 
ATOM      8  C   UNL     1      -0.017  -7.325   5.221  0.00  0.00    +0.110 A 
ATOM      9  C   UNL     1       0.069  -7.806   6.526  0.00  0.00    +0.180 A 
ATOM     10  N   UNL     1       0.206  -6.939   7.525  0.00  0.00    -0.215 NA
ATOM     11  C   UNL     1       0.261  -5.643   7.295  0.00  0.00    +0.225 A 
ATOM     12  N   UNL     1       0.188  -5.146   6.076  0.00  0.00    -0.219 NA
ENDROOT
BRANCH   1  18
ATOM     13  C   UNL     1      -0.414   0.569  -1.005  0.00  0.00    +0.044 C 
ATOM     14  C   UNL     1      -0.376  -0.925  -0.808  0.00  0.00    -0.046 A 
ATOM     15  C   UNL     1      -0.422  -1.767  -1.904  0.00  0.00    +0.004 A 
ATOM     16  C   UNL     1      -0.389  -3.138  -1.728  0.00  0.00    +0.002 A 
ATOM     17  C   UNL     1      -0.308  -3.671  -0.457  0.00  0.00    +0.023 A 
ATOM     18  C   UNL     1      -0.261  -2.828   0.646  0.00  0.00    +0.033 A 
ATOM     19  C   UNL     1      -0.290  -1.451   0.466  0.00  0.00    -0.027 A 
ATOM     20  C   UNL     1      -0.233  -0.532   1.659  0.00  0.00    +0.046 C 
ENDBRANCH   1  18
BRANCH   9  21
ATOM     21  N   UNL     1       0.012  -9.179   6.781  0.00  0.00    -0.217 N 
ATOM     22  C   UNL     1      -0.040  -9.764   8.006  0.00  0.00    +0.044 A 
ATOM     23  C   UNL     1      -0.086 -11.103   7.819  0.00  0.00    +0.048 A 
ATOM     24  C   UNL     1      -0.061 -11.348   6.442  0.00  0.00    +0.061 A 
ATOM     25  N   UNL     1      -0.008 -10.198   5.820  0.00  0.00    -0.170 NA
ATOM     26  C   UNL     1      -0.095 -12.704   5.786  0.00  0.00    +0.067 C 
ATOM     27  C   UNL     1      -0.046  -9.050   9.334  0.00  0.00    +0.066 C 
ENDBRANCH   9  21
BRANCH   8  28
ATOM     28  N   UNL     1      -0.163  -8.204   4.138  0.00  0.00    -0.352 N 
ATOM     29  H   UNL     1      -0.134  -7.863   3.230  0.00  0.00    +0.143 HD
ATOM     30  H   UNL     1      -0.293  -9.152   4.296  0.00  0.00    +0.143 HD
ENDBRANCH   8  28
TORSDOF 3
