REMARK  Name = ZINC24808103
REMARK  6 active torsions:
REMARK  status: ('A' for Active; 'I' for Inactive)
REMARK    1  A    between atoms: C_1  and  C_2
REMARK    2  A    between atoms: C_2  and  C_4
REMARK    3  A    between atoms: C_2  and  N_12
REMARK    4  A    between atoms: N_12  and  C_13
REMARK    5  A    between atoms: C_13  and  C_15
REMARK    6  A    between atoms: C_13  and  C_21
REMARK                            x       y       z     vdW  Elec       q    Type
REMARK                         _______ _______ _______ _____ _____    ______ ____
ROOT
ATOM      1  C   UNL     1      -0.432   0.673   2.357  0.00  0.00    +0.172 C 
ENDROOT
BRANCH   1   2
ATOM      2  C   UNL     1      -1.401  -0.480   2.336  0.00  0.00    +0.242 C 
ATOM      3  O   UNL     1      -2.233  -0.557   1.458  0.00  0.00    -0.273 OA
ATOM      4  N   UNL     1      -1.343  -1.427   3.293  0.00  0.00    -0.239 N 
ATOM      5  C   UNL     1      -2.210  -2.459   3.274  0.00  0.00    +0.303 C 
ATOM      6  O   UNL     1      -3.044  -2.535   2.394  0.00  0.00    -0.253 OA
ATOM      7  N   UNL     1      -2.151  -3.406   4.231  0.00  0.00    -0.313 N 
ATOM      8  H   UNL     1      -0.587  -1.358   4.090  0.00  0.00    +0.159 HD
ATOM      9  H   UNL     1      -2.859  -4.248   4.216  0.00  0.00    +0.146 HD
ATOM     10  H   UNL     1      -1.396  -3.337   5.028  0.00  0.00    +0.146 HD
ENDBRANCH   1   2
BRANCH   1  11
ATOM     11  C   UNL     1      -0.595   1.444   3.642  0.00  0.00    -0.022 A 
ATOM     12  C   UNL     1      -1.624   2.358   3.773  0.00  0.00    +0.005 A 
ATOM     13  C   UNL     1      -1.777   3.061   4.953  0.00  0.00    +0.000 A 
ATOM     14  C   UNL     1      -0.896   2.857   5.998  0.00  0.00    +0.000 A 
ATOM     15  C   UNL     1       0.136   1.947   5.865  0.00  0.00    +0.000 A 
ATOM     16  C   UNL     1       0.286   1.240   4.687  0.00  0.00    +0.005 A 
ENDBRANCH   1  11
BRANCH   1  17
ATOM     17  N   UNL     1      -0.700   1.560   1.217  0.00  0.00    -0.295 NA
ATOM     18  H   UNL     1      -0.348   2.571   1.466  0.00  0.00    +0.124 HD
BRANCH  17  20
ATOM     19  C   UNL     1       1.423   1.615  -0.003  0.00  0.00    +0.029 C 
ATOM     20  C   UNL     1      -0.013   1.086   0.008  0.00  0.00    +0.083 C 
BRANCH  20  21
ATOM     21  C   UNL     1      -0.742   1.585  -1.213  0.00  0.00    -0.012 A 
ATOM     22  C   UNL     1      -1.518   2.726  -1.136  0.00  0.00    +0.008 A 
ATOM     23  C   UNL     1      -2.182   3.188  -2.256  0.00  0.00    +0.020 A 
ATOM     24  C   UNL     1      -2.079   2.502  -3.454  0.00  0.00    +0.042 A 
ATOM     25  C   UNL     1      -1.307   1.357  -3.530  0.00  0.00    +0.040 A 
ATOM     26  C   UNL     1      -0.638   0.898  -2.409  0.00  0.00    +0.047 A 
ATOM     27 CL   UNL     1       0.332  -0.538  -2.504  0.00  0.00    -0.083 Cl
ATOM     28 CL   UNL     1      -2.919   3.078  -4.859  0.00  0.00    -0.083 Cl
ENDBRANCH  20  21
ENDBRANCH  17  20
ENDBRANCH   1  17
TORSDOF 5
