REMARK  Name = ZINC39515619
REMARK  10 active torsions:
REMARK  status: ('A' for Active; 'I' for Inactive)
REMARK    1  A    between atoms: C_1  and  C_2
REMARK    2  A    between atoms: C_7  and  C_8
REMARK    3  A    between atoms: C_9  and  C_19
REMARK    4  A    between atoms: C_19  and  N_20
REMARK    5  A    between atoms: N_20  and  C_21
REMARK    6  A    between atoms: C_21  and  C_22
REMARK    7  A    between atoms: C_22  and  N_23
REMARK    8  A    between atoms: N_23  and  C_24
REMARK    9  A    between atoms: N_23  and  C_25
REMARK   10  A    between atoms: C_26  and  C_28
REMARK                            x       y       z     vdW  Elec       q    Type
REMARK                         _______ _______ _______ _____ _____    ______ ____
ROOT
ATOM      1  N   UNL     1       0.123  -3.023   3.877  0.00  0.00    -0.295 N 
ATOM      2  C   UNL     1       0.462  -3.119   2.577  0.00  0.00    +0.252 C 
ATOM      3  O   UNL     1      -0.351  -3.517   1.764  0.00  0.00    -0.270 OA
ENDROOT
BRANCH   2   4
ATOM      4  C   UNL     1       1.815  -2.741   2.140  0.00  0.00    +0.101 A 
ATOM      5  C   UNL     1       2.046  -2.302   0.841  0.00  0.00    +0.023 A 
ATOM      6  C   UNL     1       3.344  -1.946   0.450  0.00  0.00    -0.027 A 
ATOM      7  C   UNL     1       3.534  -1.494  -0.975  0.00  0.00    +0.037 C 
ATOM      8  C   UNL     1       4.856  -0.747  -1.133  0.00  0.00    +0.005 C 
ATOM      9  C   UNL     1       5.970  -1.609  -0.526  0.00  0.00    +0.006 C 
ATOM     10  C   UNL     1       5.778  -1.642   0.988  0.00  0.00    +0.053 C 
ATOM     11  C   UNL     1       4.362  -2.025   1.338  0.00  0.00    +0.022 A 
ATOM     12  N   UNL     1       4.137  -2.462   2.610  0.00  0.00    -0.325 N 
ATOM     13  C   UNL     1       2.913  -2.811   3.036  0.00  0.00    +0.261 A 
ATOM     14  O   UNL     1       2.747  -3.190   4.182  0.00  0.00    -0.267 OA
ATOM     15  H   UNL     1       4.884  -2.518   3.227  0.00  0.00    +0.169 HD
ENDBRANCH   2   4
BRANCH   1  16
ATOM     16  C   UNL     1      -1.214  -3.431   4.318  0.00  0.00    +0.145 C 
BRANCH  16  18
ATOM     17  C   UNL     1      -2.047  -1.629   5.873  0.00  0.00    +0.077 A 
ATOM     18  C   UNL     1      -2.047  -2.206   4.593  0.00  0.00    -0.004 A 
ATOM     19  C   UNL     1      -2.802  -1.655   3.601  0.00  0.00    +0.017 A 
ATOM     20  C   UNL     1      -3.566  -0.510   3.900  0.00  0.00    +0.001 A 
ATOM     21  C   UNL     1      -4.365   0.107   2.924  0.00  0.00    +0.013 A 
ATOM     22  C   UNL     1      -5.092   1.212   3.247  0.00  0.00    +0.039 A 
ATOM     23  C   UNL     1      -5.053   1.742   4.538  0.00  0.00    +0.125 A 
ATOM     24  C   UNL     1      -4.287   1.168   5.509  0.00  0.00    +0.066 A 
ATOM     25  C   UNL     1      -3.524   0.026   5.212  0.00  0.00    +0.074 A 
ATOM     26  N   UNL     1      -2.770  -0.559   6.146  0.00  0.00    -0.246 NA
ATOM     27  F   UNL     1      -5.784   2.840   4.829  0.00  0.00    -0.205 F 
BRANCH  17  34
ATOM     28  C   UNL     1      -2.361  -0.739   8.608  0.00  0.00    +0.044 C 
ATOM     29  C   UNL     1      -1.366  -1.817   8.264  0.00  0.00    -0.041 A 
ATOM     30  C   UNL     1      -0.600  -2.393   9.257  0.00  0.00    +0.004 A 
ATOM     31  C   UNL     1       0.314  -3.383   8.943  0.00  0.00    +0.000 A 
ATOM     32  C   UNL     1       0.466  -3.801   7.632  0.00  0.00    +0.001 A 
ATOM     33  C   UNL     1      -0.295  -3.232   6.631  0.00  0.00    +0.010 A 
ATOM     34  C   UNL     1      -1.222  -2.239   6.943  0.00  0.00    +0.004 A 
ENDBRANCH  17  34
ENDBRANCH  16  18
ENDBRANCH   1  16
BRANCH   1  35
ATOM     35  C   UNL     1       1.091  -2.512   4.851  0.00  0.00    +0.090 C 
BRANCH  35  36
ATOM     36  C   UNL     1       1.629  -3.671   5.692  0.00  0.00    -0.060 C 
BRANCH  36  37
ATOM     37  N   UNL     1       2.683  -3.178   6.588  0.00  0.00    +0.377 N 
ATOM     38  C   UNL     1       2.128  -2.147   7.476  0.00  0.00    -0.097 C 
ATOM     39  C   UNL     1       3.201  -4.291   7.395  0.00  0.00    -0.097 C 
ATOM     40  H   UNL     1       3.433  -2.782   6.041  0.00  0.00    -0.083 HD
ENDBRANCH  36  37
ENDBRANCH  35  36
ENDBRANCH   1  35
TORSDOF 7
