REMARK  Name = ZINC09347510
REMARK  6 active torsions:
REMARK  status: ('A' for Active; 'I' for Inactive)
REMARK    1  A    between atoms: C_1  and  C_2
REMARK    2  A    between atoms: C_2  and  O_3
REMARK    3  A    between atoms: O_3  and  C_4
REMARK    4  A    between atoms: C_12  and  N_17
REMARK    5  A    between atoms: C_13  and  C_14
REMARK    6  A    between atoms: C_18  and  C_20
REMARK                            x       y       z     vdW  Elec       q    Type
REMARK                         _______ _______ _______ _____ _____    ______ ____
ROOT
ATOM      1  C   UNL     1      -9.902  11.612  -0.902  0.00  0.00    +0.403 C 
ATOM      2  O   UNL     1     -11.043  11.230  -1.072  0.00  0.00    -0.226 OA
ATOM      3  N   UNL     1      -9.077  10.928  -0.085  0.00  0.00    -0.262 N 
ATOM      4  C   UNL     1      -9.529   9.716   0.616  0.00  0.00    +0.116 C 
ATOM      5  C   UNL     1      -8.731   8.509   0.119  0.00  0.00    +0.056 C 
ATOM      6  C   UNL     1      -7.248   8.855   0.117  0.00  0.00    -0.020 A 
ATOM      7  C   UNL     1      -6.826  10.139   0.122  0.00  0.00    +0.013 A 
ATOM      8  S   UNL     1      -5.060  10.039   0.110  0.00  0.00    -0.076 S 
ATOM      9  C   UNL     1      -4.878   8.316   0.093  0.00  0.00    +0.085 A 
ATOM     10  C   UNL     1      -6.189   7.859   0.103  0.00  0.00    +0.068 A 
ATOM     11  C   UNL     1      -7.686  11.367   0.142  0.00  0.00    +0.153 C 
ENDROOT
BRANCH  10  12
ATOM     12  C   UNL     1      -6.494   6.426   0.100  0.00  0.00    +0.244 C 
ATOM     13  O   UNL     1      -6.611   5.826   1.153  0.00  0.00    -0.270 OA
ATOM     14  N   UNL     1      -6.646   5.771  -1.068  0.00  0.00    -0.325 N 
ATOM     15  H   UNL     1      -6.553   6.249  -1.907  0.00  0.00    +0.145 HD
ATOM     16  H   UNL     1      -6.848   4.822  -1.070  0.00  0.00    +0.145 HD
ENDBRANCH  10  12
BRANCH   9  17
ATOM     17  N   UNL     1      -3.708   7.574   0.078  0.00  0.00    -0.275 N 
ATOM     18  C   UNL     1      -2.514   8.198   0.070  0.00  0.00    +0.256 C 
ATOM     19  O   UNL     1      -2.463   9.414   0.075  0.00  0.00    -0.270 OA
ATOM     20  H   UNL     1      -3.749   6.604   0.074  0.00  0.00    +0.156 HD
BRANCH  18  21
ATOM     21  C   UNL     1      -1.272   7.410   0.054  0.00  0.00    +0.122 A 
ATOM     22  C   UNL     1      -1.312   6.021   0.046  0.00  0.00    +0.032 A 
ATOM     23  C   UNL     1      -0.098   5.309   0.032  0.00  0.00    +0.026 A 
ATOM     24  C   UNL     1      -0.094   3.844   0.024  0.00  0.00    -0.007 A 
ATOM     25  C   UNL     1      -1.282   3.109   0.031  0.00  0.00    +0.009 A 
ATOM     26  C   UNL     1      -1.232   1.745   0.017  0.00  0.00    +0.001 A 
ATOM     27  C   UNL     1      -0.013   1.076   0.008  0.00  0.00    +0.001 A 
ATOM     28  C   UNL     1       1.164   1.764   0.000  0.00  0.00    +0.008 A 
ATOM     29  C   UNL     1       1.149   3.167   0.008  0.00  0.00    -0.017 A 
ATOM     30  C   UNL     1       2.344   3.913   0.001  0.00  0.00    +0.012 A 
ATOM     31  C   UNL     1       2.325   5.269   0.008  0.00  0.00    +0.047 A 
ATOM     32  C   UNL     1       1.126   5.992   0.024  0.00  0.00    +0.140 A 
ATOM     33  O   UNL     1       1.161   7.341   0.030  0.00  0.00    -0.422 OA
ATOM     34  C   UNL     1       0.035   8.073   0.045  0.00  0.00    +0.350 A 
ATOM     35  O   UNL     1       0.101   9.289   0.050  0.00  0.00    -0.244 OA
ENDBRANCH  18  21
ENDBRANCH   9  17
BRANCH   1  36
ATOM     36  O   UNL     1      -9.462  12.718  -1.530  0.00  0.00    -0.451 OA
BRANCH  36  38
ATOM     37  C   UNL     1      -9.729  14.629  -3.016  0.00  0.00    +0.048 C 
ATOM     38  C   UNL     1     -10.405  13.405  -2.395  0.00  0.00    +0.230 C 
ENDBRANCH  36  38
ENDBRANCH   1  36
TORSDOF 5
