REMARK  Name = ZINC59227745
REMARK  8 active torsions:
REMARK  status: ('A' for Active; 'I' for Inactive)
REMARK    1  A    between atoms: C_1  and  C_2
REMARK    2  A    between atoms: C_3  and  C_28
REMARK    3  A    between atoms: C_4  and  C_10
REMARK    4  A    between atoms: C_13  and  O_16
REMARK    5  A    between atoms: O_16  and  C_17
REMARK    6  A    between atoms: C_17  and  C_18
REMARK    7  A    between atoms: N_30  and  C_31
REMARK    8  A    between atoms: C_31  and  C_32
REMARK                            x       y       z     vdW  Elec       q    Type
REMARK                         _______ _______ _______ _____ _____    ______ ____
ROOT
ATOM      1  C   UNL     1      -0.049   1.498   0.066  0.00  0.00    +0.061 C 
ATOM      2  C   UNL     1      -0.016  -0.008   0.017  0.00  0.00    +0.017 C 
ATOM      3  C   UNL     1      -1.176  -0.698   0.028  0.00  0.00    +0.055 C 
ATOM      4  C   UNL     1      -1.098  -2.210  -0.022  0.00  0.00    +0.139 C 
ATOM      5  N   UNL     1       0.246  -2.807  -0.080  0.00  0.00    -0.315 N 
ATOM      6  C   UNL     1       1.314  -1.984  -0.085  0.00  0.00    +0.135 C 
ATOM      7  S   UNL     1       2.884  -2.664  -0.153  0.00  0.00    -0.019 S 
ATOM      8  N   UNL     1       1.186  -0.652  -0.044  0.00  0.00    -0.300 N 
ATOM      9  H   UNL     1       0.361  -3.770  -0.114  0.00  0.00    +0.149 HD
ATOM     10  H   UNL     1       1.994  -0.114  -0.054  0.00  0.00    +0.154 HD
ENDROOT
BRANCH   4  11
ATOM     11  C   UNL     1      -1.794  -2.752   1.200  0.00  0.00    -0.022 A 
ATOM     12  C   UNL     1      -1.183  -2.667   2.437  0.00  0.00    +0.009 A 
ATOM     13  C   UNL     1      -1.819  -3.164   3.558  0.00  0.00    +0.046 A 
ATOM     14  C   UNL     1      -3.072  -3.748   3.442  0.00  0.00    +0.121 A 
ATOM     15  C   UNL     1      -3.683  -3.831   2.200  0.00  0.00    +0.046 A 
ATOM     16  C   UNL     1      -3.046  -3.328   1.082  0.00  0.00    +0.009 A 
BRANCH  14  17
ATOM     17  O   UNL     1      -3.699  -4.237   4.544  0.00  0.00    -0.487 OA
BRANCH  17  18
ATOM     18  C   UNL     1      -4.987  -4.825   4.350  0.00  0.00    +0.265 C 
BRANCH  18  19
ATOM     19  C   UNL     1      -5.524  -5.308   5.672  0.00  0.00    -0.003 A 
ATOM     20  C   UNL     1      -4.792  -5.143   6.809  0.00  0.00    +0.007 A 
ATOM     21  C   UNL     1      -5.271  -5.584   8.040  0.00  0.00    +0.001 A 
ATOM     22  C   UNL     1      -6.485  -6.192   8.144  0.00  0.00    +0.008 A 
ATOM     23  C   UNL     1      -7.268  -6.380   6.992  0.00  0.00    -0.018 A 
ATOM     24  C   UNL     1      -6.784  -5.926   5.740  0.00  0.00    -0.011 A 
ATOM     25  C   UNL     1      -7.570  -6.109   4.590  0.00  0.00    +0.009 A 
ATOM     26  C   UNL     1      -8.786  -6.712   4.694  0.00  0.00    +0.001 A 
ATOM     27  C   UNL     1      -9.265  -7.152   5.926  0.00  0.00    +0.001 A 
ATOM     28  C   UNL     1      -8.526  -7.005   7.059  0.00  0.00    +0.008 A 
ENDBRANCH  18  19
ENDBRANCH  17  18
ENDBRANCH  14  17
ENDBRANCH   4  11
BRANCH   3  29
ATOM     29  C   UNL     1      -2.425  -0.030   0.086  0.00  0.00    +0.244 C 
ATOM     30  O   UNL     1      -3.084   0.117  -0.927  0.00  0.00    -0.270 OA
ATOM     31  N   UNL     1      -2.882   0.443   1.263  0.00  0.00    -0.307 N 
ATOM     32  H   UNL     1      -2.325   0.393   2.055  0.00  0.00    +0.149 HD
BRANCH  31  33
ATOM     33  C   UNL     1      -4.221   1.032   1.345  0.00  0.00    +0.139 C 
BRANCH  33  34
ATOM     34  C   UNL     1      -4.487   1.479   2.759  0.00  0.00    -0.030 A 
ATOM     35  C   UNL     1      -5.062   0.606   3.663  0.00  0.00    +0.005 A 
ATOM     36  C   UNL     1      -5.306   1.017   4.960  0.00  0.00    +0.000 A 
ATOM     37  C   UNL     1      -4.975   2.300   5.353  0.00  0.00    +0.000 A 
ATOM     38  C   UNL     1      -4.399   3.173   4.449  0.00  0.00    +0.000 A 
ATOM     39  C   UNL     1      -4.151   2.761   3.153  0.00  0.00    +0.005 A 
ENDBRANCH  33  34
ENDBRANCH  31  33
ENDBRANCH   3  29
TORSDOF 7
