REMARK  Name = ZINC06556311
REMARK  3 active torsions:
REMARK  status: ('A' for Active; 'I' for Inactive)
REMARK    1  A    between atoms: C_1  and  C_2
REMARK    2  A    between atoms: C_3  and  O_19
REMARK    3  A    between atoms: C_10  and  C_13
REMARK                            x       y       z     vdW  Elec       q    Type
REMARK                         _______ _______ _______ _____ _____    ______ ____
ROOT
ATOM      1  C   UNL     1      -1.669   6.292   0.049  0.00  0.00    +0.051 C 
ATOM      2  C   UNL     1      -0.299   5.663   0.034  0.00  0.00    +0.034 A 
ATOM      3  C   UNL     1       0.832   6.462   0.027  0.00  0.00    +0.123 A 
ATOM      4  C   UNL     1       2.103   5.892   0.012  0.00  0.00    +0.046 A 
ATOM      5  C   UNL     1       2.249   4.534   0.005  0.00  0.00    +0.019 A 
ATOM      6  C   UNL     1       1.119   3.716   0.011  0.00  0.00    +0.065 A 
ATOM      7  C   UNL     1      -0.168   4.281   0.026  0.00  0.00    +0.145 A 
ATOM      8  O   UNL     1      -1.259   3.489   0.032  0.00  0.00    -0.462 OA
ATOM      9  C   UNL     1      -1.196   2.155   0.019  0.00  0.00    +0.208 A 
ATOM     10  C   UNL     1      -0.018   1.479   0.010  0.00  0.00    +0.064 A 
ATOM     11  C   UNL     1       1.239   2.247   0.002  0.00  0.00    +0.200 A 
ATOM     12  O   UNL     1       2.325   1.694  -0.011  0.00  0.00    -0.286 OA
ENDROOT
BRANCH  10  13
ATOM     13  C   UNL     1       0.002  -0.004   0.002  0.00  0.00    -0.011 A 
ATOM     14  C   UNL     1       0.773  -0.688  -0.936  0.00  0.00    +0.009 A 
ATOM     15  C   UNL     1       0.792  -2.068  -0.936  0.00  0.00    +0.001 A 
ATOM     16  C   UNL     1       0.039  -2.772  -0.014  0.00  0.00    +0.000 A 
ATOM     17  C   UNL     1      -0.732  -2.099   0.916  0.00  0.00    +0.001 A 
ATOM     18  C   UNL     1      -0.754  -0.719   0.929  0.00  0.00    +0.009 A 
ENDBRANCH  10  13
BRANCH   3  19
ATOM     19  O   UNL     1       0.701   7.813   0.035  0.00  0.00    -0.506 OA
ATOM     20  H   UNL     1       1.596   8.453   0.030  0.00  0.00    +0.292 HD
ENDBRANCH   3  19
TORSDOF 2
