REMARK  Name = ZINC24891835
REMARK  7 active torsions:
REMARK  status: ('A' for Active; 'I' for Inactive)
REMARK    1  A    between atoms: C_1  and  C_2
REMARK    2  A    between atoms: C_5  and  N_9
REMARK    3  A    between atoms: C_18  and  S_19
REMARK    4  A    between atoms: S_19  and  C_20
REMARK    5  A    between atoms: C_20  and  C_21
REMARK    6  A    between atoms: C_21  and  C_22
REMARK    7  A    between atoms: C_29  and  C_33
REMARK                            x       y       z     vdW  Elec       q    Type
REMARK                         _______ _______ _______ _____ _____    ______ ____
ROOT
ATOM      1  N   UNL     1      -3.579   2.694   0.051  0.00  0.00    -0.255 N 
ATOM      2  C   UNL     1      -2.617   1.875   0.537  0.00  0.00    +0.268 A 
ATOM      3  O   UNL     1      -2.872   0.768   0.979  0.00  0.00    -0.267 OA
ATOM      4  C   UNL     1      -1.280   2.391   0.506  0.00  0.00    +0.076 A 
ATOM      5  C   UNL     1      -0.076   1.714   0.958  0.00  0.00    -0.023 A 
ATOM      6  C   UNL     1       1.087   2.391   0.826  0.00  0.00    -0.004 A 
ATOM      7  S   UNL     1       0.641   3.945   0.093  0.00  0.00    -0.073 S 
ATOM      8  C   UNL     1      -1.100   3.686  -0.035  0.00  0.00    +0.117 A 
ATOM      9  N   UNL     1      -2.089   4.441  -0.497  0.00  0.00    -0.216 NA
ATOM     10  C   UNL     1      -3.314   3.936  -0.447  0.00  0.00    +0.177 A 
ATOM     11  C   UNL     1       2.456   1.927   1.216  0.00  0.00    +0.046 C 
ATOM     12  C   UNL     1       2.313   0.706   2.136  0.00  0.00    -0.009 C 
ATOM     13  C   UNL     1       1.319  -0.271   1.501  0.00  0.00    +0.008 C 
ATOM     14  C   UNL     1      -0.093   0.312   1.562  0.00  0.00    +0.037 C 
ATOM     15  C   UNL     1       3.671   0.021   2.302  0.00  0.00    +0.008 C 
ENDROOT
BRANCH   1  20
ATOM     16  C   UNL     1      -8.957   0.881   0.093  0.00  0.00    +0.045 C 
ATOM     17  C   UNL     1      -7.529   1.362   0.082  0.00  0.00    -0.032 A 
ATOM     18  C   UNL     1      -7.026   2.056   1.167  0.00  0.00    +0.007 A 
ATOM     19  C   UNL     1      -5.716   2.494   1.162  0.00  0.00    +0.026 A 
ATOM     20  C   UNL     1      -4.906   2.246   0.061  0.00  0.00    +0.053 A 
ATOM     21  C   UNL     1      -5.413   1.550  -1.027  0.00  0.00    +0.046 A 
ATOM     22  C   UNL     1      -6.723   1.109  -1.015  0.00  0.00    +0.046 A 
ATOM     23 CL   UNL     1      -7.359   0.237  -2.375  0.00  0.00    -0.083 Cl
ENDBRANCH   1  20
BRANCH  10  24
ATOM     24  S   UNL     1      -4.654   4.907  -1.051  0.00  0.00    -0.087 S 
BRANCH  24  25
ATOM     25  C   UNL     1      -3.757   6.392  -1.569  0.00  0.00    +0.086 C 
BRANCH  25  26
ATOM     26  C   UNL     1      -4.745   7.410  -2.144  0.00  0.00    +0.107 C 
BRANCH  26  27
ATOM     27  C   UNL     1      -3.998   8.646  -2.574  0.00  0.00    +0.221 C 
ATOM     28  O   UNL     1      -2.796   8.707  -2.435  0.00  0.00    -0.275 OA
ATOM     29  N   UNL     1      -4.668   9.684  -3.114  0.00  0.00    -0.240 N 
ATOM     30  C   UNL     1      -4.000  10.789  -3.499  0.00  0.00    +0.303 C 
ATOM     31  O   UNL     1      -2.794  10.851  -3.360  0.00  0.00    -0.253 OA
ATOM     32  N   UNL     1      -4.670  11.827  -4.040  0.00  0.00    -0.313 N 
ATOM     33  H   UNL     1      -5.759   9.628  -3.241  0.00  0.00    +0.159 HD
ATOM     34  H   UNL     1      -4.125  12.729  -4.354  0.00  0.00    +0.146 HD
ATOM     35  H   UNL     1      -5.761  11.771  -4.166  0.00  0.00    +0.146 HD
ENDBRANCH  26  27
ENDBRANCH  25  26
ENDBRANCH  24  25
ENDBRANCH  10  24
TORSDOF 5
