REMARK  Name = ZINC39530042
REMARK  6 active torsions:
REMARK  status: ('A' for Active; 'I' for Inactive)
REMARK    1  A    between atoms: C_4  and  O_7
REMARK    2  A    between atoms: O_7  and  S_8
REMARK    3  A    between atoms: S_8  and  C_11
REMARK    4  A    between atoms: N_14  and  C_18
REMARK    5  A    between atoms: C_23  and  C_24
REMARK    6  A    between atoms: C_29  and  O_30
REMARK                            x       y       z     vdW  Elec       q    Type
REMARK                         _______ _______ _______ _____ _____    ______ ____
ROOT
ATOM      1  C   UNL     1       3.125  -2.313   1.960  0.00  0.00    +0.133 C 
ATOM      2  C   UNL     1       3.599  -2.713   3.361  0.00  0.00    +0.115 C 
ATOM      3  N   UNL     1       2.851  -3.907   3.784  0.00  0.00    -0.331 N 
ATOM      4  C   UNL     1       2.792  -5.051   2.860  0.00  0.00    +0.086 C 
ATOM      5  C   UNL     1       2.356  -4.541   1.483  0.00  0.00    -0.061 C 
ATOM      6  N   UNL     1       3.255  -3.462   1.054  0.00  0.00    +0.398 N 
ATOM      7  H   UNL     1       3.014  -3.177   0.116  0.00  0.00    -0.083 HD
ATOM      8  H   UNL     1       4.207  -3.794   1.068  0.00  0.00    -0.083 HD
ENDROOT
BRANCH   3   9
ATOM      9  C   UNL     1       2.216  -3.954   5.026  0.00  0.00    +0.038 A 
ATOM     10  C   UNL     1       0.900  -3.533   5.151  0.00  0.00    +0.026 A 
ATOM     11  C   UNL     1       0.272  -3.579   6.381  0.00  0.00    +0.040 A 
ATOM     12  C   UNL     1       0.951  -4.046   7.496  0.00  0.00    +0.124 A 
ATOM     13  C   UNL     1       2.262  -4.469   7.385  0.00  0.00    +0.048 A 
ATOM     14  C   UNL     1       2.902  -4.432   6.148  0.00  0.00    +0.009 A 
ATOM     15  F   UNL     1       0.329  -4.087   8.694  0.00  0.00    -0.205 F 
BRANCH  14  16
ATOM     16  C   UNL     1       4.307  -4.890   6.023  0.00  0.00    +0.025 A 
ATOM     17  C   UNL     1       4.628  -6.229   6.238  0.00  0.00    +0.012 A 
ATOM     18  C   UNL     1       5.937  -6.650   6.120  0.00  0.00    +0.001 A 
ATOM     19  C   UNL     1       6.932  -5.748   5.788  0.00  0.00    +0.004 A 
ATOM     20  C   UNL     1       6.625  -4.418   5.573  0.00  0.00    +0.046 A 
ATOM     21  C   UNL     1       5.314  -3.982   5.682  0.00  0.00    +0.125 A 
BRANCH  21  22
ATOM     22  O   UNL     1       5.009  -2.676   5.465  0.00  0.00    -0.506 OA
ATOM     23  H   UNL     1       5.054  -2.124   6.258  0.00  0.00    +0.292 HD
ENDBRANCH  21  22
ENDBRANCH  14  16
ENDBRANCH   3   9
BRANCH   1  24
ATOM     24  S   UNL     1       4.140  -0.941   1.346  0.00  0.00    +0.109 S 
ATOM     25  O   UNL     1       5.471  -1.383   1.113  0.00  0.00    -0.138 OA
ATOM     26  O   UNL     1       3.889   0.232   2.108  0.00  0.00    -0.138 OA
BRANCH  24  27
ATOM     27  O   UNL     1       3.586  -0.632  -0.037  0.00  0.00    -0.347 OA
BRANCH  27  31
ATOM     28  C   UNL     1      -0.017   1.378   0.010  0.00  0.00    +0.000 A 
ATOM     29  C   UNL     1       1.170   2.088   0.002  0.00  0.00    +0.004 A 
ATOM     30  C   UNL     1       2.377   1.417  -0.013  0.00  0.00    +0.048 A 
ATOM     31  C   UNL     1       2.399   0.030  -0.021  0.00  0.00    +0.156 A 
ATOM     32  C   UNL     1       1.207  -0.680  -0.013  0.00  0.00    +0.048 A 
ATOM     33  C   UNL     1       0.002  -0.004   0.002  0.00  0.00    +0.004 A 
ENDBRANCH  27  31
ENDBRANCH  24  27
ENDBRANCH   1  24
TORSDOF 6
