REMARK  Name = ZINC20115267
REMARK  8 active torsions:
REMARK  status: ('A' for Active; 'I' for Inactive)
REMARK    1  A    between atoms: C_1  and  C_2
REMARK    2  A    between atoms: C_2  and  C_16
REMARK    3  A    between atoms: N_3  and  N_4
REMARK    4  A    between atoms: C_5  and  C_7
REMARK    5  A    between atoms: C_10  and  O_14
REMARK    6  A    between atoms: O_14  and  C_15
REMARK    7  A    between atoms: C_18  and  O_23
REMARK    8  A    between atoms: C_21  and  O_22
REMARK                            x       y       z     vdW  Elec       q    Type
REMARK                         _______ _______ _______ _____ _____    ______ ____
ROOT
ATOM      1  C   UNL     1       0.080   1.509   0.011  0.00  0.00    +0.068 C 
ATOM      2  C   UNL     1      -0.020   0.006   0.002  0.00  0.00    +0.067 C 
ATOM      3  N   UNL     1      -0.068  -0.649   1.122  0.00  0.00    -0.184 NA
ENDROOT
BRANCH   2   4
ATOM      4  C   UNL     1      -0.064  -0.722  -1.279  0.00  0.00    +0.042 A 
ATOM      5  C   UNL     1      -1.213  -1.426  -1.648  0.00  0.00    +0.058 A 
ATOM      6  C   UNL     1      -1.247  -2.106  -2.852  0.00  0.00    +0.118 A 
ATOM      7  C   UNL     1      -0.142  -2.091  -3.693  0.00  0.00    +0.049 A 
ATOM      8  C   UNL     1       0.998  -1.397  -3.336  0.00  0.00    +0.049 A 
ATOM      9  C   UNL     1       1.044  -0.706  -2.136  0.00  0.00    +0.126 A 
BRANCH   9  10
ATOM     10  O   UNL     1       2.164  -0.019  -1.788  0.00  0.00    -0.506 OA
ATOM     11  H   UNL     1       2.839  -0.561  -1.357  0.00  0.00    +0.292 HD
ENDBRANCH   9  10
BRANCH   6  12
ATOM     12  O   UNL     1      -2.364  -2.792  -3.212  0.00  0.00    -0.507 OA
ATOM     13  H   UNL     1      -3.002  -2.268  -3.715  0.00  0.00    +0.292 HD
ENDBRANCH   6  12
ENDBRANCH   2   4
BRANCH   3  14
ATOM     14  N   UNL     1      -0.244  -2.039   1.114  0.00  0.00    -0.203 N 
ATOM     15  C   UNL     1      -0.404  -2.704   2.275  0.00  0.00    +0.263 C 
ATOM     16  O   UNL     1      -0.306  -2.113   3.333  0.00  0.00    -0.268 OA
ATOM     17  H   UNL     1      -0.250  -2.522   0.273  0.00  0.00    +0.178 HD
BRANCH  15  18
ATOM     18  C   UNL     1      -0.700  -4.150   2.262  0.00  0.00    +0.040 A 
ATOM     19  C   UNL     1      -0.697  -4.855   1.055  0.00  0.00    +0.017 A 
ATOM     20  C   UNL     1      -0.973  -6.204   1.047  0.00  0.00    +0.047 A 
ATOM     21  C   UNL     1      -1.255  -6.865   2.236  0.00  0.00    +0.134 A 
ATOM     22  C   UNL     1      -1.258  -6.168   3.440  0.00  0.00    +0.060 A 
ATOM     23  C   UNL     1      -0.977  -4.819   3.457  0.00  0.00    +0.032 A 
ATOM     24 BR   UNL     1      -1.642  -7.074   5.055  0.00  0.00    -0.046 Br
BRANCH  21  25
ATOM     25  O   UNL     1      -1.527  -8.195   2.224  0.00  0.00    -0.494 OA
ATOM     26  C   UNL     1      -1.506  -8.849   0.954  0.00  0.00    +0.277 C 
ENDBRANCH  21  25
ENDBRANCH  15  18
ENDBRANCH   3  14
TORSDOF 6
