REMARK  Name = ZINC20635474
REMARK  7 active torsions:
REMARK  status: ('A' for Active; 'I' for Inactive)
REMARK    1  A    between atoms: C_1  and  C_2
REMARK    2  A    between atoms: C_2  and  C_3
REMARK    3  A    between atoms: C_2  and  C_4
REMARK    4  A    between atoms: C_4  and  C_5
REMARK    5  A    between atoms: C_5  and  O_6
REMARK    6  A    between atoms: O_6  and  C_7
REMARK    7  A    between atoms: C_10  and  C_13
REMARK                            x       y       z     vdW  Elec       q    Type
REMARK                         _______ _______ _______ _____ _____    ______ ____
ROOT
ATOM      1  C   UNL     1      -3.429  -8.125  -0.572  0.00  0.00    +0.090 C 
ATOM      2  C   UNL     1      -4.128  -8.638   0.651  0.00  0.00    +0.044 A 
ATOM      3  C   UNL     1      -3.437  -8.801   1.849  0.00  0.00    +0.127 A 
ATOM      4  N   UNL     1      -4.095  -9.255   2.914  0.00  0.00    -0.199 NA
ATOM      5  C   UNL     1      -5.385  -9.549   2.842  0.00  0.00    +0.221 A 
ATOM      6  N   UNL     1      -6.071  -9.406   1.718  0.00  0.00    -0.199 NA
ATOM      7  C   UNL     1      -5.477  -8.959   0.615  0.00  0.00    +0.134 A 
ATOM      8  N   UNL     1      -6.186  -8.815  -0.566  0.00  0.00    -0.302 N 
ATOM      9  C   UNL     1      -5.529  -8.741  -1.764  0.00  0.00    +0.017 C 
ATOM     10  C   UNL     1      -4.219  -8.425  -1.820  0.00  0.00    +0.024 C 
ATOM     11  C   UNL     1      -3.543  -8.367  -3.052  0.00  0.00    +0.162 C 
ATOM     12  O   UNL     1      -2.364  -8.073  -3.070  0.00  0.00    -0.292 OA
ATOM     13  C   UNL     1      -4.249  -8.662  -4.346  0.00  0.00    +0.080 C 
ATOM     14  C   UNL     1      -5.401  -9.636  -4.076  0.00  0.00    +0.014 C 
ATOM     15  C   UNL     1      -6.317  -9.018  -3.023  0.00  0.00    +0.051 C 
ATOM     16  N   UNL     1      -6.032 -10.017   3.971  0.00  0.00    -0.300 N 
ATOM     17  C   UNL     1      -7.461 -10.359   3.928  0.00  0.00    +0.108 C 
ATOM     18  C   UNL     1      -7.642 -11.789   4.446  0.00  0.00    +0.019 C 
ATOM     19  C   UNL     1      -7.009 -11.909   5.834  0.00  0.00    +0.003 C 
ATOM     20  C   UNL     1      -5.510 -11.615   5.740  0.00  0.00    +0.019 C 
ATOM     21  C   UNL     1      -5.304 -10.188   5.236  0.00  0.00    +0.108 C 
ATOM     22  N   UNL     1      -2.088  -8.496   1.931  0.00  0.00    -0.343 N 
ATOM     23  H   UNL     1      -7.154  -8.766  -0.544  0.00  0.00    +0.153 HD
ATOM     24  H   UNL     1      -1.617  -8.166   1.151  0.00  0.00    +0.144 HD
ATOM     25  H   UNL     1      -1.615  -8.613   2.770  0.00  0.00    +0.144 HD
ENDROOT
BRANCH   1  29
ATOM     26  C   UNL     1      -2.919  -3.897  -0.222  0.00  0.00    +0.121 A 
ATOM     27  C   UNL     1      -1.810  -4.724  -0.333  0.00  0.00    +0.046 A 
ATOM     28  C   UNL     1      -1.978  -6.090  -0.445  0.00  0.00    +0.008 A 
ATOM     29  C   UNL     1      -3.249  -6.634  -0.448  0.00  0.00    -0.035 A 
ATOM     30  C   UNL     1      -4.356  -5.812  -0.338  0.00  0.00    +0.008 A 
ATOM     31  C   UNL     1      -4.193  -4.446  -0.220  0.00  0.00    +0.046 A 
BRANCH  26  32
ATOM     32  O   UNL     1      -2.756  -2.552  -0.111  0.00  0.00    -0.492 OA
BRANCH  32  33
ATOM     33  C   UNL     1      -1.416  -2.058  -0.121  0.00  0.00    +0.229 C 
BRANCH  33  34
ATOM     34  C   UNL     1      -1.433  -0.534   0.013  0.00  0.00    +0.044 C 
BRANCH  34  36
ATOM     35  C   UNL     1      -0.019   1.526   0.010  0.00  0.00    +0.007 C 
ATOM     36  C   UNL     1       0.002  -0.004   0.002  0.00  0.00    -0.014 C 
ATOM     37  C   UNL     1       0.742  -0.511   1.242  0.00  0.00    +0.007 C 
ENDBRANCH  34  36
ENDBRANCH  33  34
ENDBRANCH  32  33
ENDBRANCH  26  32
ENDBRANCH   1  29
TORSDOF 5
