REMARK  Name = ZINC63271448
REMARK  5 active torsions:
REMARK  status: ('A' for Active; 'I' for Inactive)
REMARK    1  A    between atoms: C_6  and  C_11
REMARK    2  A    between atoms: C_11  and  C_12
REMARK    3  A    between atoms: C_12  and  N_13
REMARK    4  A    between atoms: C_14  and  C_16
REMARK    5  A    between atoms: C_16  and  N_17
REMARK                            x       y       z     vdW  Elec       q    Type
REMARK                         _______ _______ _______ _____ _____    ______ ____
ROOT
ATOM      1  C   UNL     1       5.817  -5.606  -2.688  0.00  0.00    +0.201 C 
ENDROOT
BRANCH   1   2
ATOM      2  N   UNL     1       6.083  -6.017  -4.069  0.00  0.00    -0.291 N 
ATOM      3  C   UNL     1       6.546  -7.256  -4.326  0.00  0.00    +0.303 C 
ATOM      4  O   UNL     1       6.832  -8.001  -3.408  0.00  0.00    -0.253 OA
ATOM      5  N   UNL     1       6.693  -7.670  -5.600  0.00  0.00    -0.284 N 
ATOM      6  C   UNL     1       7.087  -9.055  -5.871  0.00  0.00    +0.110 C 
ATOM      7  C   UNL     1       6.206  -9.685  -6.968  0.00  0.00    +0.025 C 
ATOM      8  C   UNL     1       6.196  -8.721  -8.130  0.00  0.00    +0.029 C 
ATOM      9  C   UNL     1       5.500  -7.424  -7.643  0.00  0.00    +0.127 C 
ATOM     10  C   UNL     1       6.449  -6.719  -6.713  0.00  0.00    +0.136 C 
ATOM     11  N   UNL     1       4.999  -6.796  -8.839  0.00  0.00    -0.282 NA
ATOM     12  C   UNL     1       4.702  -7.694  -9.712  0.00  0.00    +0.043 C 
ATOM     13  C   UNL     1       5.399  -9.008  -9.362  0.00  0.00    +0.065 C 
ATOM     14  C   UNL     1       4.322 -10.043  -9.304  0.00  0.00    -0.017 C 
ATOM     15  C   UNL     1       3.304  -9.914 -10.172  0.00  0.00    -0.004 C 
ATOM     16  C   UNL     1       3.220  -8.798 -11.115  0.00  0.00    +0.001 C 
ATOM     17  C   UNL     1       3.935  -7.671 -10.910  0.00  0.00    +0.023 C 
ATOM     18  H   UNL     1       5.926  -5.397  -4.798  0.00  0.00    +0.151 HD
ENDBRANCH   1   2
BRANCH   1  20
ATOM     19  N   UNL     1       4.998  -3.594  -1.505  0.00  0.00    -0.314 N 
ATOM     20  C   UNL     1       5.311  -4.187  -2.675  0.00  0.00    +0.230 C 
ATOM     21  O   UNL     1       5.184  -3.579  -3.716  0.00  0.00    -0.274 OA
ATOM     22  H   UNL     1       5.099  -4.081  -0.672  0.00  0.00    +0.149 HD
BRANCH  19  23
ATOM     23  C   UNL     1       4.506  -2.214  -1.492  0.00  0.00    +0.108 C 
BRANCH  23  24
ATOM     24  C   UNL     1       4.228  -1.785  -0.050  0.00  0.00    +0.052 C 
BRANCH  24  30
ATOM     25  C   UNL     1      -0.019   1.401   0.004  0.00  0.00    +0.040 A 
ATOM     26  C   UNL     1       1.107   2.144  -0.000  0.00  0.00    +0.029 A 
ATOM     27  C   UNL     1       2.384   1.516  -0.015  0.00  0.00    +0.043 A 
ATOM     28  N   UNL     1       3.599   2.009  -0.022  0.00  0.00    -0.380 N 
ATOM     29  C   UNL     1       4.555   0.897  -0.037  0.00  0.00    +0.144 C 
ATOM     30  C   UNL     1       3.722  -0.366  -0.037  0.00  0.00    -0.040 C 
ATOM     31  C   UNL     1       2.431   0.037  -0.024  0.00  0.00    +0.002 A 
ATOM     32  C   UNL     1       1.161  -0.699  -0.018  0.00  0.00    +0.048 A 
ATOM     33  C   UNL     1      -0.001  -0.003  -0.005  0.00  0.00    +0.124 A 
ATOM     34  F   UNL     1      -1.172  -0.676   0.001  0.00  0.00    -0.205 F 
ATOM     35  H   UNL     1       3.827   2.952  -0.018  0.00  0.00    +0.160 HD
ENDBRANCH  24  30
ENDBRANCH  23  24
ENDBRANCH  19  23
ENDBRANCH   1  20
TORSDOF 5
