REMARK  Name = ZINC53364789
REMARK  9 active torsions:
REMARK  status: ('A' for Active; 'I' for Inactive)
REMARK    1  A    between atoms: C_1  and  C_2
REMARK    2  A    between atoms: C_2  and  O_3
REMARK    3  A    between atoms: O_3  and  C_4
REMARK    4  A    between atoms: C_8  and  C_11
REMARK    5  A    between atoms: C_9  and  O_10
REMARK    6  A    between atoms: C_14  and  C_26
REMARK    7  A    between atoms: C_16  and  C_19
REMARK    8  A    between atoms: C_30  and  O_32
REMARK    9  A    between atoms: O_32  and  C_33
REMARK                            x       y       z     vdW  Elec       q    Type
REMARK                         _______ _______ _______ _____ _____    ______ ____
ROOT
ATOM      1  C   UNL     1       2.274  -4.308   3.755  0.00  0.00    +0.095 C 
ATOM      2  C   UNL     1       3.789  -4.268   3.528  0.00  0.00    +0.079 C 
ATOM      3  C   UNL     1       4.473  -5.119   4.561  0.00  0.00    +0.047 C 
ATOM      4  N   UNL     1       3.855  -5.980   5.278  0.00  0.00    -0.264 NA
ATOM      5  C   UNL     1       2.422  -6.237   5.195  0.00  0.00    +0.204 C 
ATOM      6  N   UNL     1       1.873  -5.713   3.938  0.00  0.00    -0.284 NA
ATOM      7  H   UNL     1       0.869  -5.809   3.915  0.00  0.00    +0.125 HD
ENDROOT
BRANCH   5   8
ATOM      8  C   UNL     1       1.730  -5.568   6.354  0.00  0.00    -0.008 A 
ATOM      9  C   UNL     1       0.427  -5.125   6.219  0.00  0.00    +0.007 A 
ATOM     10  C   UNL     1      -0.208  -4.511   7.281  0.00  0.00    +0.002 A 
ATOM     11  C   UNL     1       0.458  -4.340   8.480  0.00  0.00    +0.020 A 
ATOM     12  C   UNL     1       1.761  -4.784   8.617  0.00  0.00    +0.041 A 
ATOM     13  C   UNL     1       2.395  -5.403   7.554  0.00  0.00    +0.027 A 
ATOM     14 CL   UNL     1       2.598  -4.569  10.122  0.00  0.00    -0.084 Cl
ENDBRANCH   5   8
BRANCH   1  19
ATOM     15  C   UNL     1       0.802  -1.825   1.306  0.00  0.00    +0.162 A 
ATOM     16  C   UNL     1       0.261  -2.673   0.353  0.00  0.00    +0.049 A 
ATOM     17  C   UNL     1       0.372  -4.043   0.502  0.00  0.00    +0.004 A 
ATOM     18  C   UNL     1       1.024  -4.570   1.602  0.00  0.00    +0.009 A 
ATOM     19  C   UNL     1       1.566  -3.730   2.557  0.00  0.00    +0.015 A 
ATOM     20  C   UNL     1       1.462  -2.356   2.410  0.00  0.00    +0.163 A 
BRANCH  20  21
ATOM     21  O   UNL     1       2.000  -1.528   3.345  0.00  0.00    -0.503 OA
ATOM     22  H   UNL     1       1.395  -1.301   4.064  0.00  0.00    +0.292 HD
ENDBRANCH  20  21
BRANCH  15  23
ATOM     23  O   UNL     1       0.693  -0.477   1.160  0.00  0.00    -0.489 OA
BRANCH  23  25
ATOM     24  C   UNL     1      -0.019   1.526   0.010  0.00  0.00    +0.048 C 
ATOM     25  C   UNL     1       0.002  -0.004   0.002  0.00  0.00    +0.226 C 
ENDBRANCH  23  25
ENDBRANCH  15  23
ENDBRANCH   1  19
BRANCH   3  26
ATOM     26  C   UNL     1       5.927  -4.955   4.758  0.00  0.00    -0.001 A 
ATOM     27  C   UNL     1       6.636  -4.021   3.998  0.00  0.00    +0.010 A 
ATOM     28  C   UNL     1       7.994  -3.870   4.184  0.00  0.00    +0.004 A 
ATOM     29  C   UNL     1       8.658  -4.640   5.122  0.00  0.00    +0.045 A 
ATOM     30  C   UNL     1       7.962  -5.571   5.882  0.00  0.00    +0.121 A 
ATOM     31  C   UNL     1       6.597  -5.727   5.707  0.00  0.00    +0.055 A 
BRANCH  30  32
ATOM     32  O   UNL     1       8.620  -6.325   6.801  0.00  0.00    -0.495 OA
ATOM     33  C   UNL     1      10.026  -6.107   6.933  0.00  0.00    +0.277 C 
ENDBRANCH  30  32
ENDBRANCH   3  26
TORSDOF 7
