REMARK  Name = ZINC64600383
REMARK  9 active torsions:
REMARK  status: ('A' for Active; 'I' for Inactive)
REMARK    1  A    between atoms: C_1  and  C_2
REMARK    2  A    between atoms: C_2  and  C_3
REMARK    3  A    between atoms: C_16  and  C_19
REMARK    4  A    between atoms: C_21  and  O_38
REMARK    5  A    between atoms: C_23  and  O_37
REMARK    6  A    between atoms: N_25  and  C_28
REMARK    7  A    between atoms: C_28  and  C_29
REMARK    8  A    between atoms: C_32  and  O_35
REMARK    9  A    between atoms: O_35  and  C_36
REMARK                            x       y       z     vdW  Elec       q    Type
REMARK                         _______ _______ _______ _____ _____    ______ ____
ROOT
ATOM      1  C   UNL     1       4.270   0.200  -2.368  0.00  0.00    +0.179 C 
ATOM      2  C   UNL     1       4.988  -0.344  -1.167  0.00  0.00    +0.200 C 
ATOM      3  N   UNL     1       5.113   0.309  -0.078  0.00  0.00    -0.204 NA
ATOM      4  C   UNL     1       4.580   1.645   0.139  0.00  0.00    +0.334 C 
ATOM      5  N   UNL     1       4.315   2.339  -1.113  0.00  0.00    -0.252 N 
ATOM      6  C   UNL     1       4.160   1.696  -2.272  0.00  0.00    +0.233 C 
ATOM      7  O   UNL     1       3.924   2.337  -3.274  0.00  0.00    -0.275 OA
ENDROOT
BRANCH   1  19
ATOM      8  C   UNL     1       0.718  -0.497  -1.257  0.00  0.00    +0.058 C 
ATOM      9  C   UNL     1       0.621  -2.033  -1.330  0.00  0.00    +0.052 C 
ATOM     10  C   UNL     1       1.542  -2.459  -2.447  0.00  0.00    -0.036 C 
ATOM     11  C   UNL     1       1.371  -3.260  -3.488  0.00  0.00    -0.001 A 
ATOM     12  C   UNL     1       0.259  -4.144  -3.875  0.00  0.00    +0.010 A 
ATOM     13  C   UNL     1       0.408  -4.817  -5.047  0.00  0.00    +0.001 A 
ATOM     14  C   UNL     1       1.538  -4.701  -5.863  0.00  0.00    +0.002 A 
ATOM     15  C   UNL     1       2.611  -3.921  -5.580  0.00  0.00    +0.026 A 
ATOM     16  C   UNL     1       2.576  -3.171  -4.368  0.00  0.00    +0.043 A 
ATOM     17  N   UNL     1       3.465  -2.378  -3.844  0.00  0.00    -0.376 N 
ATOM     18  C   UNL     1       2.970  -1.930  -2.544  0.00  0.00    +0.124 C 
ATOM     19  C   UNL     1       2.868  -0.407  -2.438  0.00  0.00    +0.101 C 
ATOM     20  N   UNL     1       2.123  -0.083  -1.210  0.00  0.00    -0.307 NA
ATOM     21  H   UNL     1       2.204   0.898  -0.989  0.00  0.00    +0.123 HD
ATOM     22  H   UNL     1       4.311  -2.128  -4.247  0.00  0.00    +0.160 HD
BRANCH   8  24
ATOM     23  C   UNL     1      -0.019   1.526   0.010  0.00  0.00    +0.005 C 
ATOM     24  C   UNL     1       0.002  -0.004   0.002  0.00  0.00    +0.015 C 
ENDBRANCH   8  24
ENDBRANCH   1  19
BRANCH   4  25
ATOM     25  O   UNL     1       3.362   1.544   0.879  0.00  0.00    -0.356 OA
ATOM     26  H   UNL     1       3.462   1.127   1.746  0.00  0.00    +0.214 HD
ENDBRANCH   4  25
BRANCH   2  27
ATOM     27  O   UNL     1       5.525  -1.580  -1.243  0.00  0.00    -0.495 OA
ATOM     28  H   UNL     1       5.971  -1.865  -0.434  0.00  0.00    +0.293 HD
ENDBRANCH   2  27
BRANCH   5  29
ATOM     29  C   UNL     1       4.214   3.801  -1.098  0.00  0.00    +0.147 C 
BRANCH  29  30
ATOM     30  C   UNL     1       5.576   4.401  -1.334  0.00  0.00    -0.030 A 
ATOM     31  C   UNL     1       6.406   4.673  -0.262  0.00  0.00    +0.009 A 
ATOM     32  C   UNL     1       7.655   5.223  -0.476  0.00  0.00    +0.046 A 
ATOM     33  C   UNL     1       8.076   5.503  -1.768  0.00  0.00    +0.120 A 
ATOM     34  C   UNL     1       7.242   5.229  -2.842  0.00  0.00    +0.046 A 
ATOM     35  C   UNL     1       5.997   4.673  -2.623  0.00  0.00    +0.009 A 
BRANCH  33  36
ATOM     36  O   UNL     1       9.305   6.045  -1.980  0.00  0.00    -0.495 OA
ATOM     37  C   UNL     1       9.672   6.306  -3.336  0.00  0.00    +0.277 C 
ENDBRANCH  33  36
ENDBRANCH  29  30
ENDBRANCH   5  29
TORSDOF 7
