REMARK  Name = ZINC33734136
REMARK  7 active torsions:
REMARK  status: ('A' for Active; 'I' for Inactive)
REMARK    1  A    between atoms: C_1  and  N_2
REMARK    2  A    between atoms: C_6  and  C_23
REMARK    3  A    between atoms: C_8  and  C_16
REMARK    4  A    between atoms: C_10  and  C_11
REMARK    5  A    between atoms: C_10  and  O_15
REMARK    6  A    between atoms: C_16  and  C_18
REMARK    7  A    between atoms: C_28  and  C_29
REMARK                            x       y       z     vdW  Elec       q    Type
REMARK                         _______ _______ _______ _____ _____    ______ ____
ROOT
ATOM      1  C   UNL     1      -0.013   1.086   0.008  0.00  0.00    +0.137 C 
ATOM      2  N   UNL     1      -0.698   1.558   1.213  0.00  0.00    -0.253 N 
ATOM      3  C   UNL     1      -1.183   0.663   2.087  0.00  0.00    +0.305 C 
ATOM      4  O   UNL     1      -1.047  -0.521   1.846  0.00  0.00    -0.253 OA
ATOM      5  N   UNL     1      -1.811   1.023   3.217  0.00  0.00    -0.292 N 
ATOM      6  C   UNL     1      -2.017   2.431   3.558  0.00  0.00    +0.120 C 
ATOM      7  C   UNL     1      -0.887   3.267   2.947  0.00  0.00    +0.145 C 
ATOM      8  C   UNL     1      -0.836   2.998   1.442  0.00  0.00    +0.245 C 
ATOM      9  H   UNL     1      -2.174   0.234   3.892  0.00  0.00    +0.151 HD
ENDROOT
BRANCH   6  10
ATOM     10  C   UNL     1      -2.010   2.592   5.056  0.00  0.00    -0.015 A 
ATOM     11  C   UNL     1      -1.347   1.672   5.848  0.00  0.00    +0.006 A 
ATOM     12  C   UNL     1      -1.337   1.823   7.221  0.00  0.00    +0.000 A 
ATOM     13  C   UNL     1      -1.997   2.888   7.805  0.00  0.00    +0.001 A 
ATOM     14  C   UNL     1      -2.664   3.805   7.015  0.00  0.00    +0.013 A 
ATOM     15  C   UNL     1      -2.671   3.657   5.640  0.00  0.00    +0.060 A 
BRANCH  15  16
ATOM     16  C   UNL     1      -3.398   4.656   4.778  0.00  0.00    +0.418 C 
ATOM     17  F   UNL     1      -3.984   5.633   5.590  0.00  0.00    -0.166 F 
ATOM     18  F   UNL     1      -2.493   5.261   3.900  0.00  0.00    -0.166 F 
ATOM     19  F   UNL     1      -4.394   4.002   4.044  0.00  0.00    -0.166 F 
ENDBRANCH  15  16
ENDBRANCH   6  10
BRANCH   8  20
ATOM     20  C   UNL     1      -2.128   3.497   0.794  0.00  0.00    +0.436 C 
ATOM     21  F   UNL     1      -3.221   2.830   1.357  0.00  0.00    -0.166 F 
ATOM     22  F   UNL     1      -2.259   4.873   1.014  0.00  0.00    -0.166 F 
ATOM     23  F   UNL     1      -2.087   3.247  -0.582  0.00  0.00    -0.166 F 
ENDBRANCH   8  20
BRANCH   8  24
ATOM     24  O   UNL     1       0.282   3.681   0.872  0.00  0.00    -0.364 OA
ATOM     25  H   UNL     1       0.353   4.776   0.945  0.00  0.00    +0.212 HD
ENDBRANCH   8  24
BRANCH   7  26
ATOM     26  C   UNL     1       0.427   2.875   3.572  0.00  0.00    +0.180 C 
ATOM     27  O   UNL     1       1.136   2.052   3.029  0.00  0.00    -0.291 OA
BRANCH  26  28
ATOM     28  C   UNL     1       0.834   3.465   4.790  0.00  0.00    +0.055 A 
ATOM     29  C   UNL     1       1.992   3.242   5.528  0.00  0.00    +0.019 A 
ATOM     30  C   UNL     1       2.140   3.960   6.685  0.00  0.00    +0.008 A 
ATOM     31  C   UNL     1       1.163   4.832   7.057  0.00  0.00    +0.046 A 
ATOM     32  S   UNL     1      -0.006   4.683   5.785  0.00  0.00    -0.094 S 
ENDBRANCH  26  28
ENDBRANCH   7  26
TORSDOF 6
