REMARK  Name = ZINC39687235
REMARK  6 active torsions:
REMARK  status: ('A' for Active; 'I' for Inactive)
REMARK    1  A    between atoms: C_4  and  C_7
REMARK    2  A    between atoms: C_7  and  C_8
REMARK    3  A    between atoms: C_8  and  C_10
REMARK    4  A    between atoms: C_8  and  N_18
REMARK    5  A    between atoms: C_19  and  C_21
REMARK    6  A    between atoms: C_32  and  C_34
REMARK                            x       y       z     vdW  Elec       q    Type
REMARK                         _______ _______ _______ _____ _____    ______ ____
ROOT
ATOM      1  C   UNL     1       0.884   5.928   2.085  0.00  0.00    +0.100 C 
ATOM      2  C   UNL     1      -0.609   5.553   1.955  0.00  0.00    +0.121 C 
ATOM      3  N   UNL     1      -0.830   4.528   3.002  0.00  0.00    -0.296 N 
ATOM      4  C   UNL     1      -0.034   5.004   4.158  0.00  0.00    +0.115 C 
ATOM      5  C   UNL     1       1.257   5.569   3.534  0.00  0.00    -0.004 C 
ATOM      6  C   UNL     1       2.356   4.512   3.550  0.00  0.00    -0.010 C 
ATOM      7  C   UNL     1       2.749   4.213   4.999  0.00  0.00    -0.082 C 
ATOM      8  N   UNL     1       3.217   5.445   5.645  0.00  0.00    +0.379 N 
ATOM      9  C   UNL     1       2.126   6.424   5.708  0.00  0.00    -0.082 C 
ATOM     10  C   UNL     1       1.706   6.816   4.289  0.00  0.00    -0.010 C 
ATOM     11  C   UNL     1      -1.585   3.414   2.920  0.00  0.00    +0.249 C 
ATOM     12  O   UNL     1      -1.508   2.563   3.785  0.00  0.00    -0.270 OA
ATOM     13  H   UNL     1       3.533   5.234   6.580  0.00  0.00    -0.086 HD
ATOM     14  H   UNL     1       3.983   5.831   5.114  0.00  0.00    -0.086 HD
ENDROOT
BRANCH  11  15
ATOM     15  C   UNL     1      -2.505   3.227   1.780  0.00  0.00    +0.072 A 
ATOM     16  C   UNL     1      -2.019   2.771   0.553  0.00  0.00    +0.016 A 
ATOM     17  C   UNL     1      -2.883   2.599  -0.507  0.00  0.00    +0.001 A 
ATOM     18  C   UNL     1      -4.232   2.876  -0.359  0.00  0.00    +0.003 A 
ATOM     19  C   UNL     1      -4.723   3.327   0.852  0.00  0.00    +0.039 A 
ATOM     20  C   UNL     1      -3.869   3.500   1.926  0.00  0.00    +0.135 A 
ATOM     21  F   UNL     1      -4.350   3.936   3.111  0.00  0.00    -0.205 F 
ENDBRANCH  11  15
BRANCH   1  23
ATOM     22  N   UNL     1       2.914   5.587   0.714  0.00  0.00    -0.303 N 
ATOM     23  C   UNL     1       1.713   5.126   1.116  0.00  0.00    +0.219 C 
ATOM     24  O   UNL     1       1.300   4.065   0.698  0.00  0.00    -0.275 OA
ATOM     25  H   UNL     1       3.279   6.396   1.104  0.00  0.00    +0.149 HD
BRANCH  22  26
ATOM     26  C   UNL     1       3.669   4.865  -0.314  0.00  0.00    +0.163 C 
BRANCH  26  27
ATOM     27  C   UNL     1       4.534   3.819   0.339  0.00  0.00    +0.236 C 
ATOM     28  O   UNL     1       4.815   3.913   1.515  0.00  0.00    -0.274 OA
ATOM     29  N   UNL     1       4.995   2.779  -0.383  0.00  0.00    -0.300 N 
ATOM     30  C   UNL     1       5.105   2.873  -1.845  0.00  0.00    +0.108 C 
ATOM     31  C   UNL     1       6.535   2.508  -2.257  0.00  0.00    +0.019 C 
ATOM     32  C   UNL     1       6.890   1.133  -1.687  0.00  0.00    +0.003 C 
ATOM     33  C   UNL     1       6.825   1.180  -0.159  0.00  0.00    +0.019 C 
ATOM     34  C   UNL     1       5.404   1.532   0.277  0.00  0.00    +0.108 C 
ENDBRANCH  26  27
BRANCH  26  35
ATOM     35  C   UNL     1       4.552   5.850  -1.084  0.00  0.00    +0.067 C 
BRANCH  35  39
ATOM     36  C   UNL     1       2.088   8.551  -3.293  0.00  0.00    +0.000 A 
ATOM     37  C   UNL     1       2.409   8.827  -1.977  0.00  0.00    +0.000 A 
ATOM     38  C   UNL     1       3.206   7.953  -1.262  0.00  0.00    +0.004 A 
ATOM     39  C   UNL     1       3.682   6.802  -1.863  0.00  0.00    -0.045 A 
ATOM     40  C   UNL     1       3.360   6.526  -3.178  0.00  0.00    +0.004 A 
ATOM     41  C   UNL     1       2.564   7.401  -3.894  0.00  0.00    +0.000 A 
ENDBRANCH  35  39
ENDBRANCH  26  35
ENDBRANCH  22  26
ENDBRANCH   1  23
TORSDOF 6
