REMARK  Name = ZINC44714298
REMARK  8 active torsions:
REMARK  status: ('A' for Active; 'I' for Inactive)
REMARK    1  A    between atoms: C_1  and  C_2
REMARK    2  A    between atoms: C_6  and  C_7
REMARK    3  A    between atoms: C_11  and  C_20
REMARK    4  A    between atoms: N_22  and  C_23
REMARK    5  A    between atoms: C_23  and  C_25
REMARK    6  A    between atoms: C_23  and  C_26
REMARK    7  A    between atoms: C_27  and  C_33
REMARK    8  A    between atoms: C_31  and  C_32
REMARK                            x       y       z     vdW  Elec       q    Type
REMARK                         _______ _______ _______ _____ _____    ______ ____
ROOT
ATOM      1  C   UNL     1       0.032  -0.278   2.568  0.00  0.00    +0.254 C 
ATOM      2  O   UNL     1       0.122   0.910   2.813  0.00  0.00    -0.269 OA
ATOM      3  N   UNL     1      -0.049  -1.171   3.574  0.00  0.00    -0.296 N 
ATOM      4  C   UNL     1      -0.041  -2.649   3.480  0.00  0.00    +0.121 C 
ATOM      5  C   UNL     1       0.813  -3.113   4.682  0.00  0.00    +0.100 C 
ATOM      6  C   UNL     1       0.726  -1.958   5.694  0.00  0.00    -0.004 C 
ATOM      7  C   UNL     1      -0.159  -0.894   5.027  0.00  0.00    +0.115 C 
ATOM      8  C   UNL     1       2.114  -1.386   5.964  0.00  0.00    -0.010 C 
ATOM      9  C   UNL     1       2.009  -0.278   7.015  0.00  0.00    -0.082 C 
ATOM     10  N   UNL     1       1.434  -0.825   8.250  0.00  0.00    +0.379 N 
ATOM     11  C   UNL     1       0.063  -1.288   8.002  0.00  0.00    -0.082 C 
ATOM     12  C   UNL     1       0.086  -2.439   6.992  0.00  0.00    -0.010 C 
ATOM     13  H   UNL     1       1.997  -1.599   8.567  0.00  0.00    -0.086 HD
ATOM     14  H   UNL     1       1.422  -0.108   8.960  0.00  0.00    -0.086 HD
ENDROOT
BRANCH   1  20
ATOM     15  C   UNL     1      -0.012   1.514   0.021  0.00  0.00    +0.045 C 
ATOM     16  C   UNL     1      -0.009   0.008   0.008  0.00  0.00    -0.031 A 
ATOM     17  C   UNL     1      -0.020  -0.714  -1.161  0.00  0.00    +0.011 A 
ATOM     18  C   UNL     1      -0.016  -2.068  -1.101  0.00  0.00    +0.046 A 
ATOM     19  S   UNL     1       0.003  -2.406   0.545  0.00  0.00    -0.092 S 
ATOM     20  C   UNL     1       0.011  -0.739   1.176  0.00  0.00    +0.077 A 
ENDBRANCH   1  20
BRANCH   5  21
ATOM     21  C   UNL     1       2.241  -3.334   4.257  0.00  0.00    +0.219 C 
ATOM     22  O   UNL     1       2.739  -2.622   3.410  0.00  0.00    -0.275 OA
ATOM     23  N   UNL     1       2.966  -4.323   4.816  0.00  0.00    -0.308 N 
ATOM     24  H   UNL     1       2.567  -4.892   5.494  0.00  0.00    +0.149 HD
BRANCH  23  25
ATOM     25  C   UNL     1       4.354  -4.538   4.403  0.00  0.00    +0.104 C 
ATOM     26  C   UNL     1       5.274  -3.612   5.201  0.00  0.00    +0.033 C 
BRANCH  25  27
ATOM     27  C   UNL     1       4.739  -5.972   4.661  0.00  0.00    +0.015 A 
ATOM     28  C   UNL     1       5.414  -6.781   3.812  0.00  0.00    +0.038 A 
ATOM     29  N   UNL     1       5.558  -7.981   4.413  0.00  0.00    -0.281 N 
ATOM     30  H   UNL     1       6.003  -8.757   4.038  0.00  0.00    +0.189 HD
ATOM     31  N   UNL     1       4.952  -7.907   5.674  0.00  0.00    -0.179 NA
ATOM     32  C   UNL     1       4.467  -6.701   5.824  0.00  0.00    +0.065 A 
ATOM     33  C   UNL     1       3.736  -6.187   7.038  0.00  0.00    +0.068 C 
ATOM     34  C   UNL     1       5.914  -6.409   2.440  0.00  0.00    +0.065 C 
ENDBRANCH  25  27
ENDBRANCH  23  25
ENDBRANCH   5  21
TORSDOF 4
