REMARK  Name = ZINC36504555
REMARK  11 active torsions:
REMARK  status: ('A' for Active; 'I' for Inactive)
REMARK    1  A    between atoms: C_1  and  C_2
REMARK    2  A    between atoms: C_2  and  C_3
REMARK    3  A    between atoms: C_2  and  C_4
REMARK    4  A    between atoms: C_2  and  N_5
REMARK    5  A    between atoms: C_6  and  C_8
REMARK    6  A    between atoms: C_8  and  C_10
REMARK    7  A    between atoms: C_8  and  N_17
REMARK    8  A    between atoms: C_15  and  O_16
REMARK    9  A    between atoms: N_17  and  C_18
REMARK   10  A    between atoms: C_18  and  C_19
REMARK   11  A    between atoms: C_24  and  C_26
REMARK                            x       y       z     vdW  Elec       q    Type
REMARK                         _______ _______ _______ _____ _____    ______ ____
ROOT
ATOM      1  C   UNL     1       2.998  -0.464  -3.039  0.00  0.00    +0.196 C 
ENDROOT
BRANCH   1   2
ATOM      2  C   UNL     1       2.772   0.247  -4.349  0.00  0.00    +0.023 A 
ATOM      3  C   UNL     1       2.106   1.457  -4.372  0.00  0.00    +0.009 A 
ATOM      4  C   UNL     1       1.897   2.110  -5.572  0.00  0.00    +0.001 A 
ATOM      5  C   UNL     1       2.354   1.554  -6.753  0.00  0.00    +0.004 A 
ATOM      6  C   UNL     1       3.021   0.344  -6.735  0.00  0.00    +0.046 A 
ATOM      7  C   UNL     1       3.236  -0.310  -5.531  0.00  0.00    +0.122 A 
BRANCH   7   8
ATOM      8  O   UNL     1       3.897  -1.498  -5.510  0.00  0.00    -0.506 OA
ATOM      9  H   UNL     1       3.333  -2.265  -5.682  0.00  0.00    +0.292 HD
ENDBRANCH   7   8
ENDBRANCH   1   2
BRANCH   1  11
ATOM     10  N   UNL     1       0.762  -0.370  -1.985  0.00  0.00    -0.309 N 
ATOM     11  C   UNL     1       2.038   0.066  -2.007  0.00  0.00    +0.239 C 
ATOM     12  O   UNL     1       2.412   0.886  -1.195  0.00  0.00    -0.273 OA
ATOM     13  H   UNL     1       0.445  -0.973  -2.675  0.00  0.00    +0.149 HD
BRANCH  10  15
ATOM     14  C   UNL     1      -0.275   1.591  -0.956  0.00  0.00    +0.031 C 
ATOM     15  C   UNL     1      -0.143   0.068  -0.920  0.00  0.00    +0.026 C 
ATOM     16  C   UNL     1       0.418  -0.364   0.436  0.00  0.00    +0.031 C 
ATOM     17  C   UNL     1      -1.520  -0.568  -1.128  0.00  0.00    +0.031 C 
ENDBRANCH  10  15
ENDBRANCH   1  11
BRANCH   1  18
ATOM     18  N   UNL     1       4.374  -0.235  -2.591  0.00  0.00    -0.277 N 
ATOM     19  C   UNL     1       4.856   1.021  -2.513  0.00  0.00    +0.237 C 
ATOM     20  O   UNL     1       4.152   1.961  -2.814  0.00  0.00    -0.274 OA
BRANCH  19  21
ATOM     21  C   UNL     1       6.271   1.258  -2.051  0.00  0.00    +0.159 C 
ATOM     22  C   UNL     1       6.344   1.215  -0.509  0.00  0.00    +0.041 C 
ATOM     23  C   UNL     1       6.187   2.710  -0.145  0.00  0.00    +0.098 C 
ATOM     24  C   UNL     1       6.667   3.445  -1.377  0.00  0.00    +0.214 C 
ATOM     25  O   UNL     1       6.970   4.619  -1.412  0.00  0.00    -0.276 OA
ATOM     26  N   UNL     1       6.710   2.606  -2.429  0.00  0.00    -0.304 N 
ATOM     27  H   UNL     1       6.995   2.859  -3.321  0.00  0.00    +0.149 HD
ENDBRANCH  19  21
BRANCH  18  28
ATOM     28  C   UNL     1       5.225  -1.370  -2.226  0.00  0.00    +0.183 C 
BRANCH  28  29
ATOM     29  C   UNL     1       5.848  -1.950  -3.470  0.00  0.00    +0.122 A 
ATOM     30  C   UNL     1       6.984  -1.525  -4.052  0.00  0.00    +0.046 A 
ATOM     31  C   UNL     1       7.196  -2.346  -5.184  0.00  0.00    +0.041 A 
ATOM     32  C   UNL     1       6.177  -3.223  -5.225  0.00  0.00    +0.195 A 
ATOM     33  O   UNL     1       5.367  -2.983  -4.181  0.00  0.00    -0.466 OA
ENDBRANCH  28  29
ENDBRANCH  18  28
ENDBRANCH   1  18
TORSDOF 8
