REMARK  Name = ZINC59489003
REMARK  6 active torsions:
REMARK  status: ('A' for Active; 'I' for Inactive)
REMARK    1  A    between atoms: C_3  and  N_24
REMARK    2  A    between atoms: C_6  and  C_7
REMARK    3  A    between atoms: N_9  and  N_10
REMARK    4  A    between atoms: N_10  and  C_11
REMARK    5  A    between atoms: C_12  and  C_18
REMARK    6  A    between atoms: C_18  and  C_20
REMARK                            x       y       z     vdW  Elec       q    Type
REMARK                         _______ _______ _______ _____ _____    ______ ____
ROOT
ATOM      1  N   UNL     1      -2.448  -2.823   0.165  0.00  0.00    -0.268 N 
ATOM      2  H   UNL     1      -1.623  -2.317   0.233  0.00  0.00    +0.170 HD
ENDROOT
BRANCH   1   3
ATOM      3  C   UNL     1      -2.415  -4.185   0.186  0.00  0.00    +0.029 C 
ATOM      4  C   UNL     1      -1.236  -4.825   0.203  0.00  0.00    +0.022 C 
ATOM      5  C   UNL     1      -1.191  -6.339   0.227  0.00  0.00    +0.040 C 
ATOM      6  C   UNL     1      -1.652  -6.817   1.606  0.00  0.00    +0.005 C 
ATOM      7  C   UNL     1      -3.163  -6.932   1.661  0.00  0.00    +0.001 C 
ATOM      8  C   UNL     1      -3.889  -5.602   1.575  0.00  0.00    +0.006 C 
ATOM      9  C   UNL     1      -3.709  -4.971   0.197  0.00  0.00    +0.052 C 
BRANCH   4  10
ATOM     10  C   UNL     1      -0.042  -4.091   0.199  0.00  0.00    +0.263 C 
ATOM     11  O   UNL     1       0.248  -3.396   1.153  0.00  0.00    -0.283 OA
BRANCH  10  12
ATOM     12  C   UNL     1       0.882  -4.162  -0.990  0.00  0.00    +0.455 C 
ATOM     13  F   UNL     1       2.088  -4.761  -0.608  0.00  0.00    -0.163 F 
ATOM     14  F   UNL     1       0.284  -4.923  -2.000  0.00  0.00    -0.163 F 
ATOM     15  F   UNL     1       1.133  -2.871  -1.465  0.00  0.00    -0.163 F 
ENDBRANCH  10  12
ENDBRANCH   4  10
ENDBRANCH   1   3
BRANCH   1  18
ATOM     16  C   UNL     1      -3.698  -0.812  -0.083  0.00  0.00    +0.260 C 
ATOM     17  O   UNL     1      -2.658  -0.192  -0.190  0.00  0.00    -0.269 OA
ATOM     18  N   UNL     1      -3.673  -2.154   0.046  0.00  0.00    -0.233 N 
ATOM     19  H   UNL     1      -4.503  -2.656   0.057  0.00  0.00    +0.173 HD
BRANCH  16  25
ATOM     20  C   UNL     1      -5.014   1.301  -0.120  0.00  0.00    +0.015 A 
ATOM     21  C   UNL     1      -6.218   1.965  -0.132  0.00  0.00    +0.023 A 
ATOM     22  C   UNL     1      -7.411   1.248  -0.119  0.00  0.00    +0.025 A 
ATOM     23  C   UNL     1      -7.389  -0.144  -0.094  0.00  0.00    +0.023 A 
ATOM     24  C   UNL     1      -6.188  -0.815  -0.082  0.00  0.00    +0.015 A 
ATOM     25  C   UNL     1      -4.988  -0.097  -0.095  0.00  0.00    +0.038 A 
BRANCH  22  26
ATOM     26  N   UNL     1      -8.627   1.922  -0.130  0.00  0.00    -0.358 N 
ATOM     27  H   UNL     1      -8.644   2.892  -0.147  0.00  0.00    +0.142 HD
ATOM     28  H   UNL     1      -9.459   1.423  -0.121  0.00  0.00    +0.142 HD
ENDBRANCH  22  26
ENDBRANCH  16  25
ENDBRANCH   1  18
TORSDOF 6
