REMARK  Name = ZINC20912785
REMARK  8 active torsions:
REMARK  status: ('A' for Active; 'I' for Inactive)
REMARK    1  A    between atoms: C_10  and  C_11
REMARK    2  A    between atoms: N_12  and  N_13
REMARK    3  A    between atoms: C_17  and  S_20
REMARK    4  A    between atoms: N_18  and  N_19
REMARK    5  A    between atoms: S_20  and  C_21
REMARK    6  A    between atoms: C_21  and  C_22
REMARK    7  A    between atoms: C_22  and  C_23
REMARK    8  A    between atoms: N_25  and  C_26
REMARK                            x       y       z     vdW  Elec       q    Type
REMARK                         _______ _______ _______ _____ _____    ______ ____
ROOT
ATOM      1  N   UNL     1      -1.377   0.049  -0.016  0.00  0.00    -0.204 N 
ATOM      2  C   UNL     1      -2.582  -0.639  -0.022  0.00  0.00    +0.254 A 
ATOM      3  N   UNL     1      -3.777  -0.101   0.006  0.00  0.00    -0.109 NA
ATOM      4  N   UNL     1      -4.719  -1.137  -0.016  0.00  0.00    -0.119 NA
ATOM      5  C   UNL     1      -4.069  -2.276  -0.048  0.00  0.00    +0.210 A 
ATOM      6  N   UNL     1      -2.731  -1.998  -0.053  0.00  0.00    -0.211 N 
ATOM      7  H   UNL     1      -0.427  -0.505  -0.037  0.00  0.00    +0.177 HD
ENDROOT
BRANCH   6   8
ATOM      8  N   UNL     1      -1.720  -2.916  -0.084  0.00  0.00    -0.294 N 
ATOM      9  H   UNL     1      -1.954  -3.991  -0.107  0.00  0.00    +0.163 HD
ATOM     10  H   UNL     1      -0.673  -2.581  -0.086  0.00  0.00    +0.163 HD
ENDBRANCH   6   8
BRANCH   1  12
ATOM     11  C   UNL     1      -0.242   2.095   0.023  0.00  0.00    +0.139 C 
ATOM     12  N   UNL     1      -1.371   1.450   0.017  0.00  0.00    -0.187 NA
BRANCH  11  22
ATOM     13  C   UNL     1      -3.806   5.792   0.498  0.00  0.00    +0.001 A 
ATOM     14  C   UNL     1      -3.853   4.401   0.469  0.00  0.00    +0.001 A 
ATOM     15  C   UNL     1      -2.715   3.664   0.328  0.00  0.00    +0.009 A 
ATOM     16  C   UNL     1      -1.481   4.313   0.210  0.00  0.00    -0.009 A 
ATOM     17  C   UNL     1      -1.429   5.729   0.239  0.00  0.00    -0.017 A 
ATOM     18  C   UNL     1      -2.623   6.456   0.385  0.00  0.00    +0.008 A 
ATOM     19  C   UNL     1      -0.188   6.377   0.119  0.00  0.00    +0.008 A 
ATOM     20  C   UNL     1       0.960   5.659  -0.023  0.00  0.00    +0.001 A 
ATOM     21  C   UNL     1       0.958   4.271  -0.049  0.00  0.00    +0.010 A 
ATOM     22  C   UNL     1      -0.235   3.564   0.057  0.00  0.00    +0.002 A 
ENDBRANCH  11  22
ENDBRANCH   1  12
BRANCH   5  23
ATOM     23  S   UNL     1      -4.793  -3.882  -0.080  0.00  0.00    -0.084 S 
BRANCH  23  24
ATOM     24  C   UNL     1      -6.547  -3.436  -0.054  0.00  0.00    +0.086 C 
BRANCH  24  25
ATOM     25  C   UNL     1      -7.396  -4.709  -0.077  0.00  0.00    +0.107 C 
BRANCH  25  26
ATOM     26  C   UNL     1      -8.857  -4.338  -0.056  0.00  0.00    +0.218 C 
ATOM     27  O   UNL     1      -9.186  -3.171  -0.025  0.00  0.00    -0.275 OA
ATOM     28  N   UNL     1      -9.797  -5.303  -0.070  0.00  0.00    -0.284 N 
ATOM     29  H   UNL     1      -9.502  -6.357  -0.173  0.00  0.00    +0.155 HD
BRANCH  28  30
ATOM     30  C   UNL     1     -11.151  -4.963   0.046  0.00  0.00    +0.052 A 
ATOM     31  C   UNL     1     -11.623  -3.786  -0.518  0.00  0.00    +0.026 A 
ATOM     32  C   UNL     1     -12.959  -3.453  -0.403  0.00  0.00    +0.022 A 
ATOM     33  C   UNL     1     -13.827  -4.293   0.274  0.00  0.00    +0.042 A 
ATOM     34  C   UNL     1     -13.359  -5.467   0.837  0.00  0.00    +0.041 A 
ATOM     35  C   UNL     1     -12.025  -5.807   0.720  0.00  0.00    +0.064 A 
ATOM     36 CL   UNL     1     -11.440  -7.284   1.421  0.00  0.00    -0.082 Cl
ATOM     37 CL   UNL     1     -15.505  -3.871   0.416  0.00  0.00    -0.083 Cl
ENDBRANCH  28  30
ENDBRANCH  25  26
ENDBRANCH  24  25
ENDBRANCH  23  24
ENDBRANCH   5  23
TORSDOF 8
