REMARK  Name = ZINC39206441
REMARK  6 active torsions:
REMARK  status: ('A' for Active; 'I' for Inactive)
REMARK    1  A    between atoms: C_1  and  C_2
REMARK    2  A    between atoms: C_2  and  C_3
REMARK    3  A    between atoms: C_3  and  C_4
REMARK    4  A    between atoms: C_6  and  C_18
REMARK    5  A    between atoms: C_8  and  C_16
REMARK    6  A    between atoms: C_9  and  N_15
REMARK                            x       y       z     vdW  Elec       q    Type
REMARK                         _______ _______ _______ _____ _____    ______ ____
ROOT
ATOM      1  C   UNL     1       0.550  -1.901  -1.080  0.00  0.00    +0.069 C 
ATOM      2  C   UNL     1      -0.224  -2.703  -1.770  0.00  0.00    +0.030 C 
ATOM      3  C   UNL     1      -1.270  -2.477  -2.828  0.00  0.00    +0.099 C 
ATOM      4  C   UNL     1      -1.026  -3.546  -3.876  0.00  0.00    +0.097 C 
ATOM      5  C   UNL     1      -0.154  -4.555  -3.671  0.00  0.00    +0.195 C 
ATOM      6  O   UNL     1       0.612  -4.746  -2.582  0.00  0.00    -0.448 OA
ATOM      7  C   UNL     1       0.202  -4.114  -1.366  0.00  0.00    +0.343 C 
ATOM      8  N   UNL     1       1.332  -3.847  -0.471  0.00  0.00    -0.138 NA
ATOM      9  N   UNL     1       1.444  -2.620  -0.354  0.00  0.00    -0.155 NA
ENDROOT
BRANCH   3  10
ATOM     10  C   UNL     1      -1.113  -1.105  -3.432  0.00  0.00    -0.019 A 
ATOM     11  C   UNL     1      -2.141  -0.170  -3.325  0.00  0.00    -0.013 A 
ATOM     12  C   UNL     1      -3.344  -0.482  -2.655  0.00  0.00    +0.009 A 
ATOM     13  C   UNL     1      -4.324   0.453  -2.570  0.00  0.00    +0.001 A 
ATOM     14  C   UNL     1      -4.179   1.722  -3.130  0.00  0.00    +0.001 A 
ATOM     15  C   UNL     1      -3.049   2.087  -3.787  0.00  0.00    +0.008 A 
ATOM     16  C   UNL     1      -1.988   1.165  -3.913  0.00  0.00    -0.017 A 
ATOM     17  C   UNL     1      -0.814   1.506  -4.582  0.00  0.00    +0.017 A 
ATOM     18  C   UNL     1       0.214   0.571  -4.689  0.00  0.00    -0.017 A 
ATOM     19  C   UNL     1       0.064  -0.762  -4.095  0.00  0.00    -0.013 A 
ATOM     20  C   UNL     1       1.127  -1.682  -4.216  0.00  0.00    +0.009 A 
ATOM     21  C   UNL     1       2.260  -1.315  -4.869  0.00  0.00    +0.001 A 
ATOM     22  C   UNL     1       2.405  -0.045  -5.428  0.00  0.00    +0.001 A 
ATOM     23  C   UNL     1       1.416   0.883  -5.359  0.00  0.00    +0.008 A 
ENDBRANCH   3  10
BRANCH   5  24
ATOM     24  N   UNL     1      -0.036  -5.481  -4.676  0.00  0.00    -0.329 N 
ATOM     25  H   UNL     1      -0.566  -5.391  -5.484  0.00  0.00    +0.145 HD
ATOM     26  H   UNL     1       0.577  -6.227  -4.580  0.00  0.00    +0.145 HD
ENDBRANCH   5  24
BRANCH   4  27
ATOM     27  C   UNL     1      -1.741  -3.483  -5.116  0.00  0.00    +0.101 C 
ATOM     28  N   UNL     1      -2.308  -3.434  -6.099  0.00  0.00    -0.191 NA
ENDBRANCH   4  27
BRANCH   1  29
ATOM     29  C   UNL     1       0.464  -0.397  -1.094  0.00  0.00    +0.057 C 
BRANCH  29  31
ATOM     30  C   UNL     1      -0.483   1.603   0.066  0.00  0.00    +0.004 C 
ATOM     31  C   UNL     1      -0.396   0.076   0.081  0.00  0.00    +0.003 C 
ENDBRANCH  29  31
ENDBRANCH   1  29
TORSDOF 5
