REMARK  Name = ZINC41023641
REMARK  7 active torsions:
REMARK  status: ('A' for Active; 'I' for Inactive)
REMARK    1  A    between atoms: C_1  and  C_2
REMARK    2  A    between atoms: C_2  and  C_3
REMARK    3  A    between atoms: C_3  and  C_4
REMARK    4  A    between atoms: C_8  and  C_22
REMARK    5  A    between atoms: C_10  and  S_13
REMARK    6  A    between atoms: S_13  and  C_14
REMARK    7  A    between atoms: C_18  and  N_20
REMARK                            x       y       z     vdW  Elec       q    Type
REMARK                         _______ _______ _______ _____ _____    ______ ____
ROOT
ATOM      1  S   UNL     1       2.631  -4.674   3.784  0.00  0.00    -0.081 S 
ENDROOT
BRANCH   1   2
ATOM      2  C   UNL     1       4.280  -4.240   3.338  0.00  0.00    +0.192 A 
ATOM      3  N   UNL     1       4.484  -3.525   2.242  0.00  0.00    -0.207 NA
ATOM      4  C   UNL     1       5.716  -3.178   1.874  0.00  0.00    +0.122 A 
ATOM      5  C   UNL     1       6.795  -3.577   2.658  0.00  0.00    +0.086 A 
ATOM      6  C   UNL     1       6.540  -4.328   3.802  0.00  0.00    +0.122 A 
ATOM      7  N   UNL     1       5.282  -4.633   4.110  0.00  0.00    -0.207 NA
ATOM      8  N   UNL     1       5.921  -2.430   0.725  0.00  0.00    -0.343 N 
ATOM      9  H   UNL     1       5.165  -2.155   0.184  0.00  0.00    +0.144 HD
ATOM     10  H   UNL     1       6.822  -2.181   0.463  0.00  0.00    +0.144 HD
BRANCH   6  11
ATOM     11  N   UNL     1       7.584  -4.748   4.613  0.00  0.00    -0.343 N 
ATOM     12  H   UNL     1       8.498  -4.519   4.384  0.00  0.00    +0.144 HD
ATOM     13  H   UNL     1       7.399  -5.271   5.409  0.00  0.00    +0.144 HD
ENDBRANCH   6  11
ENDBRANCH   1   2
BRANCH   1  18
ATOM     14  C   UNL     1       0.820  -1.574   1.774  0.00  0.00    -0.010 C 
ATOM     15  C   UNL     1      -0.633  -2.035   1.912  0.00  0.00    +0.005 C 
ATOM     16  C   UNL     1      -0.714  -3.544   1.671  0.00  0.00    +0.020 C 
ATOM     17  C   UNL     1       0.152  -4.272   2.700  0.00  0.00    +0.105 C 
ATOM     18  C   UNL     1       1.605  -3.811   2.563  0.00  0.00    +0.071 C 
ATOM     19  C   UNL     1       1.686  -2.302   2.804  0.00  0.00    +0.019 C 
BRANCH  17  20
ATOM     20  C   UNL     1       0.074  -5.724   2.469  0.00  0.00    +0.067 C 
ATOM     21  N   UNL     1       0.014  -6.844   2.290  0.00  0.00    -0.196 NA
ENDBRANCH  17  20
BRANCH  14  22
ATOM     22  C   UNL     1       0.901  -0.065   2.015  0.00  0.00    +0.003 C 
BRANCH  22  24
ATOM     23  C   UNL     1       0.217   2.178   1.153  0.00  0.00    +0.004 C 
ATOM     24  C   UNL     1       0.136   0.669   0.912  0.00  0.00    -0.003 C 
ENDBRANCH  22  24
ENDBRANCH  14  22
ENDBRANCH   1  18
TORSDOF 6
