REMARK  Name = ZINC45050026
REMARK  5 active torsions:
REMARK  status: ('A' for Active; 'I' for Inactive)
REMARK    1  A    between atoms: C_7  and  C_11
REMARK    2  A    between atoms: C_11  and  C_13
REMARK    3  A    between atoms: C_11  and  C_23
REMARK    4  A    between atoms: C_13  and  N_14
REMARK    5  A    between atoms: C_15  and  C_17
REMARK                            x       y       z     vdW  Elec       q    Type
REMARK                         _______ _______ _______ _____ _____    ______ ____
ROOT
ATOM      1  C   UNL     1       0.666  -3.275  -0.021  0.00  0.00    +0.069 C 
ENDROOT
BRANCH   1   8
ATOM      2  C   UNL     1      -0.017   1.362   0.009  0.00  0.00    +0.001 A 
ATOM      3  C   UNL     1       1.170   2.083   0.002  0.00  0.00    +0.002 A 
ATOM      4  C   UNL     1       2.386   1.436  -0.013  0.00  0.00    +0.026 A 
ATOM      5  C   UNL     1       2.428   0.046  -0.021  0.00  0.00    +0.047 A 
ATOM      6  C   UNL     1       1.223  -0.681  -0.013  0.00  0.00    +0.003 A 
ATOM      7  C   UNL     1       0.002  -0.004   0.002  0.00  0.00    +0.010 A 
ATOM      8  C   UNL     1       1.604  -2.095  -0.025  0.00  0.00    -0.013 A 
ATOM      9  C   UNL     1       2.945  -2.141  -0.038  0.00  0.00    +0.088 A 
ATOM     10  N   UNL     1       3.455  -0.871  -0.036  0.00  0.00    -0.360 N 
ATOM     11  H   UNL     1       4.399  -0.650  -0.044  0.00  0.00    +0.165 HD
ENDBRANCH   1   8
BRANCH   1  12
ATOM     12  C   UNL     1       0.898  -4.104  -1.258  0.00  0.00    -0.020 A 
ATOM     13  C   UNL     1       2.138  -4.669  -1.490  0.00  0.00    +0.006 A 
ATOM     14  C   UNL     1       2.350  -5.429  -2.625  0.00  0.00    +0.000 A 
ATOM     15  C   UNL     1       1.322  -5.625  -3.529  0.00  0.00    +0.001 A 
ATOM     16  C   UNL     1       0.082  -5.061  -3.298  0.00  0.00    +0.020 A 
ATOM     17  C   UNL     1      -0.133  -4.304  -2.159  0.00  0.00    +0.045 A 
ATOM     18 CL   UNL     1      -1.692  -3.600  -1.866  0.00  0.00    -0.083 Cl
ENDBRANCH   1  12
BRANCH   1  19
ATOM     19  C   UNL     1       0.927  -4.130   1.221  0.00  0.00    +0.117 C 
BRANCH  19  20
ATOM     20  N   UNL     1      -0.061  -5.209   1.287  0.00  0.00    -0.312 N 
ATOM     21  C   UNL     1      -0.027  -6.093   2.304  0.00  0.00    +0.242 C 
ATOM     22  O   UNL     1       0.822  -5.995   3.164  0.00  0.00    -0.273 OA
ATOM     23  H   UNL     1      -0.741  -5.288   0.599  0.00  0.00    +0.149 HD
BRANCH  21  24
ATOM     24  C   UNL     1      -1.044  -7.204   2.372  0.00  0.00    +0.204 C 
ATOM     25  C   UNL     1      -2.453  -6.611   2.583  0.00  0.00    +0.043 C 
ATOM     26  C   UNL     1      -3.091  -7.621   3.575  0.00  0.00    +0.031 C 
ATOM     27  C   UNL     1      -1.855  -8.024   4.419  0.00  0.00    +0.161 C 
ATOM     28  O   UNL     1      -0.759  -8.055   3.488  0.00  0.00    -0.367 OA
ENDBRANCH  21  24
ENDBRANCH  19  20
ENDBRANCH   1  19
TORSDOF 5
