REMARK  Name = ZINC36206732
REMARK  15 active torsions:
REMARK  status: ('A' for Active; 'I' for Inactive)
REMARK    1  A    between atoms: C_1  and  C_2
REMARK    2  A    between atoms: C_2  and  C_3
REMARK    3  A    between atoms: C_9  and  C_18
REMARK    4  A    between atoms: C_13  and  C_14
REMARK    5  A    between atoms: C_14  and  O_16
REMARK    6  A    between atoms: O_16  and  C_17
REMARK    7  A    between atoms: C_18  and  N_19
REMARK    8  A    between atoms: N_19  and  C_20
REMARK    9  A    between atoms: N_19  and  C_31
REMARK   10  A    between atoms: C_20  and  C_21
REMARK   11  A    between atoms: C_21  and  C_23
REMARK   12  A    between atoms: C_21  and  O_30
REMARK   13  A    between atoms: C_23  and  C_24
REMARK   14  A    between atoms: C_31  and  C_32
REMARK   15  A    between atoms: C_31  and  C_33
REMARK                            x       y       z     vdW  Elec       q    Type
REMARK                         _______ _______ _______ _____ _____    ______ ____
ROOT
ATOM      1  C   UNL     1      -0.610  -4.041   1.084  0.00  0.00    -0.012 A 
ATOM      2  C   UNL     1      -1.456  -3.524   2.067  0.00  0.00    +0.076 A 
ATOM      3  C   UNL     1      -1.110  -2.903   3.367  0.00  0.00    +0.260 A 
ATOM      4  O   UNL     1       0.051  -2.784   3.713  0.00  0.00    -0.267 OA
ATOM      5  N   UNL     1      -2.115  -2.474   4.156  0.00  0.00    -0.312 N 
ATOM      6  H   UNL     1      -1.906  -2.065   5.010  0.00  0.00    +0.170 HD
ATOM      7  C   UNL     1      -3.411  -2.602   3.781  0.00  0.00    +0.094 A 
ATOM      8  N   UNL     1      -3.750  -3.144   2.642  0.00  0.00    -0.229 NA
ATOM      9  C   UNL     1      -2.840  -3.599   1.791  0.00  0.00    +0.116 A 
ATOM     10  S   UNL     1      -2.896  -4.377   0.196  0.00  0.00    -0.062 S 
ATOM     11  C   UNL     1      -1.139  -4.569  -0.058  0.00  0.00    +0.102 A 
ENDROOT
BRANCH   1  13
ATOM     12  C   UNL     1       1.445  -2.701   0.719  0.00  0.00    +0.009 C 
ATOM     13  C   UNL     1       0.884  -4.010   1.280  0.00  0.00    +0.034 C 
ENDBRANCH   1  13
BRANCH  11  14
ATOM     14  C   UNL     1      -0.440  -5.153  -1.205  0.00  0.00    +0.346 C 
ATOM     15  O   UNL     1       0.775  -5.208  -1.212  0.00  0.00    -0.244 OA
BRANCH  14  16
ATOM     16  O   UNL     1      -1.143  -5.629  -2.253  0.00  0.00    -0.464 OA
ATOM     17  C   UNL     1      -0.396  -6.184  -3.337  0.00  0.00    +0.280 C 
ENDBRANCH  14  16
ENDBRANCH  11  14
BRANCH   7  18
ATOM     18  C   UNL     1      -4.492  -2.104   4.704  0.00  0.00    -0.003 C 
BRANCH  18  19
ATOM     19  N   UNL     1      -5.792  -2.180   4.023  0.00  0.00    +0.388 N 
ATOM     20  H   UNL     1      -5.814  -2.996   3.431  0.00  0.00    -0.081 HD
BRANCH  19  21
ATOM     21  C   UNL     1      -5.986  -0.975   3.204  0.00  0.00    -0.074 C 
ATOM     22  C   UNL     1      -5.937   0.264   4.101  0.00  0.00    -0.014 C 
ATOM     23  C   UNL     1      -4.878  -0.888   2.154  0.00  0.00    -0.014 C 
ENDBRANCH  19  21
BRANCH  19  24
ATOM     24  C   UNL     1      -6.864  -2.271   5.023  0.00  0.00    -0.046 C 
BRANCH  24  25
ATOM     25  C   UNL     1      -8.202  -2.496   4.316  0.00  0.00    +0.102 C 
BRANCH  25  26
ATOM     26  O   UNL     1      -8.163  -3.735   3.604  0.00  0.00    -0.393 OA
ATOM     27  H   UNL     1      -8.004  -4.505   4.166  0.00  0.00    +0.210 HD
ENDBRANCH  25  26
BRANCH  25  28
ATOM     28  C   UNL     1      -9.326  -2.538   5.353  0.00  0.00    +0.064 C 
BRANCH  28  29
ATOM     29  C   UNL     1     -10.656  -2.636   4.649  0.00  0.00    -0.045 A 
ATOM     30  C   UNL     1     -11.335  -1.487   4.292  0.00  0.00    +0.004 A 
ATOM     31  C   UNL     1     -12.554  -1.577   3.647  0.00  0.00    +0.000 A 
ATOM     32  C   UNL     1     -13.094  -2.817   3.359  0.00  0.00    +0.000 A 
ATOM     33  C   UNL     1     -12.414  -3.966   3.715  0.00  0.00    +0.000 A 
ATOM     34  C   UNL     1     -11.193  -3.876   4.356  0.00  0.00    +0.004 A 
ENDBRANCH  28  29
ENDBRANCH  25  28
ENDBRANCH  24  25
ENDBRANCH  19  24
ENDBRANCH  18  19
ENDBRANCH   7  18
TORSDOF 11
