REMARK  Name = ZINC36430608
REMARK  7 active torsions:
REMARK  status: ('A' for Active; 'I' for Inactive)
REMARK    1  A    between atoms: C_1  and  C_2
REMARK    2  A    between atoms: C_6  and  N_9
REMARK    3  A    between atoms: C_7  and  C_8
REMARK    4  A    between atoms: C_10  and  C_12
REMARK    5  A    between atoms: C_13  and  C_14
REMARK    6  A    between atoms: C_18  and  O_20
REMARK    7  A    between atoms: O_20  and  C_21
REMARK                            x       y       z     vdW  Elec       q    Type
REMARK                         _______ _______ _______ _____ _____    ______ ____
ROOT
ATOM      1  C   UNL     1       2.764  -4.225   3.591  0.00  0.00    +0.068 C 
ATOM      2  C   UNL     1       3.350  -5.441   3.577  0.00  0.00    +0.013 C 
ENDROOT
BRANCH   2   3
ATOM      3  C   UNL     1       4.061  -5.928   4.768  0.00  0.00    -0.018 A 
ATOM      4  C   UNL     1       4.674  -7.185   4.754  0.00  0.00    +0.057 A 
ATOM      5  C   UNL     1       5.343  -7.642   5.875  0.00  0.00    +0.166 A 
ATOM      6  C   UNL     1       5.408  -6.850   7.018  0.00  0.00    +0.204 A 
ATOM      7  C   UNL     1       4.797  -5.597   7.035  0.00  0.00    +0.166 A 
ATOM      8  C   UNL     1       4.131  -5.133   5.917  0.00  0.00    +0.057 A 
ATOM      9  O   UNL     1       6.069  -7.282   8.126  0.00  0.00    -0.482 OA
ATOM     10  C   UNL     1       6.345  -8.684   8.206  0.00  0.00    +0.270 C 
ATOM     11  C   UNL     1       6.910  -9.140   6.853  0.00  0.00    +0.270 C 
ATOM     12  O   UNL     1       5.929  -8.870   5.845  0.00  0.00    -0.485 OA
BRANCH   7  13
ATOM     13  O   UNL     1       4.861  -4.827   8.154  0.00  0.00    -0.491 OA
ATOM     14  C   UNL     1       4.214  -3.554   8.104  0.00  0.00    +0.277 C 
ENDBRANCH   7  13
ENDBRANCH   2   3
BRANCH   1  16
ATOM     15  N   UNL     1       1.471  -2.526   2.420  0.00  0.00    -0.309 N 
ATOM     16  C   UNL     1       2.056  -3.740   2.406  0.00  0.00    +0.237 C 
ATOM     17  O   UNL     1       1.996  -4.433   1.407  0.00  0.00    -0.271 OA
ATOM     18  H   UNL     1       1.520  -1.974   3.216  0.00  0.00    +0.149 HD
BRANCH  15  24
ATOM     19  C   UNL     1      -0.019   1.526   0.010  0.00  0.00    +0.008 C 
ATOM     20  C   UNL     1       0.002  -0.004   0.002  0.00  0.00    -0.009 C 
ATOM     21  C   UNL     1      -1.433  -0.534   0.013  0.00  0.00    +0.003 C 
ATOM     22  C   UNL     1      -1.413  -2.063   0.004  0.00  0.00    +0.002 C 
ATOM     23  C   UNL     1      -0.673  -2.570   1.244  0.00  0.00    +0.022 C 
ATOM     24  C   UNL     1       0.763  -2.041   1.233  0.00  0.00    +0.076 C 
ATOM     25  C   UNL     1       0.742  -0.511   1.242  0.00  0.00    +0.009 C 
ATOM     26  C   UNL     1       0.026  -0.018   2.500  0.00  0.00    +0.009 C 
ENDBRANCH  15  24
ENDBRANCH   1  16
TORSDOF 4
