REMARK  Name = ZINC06282070
REMARK  9 active torsions:
REMARK  status: ('A' for Active; 'I' for Inactive)
REMARK    1  A    between atoms: C_1  and  C_2
REMARK    2  A    between atoms: C_7  and  C_14
REMARK    3  A    between atoms: C_14  and  C_16
REMARK    4  A    between atoms: C_14  and  N_69
REMARK    5  A    between atoms: N_20  and  C_21
REMARK    6  A    between atoms: C_26  and  C_27
REMARK    7  A    between atoms: C_26  and  N_69
REMARK    8  A    between atoms: C_33  and  C_34
REMARK    9  A    between atoms: C_33  and  N_69
REMARK                            x       y       z     vdW  Elec       q    Type
REMARK                         _______ _______ _______ _____ _____    ______ ____
ROOT
ATOM      1  C   UNL     1       5.412  -1.085  -0.770  0.00  0.00    +0.040 C 
ENDROOT
BRANCH   1   8
ATOM      2  C   UNL     1       7.937   5.816   2.332  0.00  0.00    +0.044 C 
ATOM      3  C   UNL     1       7.579   4.575   1.555  0.00  0.00    -0.048 A 
ATOM      4  C   UNL     1       8.054   4.415   0.261  0.00  0.00    +0.004 A 
ATOM      5  C   UNL     1       7.741   3.298  -0.461  0.00  0.00    +0.010 A 
ATOM      6  C   UNL     1       6.936   2.307   0.110  0.00  0.00    -0.001 A 
ATOM      7  C   UNL     1       6.585   1.095  -0.633  0.00  0.00    +0.017 A 
ATOM      8  C   UNL     1       5.796   0.171  -0.031  0.00  0.00    +0.011 A 
ATOM      9  C   UNL     1       5.338   0.379   1.288  0.00  0.00    +0.251 A 
ATOM     10  O   UNL     1       4.633  -0.466   1.812  0.00  0.00    -0.268 OA
ATOM     11  N   UNL     1       5.659   1.486   1.980  0.00  0.00    -0.322 N 
ATOM     12  H   UNL     1       5.327   1.597   2.884  0.00  0.00    +0.169 HD
ATOM     13  C   UNL     1       6.452   2.466   1.422  0.00  0.00    +0.049 A 
ATOM     14  C   UNL     1       6.784   3.612   2.137  0.00  0.00    +0.029 A 
ENDBRANCH   1   8
BRANCH   1  15
ATOM     15  C   UNL     1       5.996  -2.282  -0.064  0.00  0.00    +0.143 A 
ATOM     16  N   UNL     1       5.457  -2.943   0.931  0.00  0.00    -0.115 NA
ATOM     17  N   UNL     1       6.260  -3.897   1.257  0.00  0.00    -0.023 NA
ATOM     18  N   UNL     1       7.298  -3.861   0.495  0.00  0.00    -0.044 NA
ATOM     19  N   UNL     1       7.170  -2.882  -0.336  0.00  0.00    -0.227 N 
BRANCH  19  20
ATOM     20  C   UNL     1       8.124  -2.494  -1.377  0.00  0.00    +0.111 C 
ATOM     21  C   UNL     1       8.329  -3.660  -2.367  0.00  0.00    +0.027 C 
ATOM     22  C   UNL     1       9.834  -3.592  -2.727  0.00  0.00    +0.002 C 
ATOM     23  C   UNL     1      10.492  -3.201  -1.380  0.00  0.00    +0.002 C 
ATOM     24  C   UNL     1       9.499  -2.202  -0.751  0.00  0.00    +0.027 C 
ENDBRANCH  19  20
ENDBRANCH   1  15
BRANCH   1  25
ATOM     25  N   UNL     1       3.940  -1.213  -0.780  0.00  0.00    +0.395 N 
ATOM     26  H   UNL     1       3.627  -1.538   0.142  0.00  0.00    -0.079 HD
BRANCH  25  27
ATOM     27  C   UNL     1       3.526  -2.198  -1.802  0.00  0.00    -0.041 C 
BRANCH  27  28
ATOM     28  C   UNL     1       3.756  -3.584  -1.257  0.00  0.00    -0.064 A 
ATOM     29  C   UNL     1       2.826  -4.156  -0.408  0.00  0.00    +0.002 A 
ATOM     30  C   UNL     1       3.037  -5.428   0.092  0.00  0.00    +0.000 A 
ATOM     31  C   UNL     1       4.177  -6.127  -0.257  0.00  0.00    +0.000 A 
ATOM     32  C   UNL     1       5.107  -5.555  -1.105  0.00  0.00    +0.000 A 
ATOM     33  C   UNL     1       4.896  -4.284  -1.605  0.00  0.00    +0.002 A 
ENDBRANCH  27  28
ENDBRANCH  25  27
BRANCH  25  34
ATOM     34  C   UNL     1       3.321   0.099  -1.064  0.00  0.00    -0.040 C 
BRANCH  34  35
ATOM     35  C   UNL     1       1.853   0.024  -0.730  0.00  0.00    -0.046 A 
ATOM     36  C   UNL     1       0.931  -0.345  -1.698  0.00  0.00    +0.005 A 
ATOM     37  C   UNL     1      -0.408  -0.405  -1.345  0.00  0.00    +0.020 A 
ATOM     38  C   UNL     1      -0.779  -0.088  -0.052  0.00  0.00    +0.111 A 
ATOM     39  N   UNL     1       0.125   0.264   0.841  0.00  0.00    -0.263 NA
ATOM     40  C   UNL     1       1.408   0.327   0.542  0.00  0.00    +0.112 A 
ENDBRANCH  34  35
ENDBRANCH  25  34
ENDBRANCH   1  25
TORSDOF 8
