REMARK  Name = ZINC04526661
REMARK  7 active torsions:
REMARK  status: ('A' for Active; 'I' for Inactive)
REMARK    1  A    between atoms: C_1  and  C_2
REMARK    2  A    between atoms: C_2  and  C_3
REMARK    3  A    between atoms: C_3  and  C_5
REMARK    4  A    between atoms: C_3  and  N_6
REMARK    5  A    between atoms: C_7  and  C_9
REMARK    6  A    between atoms: C_19  and  C_21
REMARK    7  A    between atoms: C_24  and  N_27
REMARK                            x       y       z     vdW  Elec       q    Type
REMARK                         _______ _______ _______ _____ _____    ______ ____
ROOT
ATOM      1  C   UNL     1       2.152   0.559   7.828  0.00  0.00    +0.028 C 
ATOM      2  C   UNL     1       2.206   0.498   9.383  0.00  0.00    +0.061 C 
ATOM      3  S   UNL     1       4.020   0.790   9.605  0.00  0.00    -0.174 S 
ATOM      4  C   UNL     1       4.265   1.840   8.117  0.00  0.00    -0.016 C 
ATOM      5  C   UNL     1       5.516   1.390   7.376  0.00  0.00    +0.017 C 
ATOM      6  C   UNL     1       5.709   2.255   6.125  0.00  0.00    +0.107 C 
ATOM      7  N   UNL     1       5.693   3.669   6.523  0.00  0.00    -0.298 N 
ATOM      8  C   UNL     1       4.546   4.177   7.289  0.00  0.00    +0.107 C 
ATOM      9  C   UNL     1       4.360   3.301   8.533  0.00  0.00    +0.017 C 
ATOM     10  C   UNL     1       6.712   4.487   6.190  0.00  0.00    +0.247 C 
ATOM     11  O   UNL     1       7.702   4.035   5.649  0.00  0.00    -0.270 OA
ATOM     12  N   UNL     1       3.047   1.617   7.278  0.00  0.00    +0.397 N 
ATOM     13  H   UNL     1       2.520   2.496   7.223  0.00  0.00    -0.083 HD
ATOM     14  H   UNL     1       3.344   1.337   6.335  0.00  0.00    -0.083 HD
ENDROOT
BRANCH  10  15
ATOM     15  C   UNL     1       6.625   5.933   6.484  0.00  0.00    +0.037 A 
ATOM     16  C   UNL     1       5.405   6.600   6.366  0.00  0.00    +0.015 A 
ATOM     17  C   UNL     1       5.330   7.949   6.646  0.00  0.00    +0.033 A 
ATOM     18  C   UNL     1       6.463   8.642   7.034  0.00  0.00    +0.126 A 
ATOM     19  C   UNL     1       7.676   7.988   7.149  0.00  0.00    +0.033 A 
ATOM     20  C   UNL     1       7.764   6.638   6.876  0.00  0.00    +0.015 A 
BRANCH  18  21
ATOM     21  N   UNL     1       6.376  10.090   7.328  0.00  0.00    +0.056 N 
ATOM     22  O   UNL     1       7.372  10.703   7.670  0.00  0.00    -0.126 OA
ATOM     23  O   UNL     1       5.309  10.669   7.228  0.00  0.00    -0.126 OA
ENDBRANCH  18  21
ENDBRANCH  10  15
BRANCH   1  25
ATOM     24  N   UNL     1      -0.260   0.024   7.700  0.00  0.00    -0.314 N 
ATOM     25  C   UNL     1       0.743   0.871   7.393  0.00  0.00    +0.200 C 
ATOM     26  O   UNL     1       0.512   1.883   6.766  0.00  0.00    -0.278 OA
ATOM     27  H   UNL     1      -0.074  -0.785   8.201  0.00  0.00    +0.149 HD
BRANCH  24  28
ATOM     28  C   UNL     1      -1.629   0.327   7.277  0.00  0.00    +0.070 C 
ATOM     29  C   UNL     1      -1.843  -0.172   5.846  0.00  0.00    +0.028 C 
BRANCH  28  31
ATOM     30  C   UNL     1      -2.490   0.217   9.620  0.00  0.00    +0.005 C 
ATOM     31  C   UNL     1      -2.618  -0.371   8.213  0.00  0.00    +0.018 C 
ENDBRANCH  28  31
ENDBRANCH  24  28
ENDBRANCH   1  25
TORSDOF 5
