REMARK  Name = ZINC64006562
REMARK  7 active torsions:
REMARK  status: ('A' for Active; 'I' for Inactive)
REMARK    1  A    between atoms: C_1  and  O_2
REMARK    2  A    between atoms: O_2  and  C_3
REMARK    3  A    between atoms: C_6  and  C_9
REMARK    4  A    between atoms: C_9  and  C_10
REMARK    5  A    between atoms: N_19  and  C_20
REMARK    6  A    between atoms: C_26  and  C_28
REMARK    7  A    between atoms: C_31  and  C_34
REMARK                            x       y       z     vdW  Elec       q    Type
REMARK                         _______ _______ _______ _____ _____    ______ ____
ROOT
ATOM      1  C   UNL     1       3.986  -2.723  -4.066  0.00  0.00    +0.163 C 
ATOM      2  N   UNL     1       4.134  -3.714  -2.994  0.00  0.00    -0.324 N 
ATOM      3  C   UNL     1       4.866  -4.789  -3.518  0.00  0.00    +0.050 A 
ATOM      4  C   UNL     1       5.277  -5.976  -2.924  0.00  0.00    +0.025 A 
ATOM      5  C   UNL     1       6.000  -6.902  -3.650  0.00  0.00    +0.002 A 
ATOM      6  C   UNL     1       6.319  -6.651  -4.972  0.00  0.00    +0.002 A 
ATOM      7  C   UNL     1       5.915  -5.474  -5.572  0.00  0.00    +0.025 A 
ATOM      8  C   UNL     1       5.186  -4.537  -4.849  0.00  0.00    +0.052 A 
ATOM      9  N   UNL     1       4.673  -3.288  -5.233  0.00  0.00    -0.307 N 
ATOM     10  H   UNL     1       3.790  -3.639  -2.091  0.00  0.00    +0.148 HD
ENDROOT
BRANCH   9  11
ATOM     11  C   UNL     1       4.800  -2.665  -6.553  0.00  0.00    +0.078 C 
ATOM     12  C   UNL     1       4.153  -3.567  -7.607  0.00  0.00    +0.041 C 
ATOM     13  C   UNL     1       4.256  -2.896  -8.980  0.00  0.00    +0.109 C 
ATOM     14  N   UNL     1       5.665  -2.574  -9.244  0.00  0.00    -0.299 N 
ATOM     15  C   UNL     1       6.408  -1.787  -8.251  0.00  0.00    +0.109 C 
ATOM     16  C   UNL     1       6.281  -2.470  -6.885  0.00  0.00    +0.041 C 
ATOM     17  C   UNL     1       6.264  -2.992 -10.376  0.00  0.00    +0.246 C 
ATOM     18  O   UNL     1       5.640  -3.642 -11.189  0.00  0.00    -0.273 OA
BRANCH  17  19
ATOM     19  C   UNL     1       7.710  -2.654 -10.633  0.00  0.00    +0.238 C 
ATOM     20  C   UNL     1       7.839  -1.253 -11.206  0.00  0.00    +0.040 C 
ATOM     21  C   UNL     1       8.396  -1.450 -12.416  0.00  0.00    +0.092 C 
ATOM     22  N   UNL     1       8.611  -2.775 -12.630  0.00  0.00    -0.153 NA
ATOM     23  N   UNL     1       8.263  -3.508 -11.697  0.00  0.00    -0.170 NA
BRANCH  21  24
ATOM     24  C   UNL     1       8.728  -0.372 -13.381  0.00  0.00    +0.002 A 
ATOM     25  C   UNL     1       8.470   0.959 -13.058  0.00  0.00    +0.010 A 
ATOM     26  C   UNL     1       8.781   1.957 -13.959  0.00  0.00    +0.001 A 
ATOM     27  C   UNL     1       9.348   1.639 -15.180  0.00  0.00    +0.000 A 
ATOM     28  C   UNL     1       9.606   0.319 -15.505  0.00  0.00    +0.001 A 
ATOM     29  C   UNL     1       9.304  -0.687 -14.610  0.00  0.00    +0.010 A 
ENDBRANCH  21  24
ENDBRANCH  17  19
ENDBRANCH   9  11
BRANCH   1  30
ATOM     30  C   UNL     1       2.505  -2.503  -4.381  0.00  0.00    +0.077 C 
BRANCH  30  34
ATOM     31  C   UNL     1       0.606  -0.607  -1.056  0.00  0.00    +0.120 A 
ATOM     32  C   UNL     1       1.173   0.161  -2.062  0.00  0.00    +0.046 A 
ATOM     33  C   UNL     1       1.786  -0.455  -3.136  0.00  0.00    +0.007 A 
ATOM     34  C   UNL     1       1.835  -1.835  -3.209  0.00  0.00    -0.044 A 
ATOM     35  C   UNL     1       1.270  -2.602  -2.207  0.00  0.00    +0.007 A 
ATOM     36  C   UNL     1       0.661  -1.992  -1.128  0.00  0.00    +0.046 A 
BRANCH  31  38
ATOM     37  C   UNL     1      -0.017   1.425   0.010  0.00  0.00    +0.277 C 
ATOM     38  O   UNL     1       0.002  -0.004   0.002  0.00  0.00    -0.495 OA
ENDBRANCH  31  38
ENDBRANCH  30  34
ENDBRANCH   1  30
TORSDOF 6
