REMARK  Name = ZINC39127780
REMARK  7 active torsions:
REMARK  status: ('A' for Active; 'I' for Inactive)
REMARK    1  A    between atoms: C_1  and  C_2
REMARK    2  A    between atoms: C_3  and  C_26
REMARK    3  A    between atoms: C_4  and  O_25
REMARK    4  A    between atoms: C_5  and  C_24
REMARK    5  A    between atoms: N_11  and  S_12
REMARK    6  A    between atoms: S_12  and  C_15
REMARK    7  A    between atoms: C_18  and  C_21
REMARK                            x       y       z     vdW  Elec       q    Type
REMARK                         _______ _______ _______ _____ _____    ______ ____
ROOT
ATOM      1  C   UNL     1       0.438   1.473  -0.054  0.00  0.00    +0.046 C 
ATOM      2  C   UNL     1       0.222  -0.018  -0.029  0.00  0.00    -0.020 A 
ATOM      3  C   UNL     1      -0.099  -0.676  -1.193  0.00  0.00    -0.004 A 
ATOM      4  C   UNL     1      -0.305  -2.049  -1.209  0.00  0.00    +0.124 A 
ATOM      5  C   UNL     1      -0.184  -2.762  -0.024  0.00  0.00    +0.007 A 
ATOM      6  C   UNL     1       0.137  -2.100   1.137  0.00  0.00    +0.046 A 
ATOM      7  C   UNL     1       0.356  -0.717   1.182  0.00  0.00    +0.059 A 
ATOM      8  N   UNL     1       0.678  -0.191   2.426  0.00  0.00    -0.332 N 
ATOM      9  C   UNL     1       0.769  -1.020   3.517  0.00  0.00    +0.192 A 
ATOM     10  S   UNL     1       0.383  -2.617   2.819  0.00  0.00    -0.048 S 
ATOM     11  N   UNL     1       1.058  -0.716   4.755  0.00  0.00    -0.103 NA
ATOM     12  C   UNL     1      -0.403  -4.253  -0.010  0.00  0.00    +0.049 C 
ATOM     13  C   UNL     1      -0.228   0.107  -2.474  0.00  0.00    +0.048 C 
ATOM     14  H   UNL     1       0.839   0.760   2.525  0.00  0.00    +0.168 HD
ENDROOT
BRANCH  11  15
ATOM     15  S   UNL     1       1.108  -1.902   5.909  0.00  0.00    +0.101 S 
ATOM     16  O   UNL     1      -0.220  -2.389   6.049  0.00  0.00    -0.146 OA
ATOM     17  O   UNL     1       2.199  -2.749   5.574  0.00  0.00    -0.146 OA
BRANCH  15  18
ATOM     18  C   UNL     1       1.523  -1.126   7.436  0.00  0.00    +0.113 A 
ATOM     19  C   UNL     1       2.851  -0.992   7.801  0.00  0.00    +0.030 A 
ATOM     20  C   UNL     1       3.183  -0.385   8.995  0.00  0.00    +0.015 A 
ATOM     21  C   UNL     1       2.176   0.092   9.835  0.00  0.00    +0.037 A 
ATOM     22  C   UNL     1       0.838  -0.047   9.461  0.00  0.00    +0.015 A 
ATOM     23  C   UNL     1       0.520  -0.650   8.261  0.00  0.00    +0.030 A 
BRANCH  21  24
ATOM     24  C   UNL     1       2.524   0.743  11.117  0.00  0.00    +0.242 C 
ATOM     25  O   UNL     1       3.689   0.862  11.440  0.00  0.00    -0.270 OA
ATOM     26  N   UNL     1       1.549   1.203  11.926  0.00  0.00    -0.325 N 
ATOM     27  H   UNL     1       0.619   1.108  11.667  0.00  0.00    +0.145 HD
ATOM     28  H   UNL     1       1.778   1.630  12.766  0.00  0.00    +0.145 HD
ENDBRANCH  21  24
ENDBRANCH  15  18
ENDBRANCH  11  15
BRANCH   4  29
ATOM     29  O   UNL     1      -0.623  -2.685  -2.368  0.00  0.00    -0.506 OA
ATOM     30  H   UNL     1       0.144  -2.997  -2.869  0.00  0.00    +0.292 HD
ENDBRANCH   4  29
TORSDOF 4
