REMARK  Name = ZINC39272493
REMARK  7 active torsions:
REMARK  status: ('A' for Active; 'I' for Inactive)
REMARK    1  A    between atoms: C_1  and  C_2
REMARK    2  A    between atoms: C_2  and  C_3
REMARK    3  A    between atoms: C_2  and  C_4
REMARK    4  A    between atoms: C_4  and  C_6
REMARK    5  A    between atoms: C_4  and  N_20
REMARK    6  A    between atoms: C_6  and  N_8
REMARK    7  A    between atoms: C_21  and  O_32
REMARK                            x       y       z     vdW  Elec       q    Type
REMARK                         _______ _______ _______ _____ _____    ______ ____
ROOT
ATOM      1  C   UNL     1       0.717  -0.375  -1.168  0.00  0.00    +0.171 C 
ENDROOT
BRANCH   1   2
ATOM      2  N   UNL     1       0.109   0.374  -2.269  0.00  0.00    -0.244 N 
ATOM      3  C   UNL     1       0.961   1.164  -3.159  0.00  0.00    +0.300 C 
ATOM      4  N   UNL     1       0.407   1.177  -4.517  0.00  0.00    -0.303 N 
ATOM      5  C   UNL     1      -0.962   1.361  -4.680  0.00  0.00    +0.042 A 
ATOM      6  C   UNL     1      -1.488   1.954  -5.815  0.00  0.00    +0.024 A 
ATOM      7  C   UNL     1      -2.856   2.105  -5.937  0.00  0.00    +0.002 A 
ATOM      8  C   UNL     1      -3.705   1.667  -4.933  0.00  0.00    +0.001 A 
ATOM      9  C   UNL     1      -3.197   1.078  -3.793  0.00  0.00    +0.015 A 
ATOM     10  C   UNL     1      -1.819   0.925  -3.655  0.00  0.00    +0.058 A 
ATOM     11  C   UNL     1      -1.226   0.320  -2.450  0.00  0.00    +0.252 C 
ATOM     12  O   UNL     1      -1.935  -0.219  -1.623  0.00  0.00    -0.270 OA
ATOM     13  H   UNL     1       0.985   1.060  -5.287  0.00  0.00    +0.150 HD
BRANCH   3  14
ATOM     14  O   UNL     1       1.040   2.505  -2.670  0.00  0.00    -0.359 OA
ATOM     15  H   UNL     1       1.591   3.088  -3.211  0.00  0.00    +0.213 HD
ENDBRANCH   3  14
ENDBRANCH   1   2
BRANCH   1  17
ATOM     16  C   UNL     1       0.854  -0.582   1.318  0.00  0.00    +0.009 C 
ATOM     17  C   UNL     1       0.117   0.092   0.160  0.00  0.00    +0.013 C 
ATOM     18  C   UNL     1       0.261   1.610   0.278  0.00  0.00    +0.009 C 
ENDBRANCH   1  17
BRANCH   1  19
ATOM     19  C   UNL     1       0.446  -1.846  -1.351  0.00  0.00    +0.260 C 
ATOM     20  O   UNL     1      -0.194  -2.232  -2.311  0.00  0.00    -0.272 OA
BRANCH  19  21
ATOM     21  N   UNL     1       0.907  -2.723  -0.465  0.00  0.00    -0.145 NA
ATOM     22  C   UNL     1       0.586  -4.010  -0.572  0.00  0.00    +0.198 A 
ATOM     23  N   UNL     1      -0.094  -4.567  -1.608  0.00  0.00    -0.326 N 
ATOM     24  H   UNL     1      -0.425  -4.097  -2.389  0.00  0.00    +0.169 HD
ATOM     25  C   UNL     1      -0.233  -5.928  -1.356  0.00  0.00    +0.065 A 
ATOM     26  C   UNL     1      -0.830  -6.965  -2.060  0.00  0.00    +0.028 A 
ATOM     27  C   UNL     1      -0.809  -8.246  -1.545  0.00  0.00    +0.002 A 
ATOM     28  C   UNL     1      -0.197  -8.501  -0.329  0.00  0.00    +0.002 A 
ATOM     29  C   UNL     1       0.399  -7.476   0.378  0.00  0.00    +0.028 A 
ATOM     30  C   UNL     1       0.384  -6.185  -0.131  0.00  0.00    +0.065 A 
ATOM     31  N   UNL     1       0.891  -4.976   0.334  0.00  0.00    -0.326 N 
ATOM     32  H   UNL     1       1.377  -4.844   1.163  0.00  0.00    +0.169 HD
ENDBRANCH  19  21
ENDBRANCH   1  19
TORSDOF 5
