REMARK  Name = ZINC39532632
REMARK  11 active torsions:
REMARK  status: ('A' for Active; 'I' for Inactive)
REMARK    1  A    between atoms: C_1  and  C_2
REMARK    2  A    between atoms: C_2  and  C_3
REMARK    3  A    between atoms: C_3  and  C_4
REMARK    4  A    between atoms: C_7  and  C_10
REMARK    5  A    between atoms: C_10  and  C_12
REMARK    6  A    between atoms: C_10  and  N_21
REMARK    7  A    between atoms: C_12  and  N_13
REMARK    8  A    between atoms: N_13  and  C_14
REMARK    9  A    between atoms: C_14  and  C_15
REMARK   10  A    between atoms: C_25  and  C_28
REMARK   11  A    between atoms: C_33  and  O_34
REMARK                            x       y       z     vdW  Elec       q    Type
REMARK                         _______ _______ _______ _____ _____    ______ ____
ROOT
ATOM      1  C   UNL     1      -0.041  -6.131  -0.199  0.00  0.00    -0.024 C 
ENDROOT
BRANCH   1   2
ATOM      2  N   UNL     1      -1.487  -6.373  -0.104  0.00  0.00    +0.383 N 
ATOM      3  C   UNL     1      -2.037  -5.609   1.024  0.00  0.00    -0.097 C 
ATOM      4  C   UNL     1      -3.543  -5.861   1.123  0.00  0.00    -0.101 C 
ATOM      5  N   UNL     1      -3.788  -7.294   1.335  0.00  0.00    +0.381 N 
ATOM      6  C   UNL     1      -3.237  -8.057   0.207  0.00  0.00    -0.054 C 
ATOM      7  C   UNL     1      -1.731  -7.806   0.108  0.00  0.00    -0.089 C 
ATOM      8  H   UNL     1      -3.341  -7.588   2.191  0.00  0.00    -0.085 HD
ATOM      9  H   UNL     1      -4.781  -7.459   1.400  0.00  0.00    -0.085 HD
ATOM     10  H   UNL     1      -1.934  -6.078  -0.960  0.00  0.00    -0.081 HD
BRANCH   6  11
ATOM     11  C   UNL     1      -3.488  -9.527   0.425  0.00  0.00    -0.022 A 
ATOM     12  C   UNL     1      -3.732 -10.005   1.698  0.00  0.00    +0.005 A 
ATOM     13  C   UNL     1      -3.962 -11.354   1.898  0.00  0.00    +0.000 A 
ATOM     14  C   UNL     1      -3.948 -12.227   0.826  0.00  0.00    +0.004 A 
ATOM     15  C   UNL     1      -3.705 -11.753  -0.449  0.00  0.00    +0.045 A 
ATOM     16  C   UNL     1      -3.480 -10.399  -0.653  0.00  0.00    +0.118 A 
BRANCH  16  17
ATOM     17  O   UNL     1      -3.246  -9.930  -1.907  0.00  0.00    -0.507 OA
ATOM     18  H   UNL     1      -2.321  -9.992  -2.184  0.00  0.00    +0.292 HD
ENDBRANCH  16  17
ENDBRANCH   6  11
ENDBRANCH   1   2
BRANCH   1  22
ATOM     19  C   UNL     1       0.692  -1.928  -0.411  0.00  0.00    -0.047 A 
ATOM     20  C   UNL     1       1.520  -2.737   0.345  0.00  0.00    +0.004 A 
ATOM     21  C   UNL     1       1.283  -4.097   0.413  0.00  0.00    +0.002 A 
ATOM     22  C   UNL     1       0.217  -4.649  -0.273  0.00  0.00    -0.060 A 
ATOM     23  C   UNL     1      -0.611  -3.840  -1.028  0.00  0.00    +0.002 A 
ATOM     24  C   UNL     1      -0.377  -2.479  -1.093  0.00  0.00    +0.004 A 
BRANCH  19  25
ATOM     25  C   UNL     1       0.951  -0.446  -0.485  0.00  0.00    +0.035 C 
BRANCH  25  27
ATOM     26  C   UNL     1       0.459   1.766   0.567  0.00  0.00    +0.004 C 
ATOM     27  C   UNL     1       0.197   0.261   0.643  0.00  0.00    +0.001 C 
ENDBRANCH  25  27
ENDBRANCH  19  25
ENDBRANCH   1  22
BRANCH   1  28
ATOM     28  C   UNL     1       0.508  -6.808  -1.457  0.00  0.00    +0.070 C 
BRANCH  28  29
ATOM     29  N   UNL     1       0.398  -8.266  -1.317  0.00  0.00    -0.313 NA
ATOM     30  H   UNL     1       0.803  -8.577  -0.447  0.00  0.00    +0.122 HD
BRANCH  29  31
ATOM     31  C   UNL     1       1.013  -8.953  -2.460  0.00  0.00    +0.116 C 
BRANCH  31  32
ATOM     32  C   UNL     1       0.993 -10.441  -2.222  0.00  0.00    -0.034 A 
ATOM     33  C   UNL     1       2.004 -11.038  -1.492  0.00  0.00    +0.005 A 
ATOM     34  C   UNL     1       1.986 -12.403  -1.274  0.00  0.00    +0.000 A 
ATOM     35  C   UNL     1       0.956 -13.171  -1.785  0.00  0.00    +0.000 A 
ATOM     36  C   UNL     1      -0.055 -12.574  -2.514  0.00  0.00    +0.000 A 
ATOM     37  C   UNL     1      -0.039 -11.208  -2.729  0.00  0.00    +0.005 A 
ENDBRANCH  31  32
ENDBRANCH  29  31
ENDBRANCH  28  29
ENDBRANCH   1  28
TORSDOF 10
