REMARK  Name = ZINC39597619
REMARK  5 active torsions:
REMARK  status: ('A' for Active; 'I' for Inactive)
REMARK    1  A    between atoms: C_7  and  C_10
REMARK    2  A    between atoms: C_10  and  C_11
REMARK    3  A    between atoms: C_11  and  N_12
REMARK    4  A    between atoms: C_13  and  C_15
REMARK    5  A    between atoms: C_26  and  C_28
REMARK                            x       y       z     vdW  Elec       q    Type
REMARK                         _______ _______ _______ _____ _____    ______ ____
ROOT
ATOM      1  C   UNL     1      -5.662   7.128  -2.499  0.00  0.00    +0.100 C 
ATOM      2  C   UNL     1      -4.768   8.045  -1.635  0.00  0.00    +0.121 C 
ATOM      3  N   UNL     1      -3.832   8.672  -2.598  0.00  0.00    -0.296 N 
ATOM      4  C   UNL     1      -4.665   8.954  -3.791  0.00  0.00    +0.115 C 
ATOM      5  C   UNL     1      -5.595   7.731  -3.913  0.00  0.00    -0.004 C 
ATOM      6  C   UNL     1      -6.985   8.166  -4.368  0.00  0.00    -0.010 C 
ATOM      7  C   UNL     1      -6.902   8.708  -5.798  0.00  0.00    -0.082 C 
ATOM      8  N   UNL     1      -6.378   7.665  -6.689  0.00  0.00    +0.379 N 
ATOM      9  C   UNL     1      -5.006   7.319  -6.300  0.00  0.00    -0.082 C 
ATOM     10  C   UNL     1      -5.008   6.718  -4.891  0.00  0.00    -0.010 C 
ATOM     11  C   UNL     1      -2.520   8.928  -2.428  0.00  0.00    +0.249 C 
ATOM     12  O   UNL     1      -1.952   8.547  -1.422  0.00  0.00    -0.270 OA
ATOM     13  H   UNL     1      -6.962   6.845  -6.624  0.00  0.00    -0.086 HD
ATOM     14  H   UNL     1      -6.382   8.004  -7.639  0.00  0.00    -0.086 HD
ENDROOT
BRANCH  11  15
ATOM     15  C   UNL     1      -1.772   9.669  -3.461  0.00  0.00    +0.072 A 
ATOM     16  C   UNL     1      -2.397  10.689  -4.183  0.00  0.00    +0.019 A 
ATOM     17  C   UNL     1      -1.695  11.378  -5.147  0.00  0.00    +0.039 A 
ATOM     18  C   UNL     1      -0.368  11.062  -5.404  0.00  0.00    +0.126 A 
ATOM     19  C   UNL     1       0.259  10.053  -4.693  0.00  0.00    +0.077 A 
ATOM     20  C   UNL     1      -0.433   9.358  -3.719  0.00  0.00    +0.138 A 
ATOM     21  F   UNL     1       0.181   8.377  -3.021  0.00  0.00    -0.205 F 
ATOM     22  F   UNL     1       0.314  11.742  -6.351  0.00  0.00    -0.205 F 
ENDBRANCH  11  15
BRANCH   1  24
ATOM     23  N   UNL     1      -5.965   4.677  -2.630  0.00  0.00    -0.315 N 
ATOM     24  C   UNL     1      -5.123   5.721  -2.503  0.00  0.00    +0.218 C 
ATOM     25  O   UNL     1      -3.931   5.528  -2.391  0.00  0.00    -0.275 OA
ATOM     26  H   UNL     1      -6.919   4.831  -2.719  0.00  0.00    +0.149 HD
BRANCH  23  27
ATOM     27  C   UNL     1      -5.441   3.309  -2.633  0.00  0.00    +0.109 C 
BRANCH  27  28
ATOM     28  C   UNL     1      -6.598   2.320  -2.790  0.00  0.00    +0.056 C 
BRANCH  28  35
ATOM     29  C   UNL     1      -5.513  -0.707   0.621  0.00  0.00    +0.001 A 
ATOM     30  C   UNL     1      -5.038  -1.918   0.138  0.00  0.00    +0.002 A 
ATOM     31  C   UNL     1      -4.924  -2.138  -1.217  0.00  0.00    +0.026 A 
ATOM     32  C   UNL     1      -5.288  -1.138  -2.112  0.00  0.00    +0.047 A 
ATOM     33  N   UNL     1      -5.291  -1.051  -3.486  0.00  0.00    -0.360 N 
ATOM     34  C   UNL     1      -5.753   0.177  -3.873  0.00  0.00    +0.087 A 
ATOM     35  C   UNL     1      -6.059   0.913  -2.793  0.00  0.00    -0.021 A 
ATOM     36  C   UNL     1      -5.769   0.088  -1.618  0.00  0.00    +0.003 A 
ATOM     37  C   UNL     1      -5.882   0.287  -0.241  0.00  0.00    +0.010 A 
ATOM     38  H   UNL     1      -5.007  -1.755  -4.090  0.00  0.00    +0.165 HD
ENDBRANCH  28  35
ENDBRANCH  27  28
ENDBRANCH  23  27
ENDBRANCH   1  24
TORSDOF 5
