REMARK  Name = ZINC64538670
REMARK  9 active torsions:
REMARK  status: ('A' for Active; 'I' for Inactive)
REMARK    1  A    between atoms: C_1  and  C_2
REMARK    2  A    between atoms: C_7  and  C_21
REMARK    3  A    between atoms: C_9  and  N_12
REMARK    4  A    between atoms: C_13  and  C_15
REMARK    5  A    between atoms: N_23  and  C_24
REMARK    6  A    between atoms: C_24  and  C_25
REMARK    7  A    between atoms: C_25  and  C_26
REMARK    8  A    between atoms: C_26  and  C_27
REMARK    9  A    between atoms: C_26  and  C_28
REMARK                            x       y       z     vdW  Elec       q    Type
REMARK                         _______ _______ _______ _____ _____    ______ ____
ROOT
ATOM      1  C   UNL     1      -2.443   0.925   0.251  0.00  0.00    +0.044 C 
ATOM      2  C   UNL     1      -1.734  -0.403   0.170  0.00  0.00    -0.050 A 
ATOM      3  C   UNL     1      -1.585  -1.021  -1.074  0.00  0.00    +0.005 A 
ATOM      4  C   UNL     1      -0.957  -2.214  -1.210  0.00  0.00    +0.026 A 
ATOM      5  C   UNL     1      -0.429  -2.868  -0.067  0.00  0.00    +0.045 A 
ATOM      6  N   UNL     1       0.212  -4.012   0.065  0.00  0.00    -0.369 N 
ATOM      7  C   UNL     1       0.536  -4.219   1.480  0.00  0.00    +0.211 C 
ATOM      8  C   UNL     1      -0.009  -3.014   2.213  0.00  0.00    +0.051 C 
ATOM      9  C   UNL     1      -0.589  -2.214   1.243  0.00  0.00    +0.018 A 
ATOM     10  C   UNL     1      -1.252  -0.965   1.306  0.00  0.00    +0.015 A 
ATOM     11  H   UNL     1       0.434  -4.620  -0.658  0.00  0.00    +0.161 HD
ENDROOT
BRANCH   8  12
ATOM     12  N   UNL     1       0.057  -2.766   3.550  0.00  0.00    -0.282 N 
ATOM     13  C   UNL     1       0.144  -1.498   3.997  0.00  0.00    +0.248 C 
ATOM     14  O   UNL     1       0.128  -0.573   3.209  0.00  0.00    -0.270 OA
ATOM     15  H   UNL     1       0.042  -3.503   4.181  0.00  0.00    +0.155 HD
BRANCH  13  16
ATOM     16  C   UNL     1       0.259  -1.232   5.446  0.00  0.00    +0.037 A 
ATOM     17  C   UNL     1       0.283  -2.292   6.354  0.00  0.00    +0.013 A 
ATOM     18  C   UNL     1       0.391  -2.036   7.705  0.00  0.00    +0.001 A 
ATOM     19  C   UNL     1       0.474  -0.732   8.161  0.00  0.00    +0.000 A 
ATOM     20  C   UNL     1       0.449   0.323   7.267  0.00  0.00    +0.001 A 
ATOM     21  C   UNL     1       0.348   0.081   5.912  0.00  0.00    +0.013 A 
ENDBRANCH  13  16
ENDBRANCH   8  12
BRANCH   7  22
ATOM     22  C   UNL     1       2.030  -4.308   1.662  0.00  0.00    +0.241 C 
ATOM     23  O   UNL     1       2.772  -3.885   0.802  0.00  0.00    -0.273 OA
ATOM     24  N   UNL     1       2.540  -4.858   2.782  0.00  0.00    -0.313 N 
ATOM     25  H   UNL     1       1.947  -5.196   3.470  0.00  0.00    +0.149 HD
BRANCH  24  26
ATOM     26  C   UNL     1       3.992  -4.944   2.959  0.00  0.00    +0.104 C 
BRANCH  26  27
ATOM     27  C   UNL     1       4.303  -5.605   4.304  0.00  0.00    +0.022 C 
BRANCH  27  28
ATOM     28  C   UNL     1       5.819  -5.695   4.489  0.00  0.00    -0.016 C 
ATOM     29  C   UNL     1       6.131  -6.240   5.884  0.00  0.00    +0.007 C 
ATOM     30  C   UNL     1       6.407  -6.632   3.432  0.00  0.00    +0.007 C 
ENDBRANCH  27  28
ENDBRANCH  26  27
ENDBRANCH  24  26
ENDBRANCH   7  22
TORSDOF 6
