REMARK  Name = ZINC09917948
REMARK  12 active torsions:
REMARK  status: ('A' for Active; 'I' for Inactive)
REMARK    1  A    between atoms: C_1  and  C_2
REMARK    2  A    between atoms: C_7  and  C_9
REMARK    3  A    between atoms: C_7  and  C_10
REMARK    4  A    between atoms: N_11  and  S_13
REMARK    5  A    between atoms: S_13  and  C_16
REMARK    6  A    between atoms: C_20  and  C_22
REMARK    7  A    between atoms: N_24  and  C_25
REMARK    8  A    between atoms: C_25  and  C_26
REMARK    9  A    between atoms: N_28  and  C_29
REMARK   10  A    between atoms: C_29  and  C_30
REMARK   11  A    between atoms: C_29  and  C_31
REMARK   12  A    between atoms: C_29  and  C_32
REMARK                            x       y       z     vdW  Elec       q    Type
REMARK                         _______ _______ _______ _____ _____    ______ ____
ROOT
ATOM      1  C   UNL     1      -2.481  -4.103   0.316  0.00  0.00    +0.106 A 
ATOM      2  C   UNL     1      -1.702  -5.246   0.283  0.00  0.00    +0.028 A 
ATOM      3  C   UNL     1      -1.698  -6.119   1.356  0.00  0.00    +0.003 A 
ATOM      4  C   UNL     1      -2.472  -5.855   2.467  0.00  0.00    +0.013 A 
ATOM      5  C   UNL     1      -3.261  -4.704   2.507  0.00  0.00    +0.039 A 
ATOM      6  C   UNL     1      -3.256  -3.824   1.423  0.00  0.00    +0.041 A 
ENDROOT
BRANCH   5   7
ATOM      7  C   UNL     1      -4.094  -4.415   3.694  0.00  0.00    +0.245 C 
ATOM      8  O   UNL     1      -4.779  -3.412   3.725  0.00  0.00    -0.270 OA
ATOM      9  N   UNL     1      -4.093  -5.264   4.740  0.00  0.00    -0.303 N 
ATOM     10  H   UNL     1      -3.546  -6.065   4.715  0.00  0.00    +0.150 HD
BRANCH   9  11
ATOM     11  C   UNL     1      -4.918  -4.978   5.917  0.00  0.00    +0.200 C 
BRANCH  11  12
ATOM     12  C   UNL     1      -4.738  -6.074   6.935  0.00  0.00    +0.231 C 
ATOM     13  O   UNL     1      -3.993  -7.002   6.702  0.00  0.00    -0.274 OA
ATOM     14  N   UNL     1      -5.404  -6.022   8.106  0.00  0.00    -0.309 N 
ATOM     15  H   UNL     1      -5.999  -5.279   8.292  0.00  0.00    +0.149 HD
BRANCH  14  16
ATOM     16  C   UNL     1      -5.228  -7.087   9.096  0.00  0.00    +0.026 C 
ATOM     17  C   UNL     1      -3.757  -7.160   9.511  0.00  0.00    +0.031 C 
ATOM     18  C   UNL     1      -6.090  -6.788  10.325  0.00  0.00    +0.031 C 
ATOM     19  C   UNL     1      -5.654  -8.424   8.488  0.00  0.00    +0.031 C 
ENDBRANCH  14  16
ENDBRANCH  11  12
ENDBRANCH   9  11
ENDBRANCH   5   7
BRANCH   1  20
ATOM     20  S   UNL     1      -2.478  -2.997  -1.056  0.00  0.00    +0.061 S 
ATOM     21  O   UNL     1      -3.704  -2.279  -1.001  0.00  0.00    -0.153 OA
ATOM     22  O   UNL     1      -2.092  -3.759  -2.191  0.00  0.00    -0.153 OA
BRANCH  20  32
ATOM     23  C   UNL     1      -0.019   1.532   0.011  0.00  0.00    +0.012 C 
ATOM     24  C   UNL     1       0.002  -0.004   0.002  0.00  0.00    -0.016 C 
ATOM     25  C   UNL     1       0.683  -0.579  -1.271  0.00  0.00    +0.028 C 
ATOM     26  C   UNL     1       0.134  -2.027  -1.227  0.00  0.00    +0.081 C 
ATOM     27  C   UNL     1       0.915  -2.768  -0.142  0.00  0.00    +0.027 C 
ATOM     28  C   UNL     1       0.828  -2.105   1.222  0.00  0.00    -0.033 C 
ATOM     29  C   UNL     1       0.726  -0.591   1.212  0.00  0.00    +0.014 C 
ATOM     30  C   UNL     1       2.123  -2.471   1.990  0.00  0.00    +0.011 C 
ATOM     31  C   UNL     1      -0.337  -2.708   2.019  0.00  0.00    +0.011 C 
ATOM     32  N   UNL     1      -1.271  -1.894  -0.793  0.00  0.00    -0.173 NA
ATOM     33  C   UNL     1      -1.417  -0.610  -0.089  0.00  0.00    +0.116 C 
ENDBRANCH  20  32
ENDBRANCH   1  20
TORSDOF 6
