REMARK  Name = ZINC66875846
REMARK  7 active torsions:
REMARK  status: ('A' for Active; 'I' for Inactive)
REMARK    1  A    between atoms: C_1  and  C_2
REMARK    2  A    between atoms: C_2  and  C_4
REMARK    3  A    between atoms: C_2  and  N_16
REMARK    4  A    between atoms: C_10  and  C_13
REMARK    5  A    between atoms: C_19  and  N_22
REMARK    6  A    between atoms: C_23  and  C_25
REMARK    7  A    between atoms: C_25  and  C_26
REMARK                            x       y       z     vdW  Elec       q    Type
REMARK                         _______ _______ _______ _____ _____    ______ ____
ROOT
ATOM      1  N   UNL     1       0.852  -0.522   1.093  0.00  0.00    +0.387 N 
ATOM      2  C   UNL     1       2.201   0.054   1.047  0.00  0.00    -0.076 C 
ATOM      3  C   UNL     1       3.004  -0.422   2.259  0.00  0.00    +0.004 C 
ATOM      4  C   UNL     1       3.099  -1.950   2.234  0.00  0.00    +0.069 C 
ATOM      5  C   UNL     1       1.685  -2.539   2.208  0.00  0.00    +0.004 C 
ATOM      6  C   UNL     1       0.930  -1.984   0.997  0.00  0.00    -0.076 C 
ATOM      7  H   UNL     1       0.409  -0.266   1.963  0.00  0.00    -0.081 HD
ENDROOT
BRANCH   4   8
ATOM      8  N   UNL     1       3.801  -2.417   3.432  0.00  0.00    -0.313 N 
ATOM      9  C   UNL     1       4.443  -3.602   3.418  0.00  0.00    +0.213 C 
ATOM     10  O   UNL     1       4.439  -4.282   2.413  0.00  0.00    -0.276 OA
ATOM     11  H   UNL     1       3.804  -1.874   4.235  0.00  0.00    +0.149 HD
BRANCH   9  12
ATOM     12  C   UNL     1       5.165  -4.083   4.650  0.00  0.00    +0.099 C 
BRANCH  12  13
ATOM     13  C   UNL     1       5.804  -5.444   4.368  0.00  0.00    -0.002 C 
ATOM     14  C   UNL     1       4.708  -6.513   4.179  0.00  0.00    +0.004 C 
ATOM     15  C   UNL     1       5.298  -7.784   4.840  0.00  0.00    +0.000 C 
ATOM     16  C   UNL     1       6.037  -7.214   6.077  0.00  0.00    +0.000 C 
ATOM     17  C   UNL     1       6.649  -5.890   5.575  0.00  0.00    +0.004 C 
ENDBRANCH  12  13
ENDBRANCH   9  12
ENDBRANCH   4   8
BRANCH   1  19
ATOM     18  C   UNL     1       0.057   1.528   0.014  0.00  0.00    -0.004 C 
ATOM     19  C   UNL     1       0.060  -0.001  -0.030  0.00  0.00    +0.016 C 
BRANCH  19  20
ATOM     20  C   UNL     1      -1.355  -0.509   0.075  0.00  0.00    +0.202 C 
ATOM     21  O   UNL     1      -1.806  -0.828   1.154  0.00  0.00    -0.277 OA
ATOM     22  N   UNL     1      -2.119  -0.609  -1.031  0.00  0.00    -0.302 N 
ATOM     23  C   UNL     1      -1.629  -0.115  -2.326  0.00  0.00    +0.108 C 
ATOM     24  C   UNL     1      -1.739  -1.243  -3.357  0.00  0.00    +0.020 C 
ATOM     25  C   UNL     1      -3.177  -1.765  -3.386  0.00  0.00    +0.016 C 
ATOM     26  C   UNL     1      -3.544  -2.329  -2.012  0.00  0.00    +0.092 C 
ATOM     27  C   UNL     1      -3.453  -1.220  -0.967  0.00  0.00    +0.120 C 
BRANCH  26  28
ATOM     28  C   UNL     1      -4.949  -2.873  -2.051  0.00  0.00    +0.215 C 
ATOM     29  O   UNL     1      -5.797  -2.417  -1.313  0.00  0.00    -0.276 OA
ATOM     30  N   UNL     1      -5.264  -3.867  -2.905  0.00  0.00    -0.329 N 
ATOM     31  H   UNL     1      -4.586  -4.232  -3.496  0.00  0.00    +0.145 HD
ATOM     32  H   UNL     1      -6.168  -4.216  -2.931  0.00  0.00    +0.145 HD
ENDBRANCH  26  28
ENDBRANCH  19  20
ENDBRANCH   1  19
TORSDOF 6
