REMARK  Name = ZINC26502742
REMARK  11 active torsions:
REMARK  status: ('A' for Active; 'I' for Inactive)
REMARK    1  A    between atoms: C_1  and  C_2
REMARK    2  A    between atoms: C_6  and  C_8
REMARK    3  A    between atoms: C_8  and  C_9
REMARK    4  A    between atoms: C_9  and  N_10
REMARK    5  A    between atoms: N_10  and  C_11
REMARK    6  A    between atoms: C_11  and  C_13
REMARK    7  A    between atoms: C_11  and  C_14
REMARK    8  A    between atoms: C_18  and  C_20
REMARK    9  A    between atoms: C_20  and  O_21
REMARK   10  A    between atoms: O_21  and  C_22
REMARK   11  A    between atoms: C_32  and  C_35
REMARK                            x       y       z     vdW  Elec       q    Type
REMARK                         _______ _______ _______ _____ _____    ______ ____
ROOT
ATOM      1  C   UNL     1       0.450   9.256  -2.778  0.00  0.00    +0.028 A 
ATOM      2  C   UNL     1       1.011   9.756  -3.938  0.00  0.00    +0.021 A 
ATOM      3  C   UNL     1       1.543  11.036  -3.934  0.00  0.00    +0.004 A 
ATOM      4  C   UNL     1       1.490  11.769  -2.757  0.00  0.00    +0.027 A 
ATOM      5  C   UNL     1       0.913  11.202  -1.637  0.00  0.00    +0.079 A 
ATOM      6  N   UNL     1       0.413   9.983  -1.679  0.00  0.00    -0.255 NA
ENDROOT
BRANCH   1   7
ATOM      7  C   UNL     1      -0.131   7.866  -2.772  0.00  0.00    -0.025 C 
ATOM      8  C   UNL     1      -1.574   7.914  -3.279  0.00  0.00    -0.007 C 
BRANCH   7   9
ATOM      9  N   UNL     1      -0.111   7.333  -1.403  0.00  0.00    +0.385 N 
ATOM     10  H   UNL     1      -1.009   7.685  -0.874  0.00  0.00    -0.085 HD
ATOM     11  H   UNL     1       0.787   7.709  -0.891  0.00  0.00    -0.085 HD
BRANCH   9  12
ATOM     12  C   UNL     1      -0.091   5.864  -1.410  0.00  0.00    -0.077 C 
BRANCH  12  13
ATOM     13  C   UNL     1      -0.070   5.347   0.030  0.00  0.00    +0.016 C 
BRANCH  13  19
ATOM     14  C   UNL     1      -2.514   0.980   0.019  0.00  0.00    +0.044 C 
ATOM     15  C   UNL     1      -1.219   1.751   0.017  0.00  0.00    -0.050 A 
ATOM     16  C   UNL     1      -0.013   1.076   0.008  0.00  0.00    +0.003 A 
ATOM     17  C   UNL     1       1.175   1.783   0.000  0.00  0.00    +0.001 A 
ATOM     18  C   UNL     1       1.156   3.166   0.008  0.00  0.00    +0.003 A 
ATOM     19  C   UNL     1      -0.050   3.840   0.022  0.00  0.00    -0.049 A 
ATOM     20  C   UNL     1      -1.238   3.133   0.030  0.00  0.00    +0.007 A 
ENDBRANCH  13  19
ENDBRANCH  12  13
ENDBRANCH   9  12
ENDBRANCH   7   9
ENDBRANCH   1   7
BRANCH   5  21
ATOM     21  C   UNL     1       0.851  11.989  -0.353  0.00  0.00    +0.286 C 
BRANCH  21  22
ATOM     22  O   UNL     1       1.446  13.273  -0.552  0.00  0.00    -0.469 OA
BRANCH  22  23
ATOM     23  C   UNL     1       1.471  14.111   0.514  0.00  0.00    +0.241 A 
ATOM     24  C   UNL     1       2.072  15.443   0.381  0.00  0.00    +0.049 A 
ATOM     25  C   UNL     1       2.618  15.884  -0.825  0.00  0.00    +0.014 A 
ATOM     26  C   UNL     1       3.167  17.144  -0.903  0.00  0.00    +0.001 A 
ATOM     27  C   UNL     1       3.179  17.983   0.203  0.00  0.00    +0.001 A 
ATOM     28  C   UNL     1       2.642  17.571   1.403  0.00  0.00    +0.012 A 
ATOM     29  C   UNL     1       2.080  16.299   1.505  0.00  0.00    +0.033 A 
ATOM     30  C   UNL     1       1.494  15.806   2.755  0.00  0.00    +0.186 A 
ATOM     31  N   UNL     1       1.343  16.320   3.957  0.00  0.00    -0.127 NA
ATOM     32  N   UNL     1       0.755  15.465   4.719  0.00  0.00    -0.123 NA
ATOM     33  C   UNL     1       0.501  14.368   4.052  0.00  0.00    +0.258 A 
ATOM     34  N   UNL     1       0.960  14.543   2.784  0.00  0.00    -0.185 N 
ATOM     35  N   UNL     1       0.964  13.728   1.653  0.00  0.00    -0.125 NA
BRANCH  33  36
ATOM     36  C   UNL     1      -0.177  13.135   4.591  0.00  0.00    +0.454 C 
ATOM     37  F   UNL     1      -0.803  13.440   5.804  0.00  0.00    -0.163 F 
ATOM     38  F   UNL     1      -1.133  12.689   3.672  0.00  0.00    -0.163 F 
ATOM     39  F   UNL     1       0.776  12.132   4.797  0.00  0.00    -0.163 F 
ENDBRANCH  33  36
ENDBRANCH  22  23
ENDBRANCH  21  22
ENDBRANCH   5  21
TORSDOF 9
