REMARK  Name = ZINC67124236
REMARK  10 active torsions:
REMARK  status: ('A' for Active; 'I' for Inactive)
REMARK    1  A    between atoms: C_1  and  C_2
REMARK    2  A    between atoms: C_2  and  C_3
REMARK    3  A    between atoms: C_2  and  C_4
REMARK    4  A    between atoms: C_4  and  C_5
REMARK    5  A    between atoms: C_5  and  C_6
REMARK    6  A    between atoms: C_9  and  S_12
REMARK    7  A    between atoms: S_12  and  N_15
REMARK    8  A    between atoms: N_15  and  C_16
REMARK    9  A    between atoms: C_19  and  C_22
REMARK   10  A    between atoms: C_22  and  N_23
REMARK                            x       y       z     vdW  Elec       q    Type
REMARK                         _______ _______ _______ _____ _____    ______ ____
ROOT
ATOM      1  N   UNL     1       3.928  -2.933  -7.026  0.00  0.00    -0.216 N 
ATOM      2  H   UNL     1       4.127  -2.918  -7.975  0.00  0.00    +0.174 HD
ENDROOT
BRANCH   1   3
ATOM      3  C   UNL     1       3.367  -4.073  -6.448  0.00  0.00    +0.048 A 
ATOM      4  C   UNL     1       4.149  -4.913  -5.665  0.00  0.00    +0.025 A 
ATOM      5  C   UNL     1       3.590  -6.040  -5.094  0.00  0.00    +0.007 A 
ATOM      6  C   UNL     1       2.255  -6.333  -5.301  0.00  0.00    -0.030 A 
ATOM      7  C   UNL     1       1.474  -5.499  -6.080  0.00  0.00    +0.007 A 
ATOM      8  C   UNL     1       2.024  -4.368  -6.649  0.00  0.00    +0.025 A 
BRANCH   6   9
ATOM      9  C   UNL     1       1.650  -7.564  -4.677  0.00  0.00    +0.141 C 
BRANCH   9  10
ATOM     10  N   UNL     1       1.119  -7.230  -3.353  0.00  0.00    -0.295 N 
ATOM     11  C   UNL     1       0.527  -8.181  -2.605  0.00  0.00    +0.297 C 
ATOM     12  O   UNL     1       0.433  -9.318  -3.028  0.00  0.00    -0.253 OA
ATOM     13  N   UNL     1       0.038  -7.874  -1.387  0.00  0.00    -0.313 N 
ATOM     14  H   UNL     1       1.193  -6.324  -3.015  0.00  0.00    +0.151 HD
ATOM     15  H   UNL     1       0.112  -6.968  -1.049  0.00  0.00    +0.146 HD
ATOM     16  H   UNL     1      -0.388  -8.559  -0.848  0.00  0.00    +0.146 HD
ENDBRANCH   9  10
ENDBRANCH   6   9
ENDBRANCH   1   3
BRANCH   1  17
ATOM     17  S   UNL     1       4.252  -1.605  -6.092  0.00  0.00    +0.072 S 
ATOM     18  O   UNL     1       4.734  -0.597  -6.971  0.00  0.00    -0.150 OA
ATOM     19  O   UNL     1       5.004  -2.066  -4.977  0.00  0.00    -0.150 OA
BRANCH  17  23
ATOM     20  C   UNL     1       0.301  -0.115  -4.460  0.00  0.00    -0.047 A 
ATOM     21  C   UNL     1       1.087  -0.963  -3.702  0.00  0.00    +0.005 A 
ATOM     22  C   UNL     1       2.293  -1.418  -4.200  0.00  0.00    +0.029 A 
ATOM     23  C   UNL     1       2.714  -1.026  -5.457  0.00  0.00    +0.109 A 
ATOM     24  C   UNL     1       1.928  -0.179  -6.216  0.00  0.00    +0.029 A 
ATOM     25  C   UNL     1       0.720   0.273  -5.720  0.00  0.00    +0.005 A 
BRANCH  20  26
ATOM     26  C   UNL     1      -1.014   0.381  -3.917  0.00  0.00    +0.035 C 
BRANCH  26  27
ATOM     27  C   UNL     1      -2.127  -0.594  -4.308  0.00  0.00    +0.007 C 
BRANCH  27  29
ATOM     28  C   UNL     1      -3.827   1.233  -4.433  0.00  0.00    +0.007 C 
ATOM     29  C   UNL     1      -3.462  -0.090  -3.756  0.00  0.00    -0.017 C 
ATOM     30  C   UNL     1      -4.554  -1.125  -4.038  0.00  0.00    +0.007 C 
ENDBRANCH  27  29
ENDBRANCH  26  27
ENDBRANCH  20  26
ENDBRANCH  17  23
ENDBRANCH   1  17
TORSDOF 8
