REMARK  Name = ZINC32518530
REMARK  7 active torsions:
REMARK  status: ('A' for Active; 'I' for Inactive)
REMARK    1  A    between atoms: C_3  and  C_6
REMARK    2  A    between atoms: N_8  and  C_9
REMARK    3  A    between atoms: C_9  and  C_10
REMARK    4  A    between atoms: C_10  and  C_11
REMARK    5  A    between atoms: C_11  and  C_12
REMARK    6  A    between atoms: N_14  and  N_15
REMARK    7  A    between atoms: N_15  and  C_16
REMARK                            x       y       z     vdW  Elec       q    Type
REMARK                         _______ _______ _______ _____ _____    ______ ____
ROOT
ATOM      1  C   UNL     1       3.538   5.892  -0.511  0.00  0.00    +0.229 C 
ATOM      2  O   UNL     1       4.580   5.328  -0.251  0.00  0.00    -0.274 OA
ATOM      3  N   UNL     1       2.369   5.230  -0.408  0.00  0.00    -0.236 N 
ATOM      4  H   UNL     1       1.424   5.742  -0.644  0.00  0.00    +0.173 HD
ENDROOT
BRANCH   3   5
ATOM      5  N   UNL     1       2.356   3.890   0.001  0.00  0.00    -0.262 N 
ATOM      6  H   UNL     1       3.304   3.351   0.147  0.00  0.00    +0.170 HD
BRANCH   5   7
ATOM      7  C   UNL     1       1.139   3.237   0.222  0.00  0.00    +0.081 A 
ATOM      8  C   UNL     1       1.001   1.893  -0.099  0.00  0.00    +0.066 A 
ATOM      9  C   UNL     1      -0.203   1.251   0.121  0.00  0.00    +0.042 A 
ATOM     10  C   UNL     1      -1.272   1.947   0.657  0.00  0.00    +0.044 A 
ATOM     11  C   UNL     1      -1.136   3.285   0.983  0.00  0.00    +0.042 A 
ATOM     12  C   UNL     1       0.065   3.933   0.765  0.00  0.00    +0.066 A 
ATOM     13 CL   UNL     1       0.233   5.612   1.169  0.00  0.00    -0.081 Cl
ATOM     14 CL   UNL     1      -2.785   1.139   0.927  0.00  0.00    -0.083 Cl
ATOM     15 CL   UNL     1       2.340   1.020  -0.777  0.00  0.00    -0.081 Cl
ENDBRANCH   5   7
ENDBRANCH   3   5
BRANCH   1  16
ATOM     16  C   UNL     1       3.551   7.334  -0.951  0.00  0.00    +0.099 C 
BRANCH  16  17
ATOM     17  C   UNL     1       4.993   7.843  -0.985  0.00  0.00    +0.028 C 
BRANCH  17  18
ATOM     18  C   UNL     1       5.007   9.307  -1.430  0.00  0.00    +0.105 C 
BRANCH  18  21
ATOM     19  C   UNL     1       6.645  11.066  -1.829  0.00  0.00    +0.279 C 
ATOM     20  O   UNL     1       5.730  11.808  -2.134  0.00  0.00    -0.267 OA
ATOM     21  N   UNL     1       6.388   9.795  -1.463  0.00  0.00    -0.309 N 
ATOM     22  H   UNL     1       7.215   9.124  -1.188  0.00  0.00    +0.149 HD
BRANCH  19  25
ATOM     23  C   UNL     1       9.825  12.838  -2.102  0.00  0.00    +0.042 A 
ATOM     24  C   UNL     1       8.426  12.812  -2.212  0.00  0.00    +0.054 A 
ATOM     25  C   UNL     1       8.027  11.554  -1.862  0.00  0.00    +0.189 A 
ATOM     26  O   UNL     1       9.128  10.841  -1.545  0.00  0.00    -0.458 OA
ATOM     27  C   UNL     1      10.214  11.610  -1.693  0.00  0.00    +0.196 A 
ENDBRANCH  19  25
ENDBRANCH  18  21
ENDBRANCH  17  18
ENDBRANCH  16  17
ENDBRANCH   1  16
TORSDOF 7
