REMARK  Name = ZINC24773733
REMARK  7 active torsions:
REMARK  status: ('A' for Active; 'I' for Inactive)
REMARK    1  A    between atoms: C_1  and  C_2
REMARK    2  A    between atoms: C_5  and  S_9
REMARK    3  A    between atoms: C_7  and  C_8
REMARK    4  A    between atoms: S_9  and  C_12
REMARK    5  A    between atoms: C_12  and  C_17
REMARK    6  A    between atoms: C_24  and  C_31
REMARK    7  A    between atoms: C_26  and  O_27
REMARK                            x       y       z     vdW  Elec       q    Type
REMARK                         _______ _______ _______ _____ _____    ______ ____
ROOT
ATOM      1  C   UNL     1      -1.095   1.529  -0.137  0.00  0.00    +0.245 C 
ATOM      2  O   UNL     1      -0.595   1.710  -1.226  0.00  0.00    -0.273 OA
ATOM      3  N   UNL     1      -0.356   1.687   0.979  0.00  0.00    -0.284 N 
ATOM      4  C   UNL     1       0.957   2.151   0.886  0.00  0.00    +0.037 A 
ATOM      5  C   UNL     1       1.756   1.754  -0.186  0.00  0.00    +0.024 A 
ATOM      6  C   UNL     1       3.040   2.203  -0.294  0.00  0.00    +0.013 A 
ATOM      7  C   UNL     1       3.563   3.058   0.684  0.00  0.00    +0.021 A 
ATOM      8  C   UNL     1       4.939   3.551   0.596  0.00  0.00    -0.033 A 
ATOM      9  C   UNL     1       5.388   4.378   1.575  0.00  0.00    +0.091 A 
ATOM     10  C   UNL     1       4.532   4.738   2.636  0.00  0.00    +0.285 A 
ATOM     11  O   UNL     1       3.271   4.283   2.711  0.00  0.00    -0.425 OA
ATOM     12  C   UNL     1       2.763   3.458   1.771  0.00  0.00    +0.141 A 
ATOM     13  C   UNL     1       1.459   2.997   1.863  0.00  0.00    +0.070 A 
ATOM     14  C   UNL     1       5.833   3.150  -0.549  0.00  0.00    +0.045 C 
ATOM     15  H   UNL     1      -0.787   1.451   1.963  0.00  0.00    +0.155 HD
ENDROOT
BRANCH   1  16
ATOM     16  C   UNL     1      -2.543   1.126  -0.029  0.00  0.00    +0.168 C 
ATOM     17  C   UNL     1      -3.270   1.352  -1.379  0.00  0.00    +0.039 C 
ATOM     18  C   UNL     1      -3.577   2.870  -1.351  0.00  0.00    +0.003 C 
ATOM     19  C   UNL     1      -3.945   3.155   0.119  0.00  0.00    +0.003 C 
ATOM     20  C   UNL     1      -3.288   2.046   0.960  0.00  0.00    +0.039 C 
BRANCH  16  21
ATOM     21  S   UNL     1      -2.683  -0.607   0.488  0.00  0.00    +0.011 S 
ATOM     22  O   UNL     1      -2.017  -0.802   1.728  0.00  0.00    -0.168 OA
ATOM     23  O   UNL     1      -4.013  -1.069   0.299  0.00  0.00    -0.168 OA
BRANCH  21  28
ATOM     24  C   UNL     1       0.600  -3.692  -3.526  0.00  0.00    +0.044 C 
ATOM     25  C   UNL     1      -0.220  -2.922  -2.523  0.00  0.00    -0.047 A 
ATOM     26  C   UNL     1      -1.540  -2.616  -2.798  0.00  0.00    +0.005 A 
ATOM     27  C   UNL     1      -2.293  -1.914  -1.877  0.00  0.00    +0.027 A 
ATOM     28  C   UNL     1      -1.724  -1.508  -0.684  0.00  0.00    +0.090 A 
ATOM     29  C   UNL     1      -0.404  -1.813  -0.409  0.00  0.00    +0.030 A 
ATOM     30  C   UNL     1       0.348  -2.520  -1.329  0.00  0.00    -0.046 A 
ATOM     31  C   UNL     1       1.787  -2.853  -1.029  0.00  0.00    +0.044 C 
ENDBRANCH  21  28
ENDBRANCH  16  21
ENDBRANCH   1  16
BRANCH  10  32
ATOM     32  O   UNL     1       4.947   5.482   3.508  0.00  0.00    -0.480 OA
ATOM     33  H   UNL     1       4.291   5.771   4.342  0.00  0.00    +0.295 HD
ENDBRANCH  10  32
TORSDOF 4
