REMARK  Name = ZINC29787282
REMARK  8 active torsions:
REMARK  status: ('A' for Active; 'I' for Inactive)
REMARK    1  A    between atoms: C_1  and  C_2
REMARK    2  A    between atoms: N_11  and  C_15
REMARK    3  A    between atoms: C_15  and  C_16
REMARK    4  A    between atoms: N_18  and  C_19
REMARK    5  A    between atoms: C_21  and  C_27
REMARK    6  A    between atoms: C_21  and  C_28
REMARK    7  A    between atoms: C_23  and  C_25
REMARK    8  A    between atoms: C_23  and  C_26
REMARK                            x       y       z     vdW  Elec       q    Type
REMARK                         _______ _______ _______ _____ _____    ______ ____
ROOT
ATOM      1  C   UNL     1      -2.969   0.347   5.573  0.00  0.00    +0.231 C 
ATOM      2  O   UNL     1      -1.778   0.378   5.343  0.00  0.00    -0.274 OA
ATOM      3  N   UNL     1      -3.409   0.315   6.847  0.00  0.00    -0.311 N 
ATOM      4  H   UNL     1      -4.488   0.287   7.055  0.00  0.00    +0.149 HD
ENDROOT
BRANCH   3   5
ATOM      5  C   UNL     1      -2.446   0.319   7.956  0.00  0.00    +0.070 C 
ATOM      6  C   UNL     1      -2.016  -1.117   8.253  0.00  0.00    +0.009 C 
ATOM      7  C   UNL     1      -1.029  -1.146   9.418  0.00  0.00    -0.072 C 
ATOM      8  N   UNL     1      -1.487  -0.389  10.565  0.00  0.00    +0.386 N 
ATOM      9  C   UNL     1      -2.147   0.887  10.381  0.00  0.00    -0.072 C 
ATOM     10  C   UNL     1      -3.118   0.892   9.203  0.00  0.00    +0.009 C 
ATOM     11  C   UNL     1      -1.126   2.018  10.208  0.00  0.00    -0.010 C 
ATOM     12  C   UNL     1      -2.961   1.197  11.657  0.00  0.00    -0.010 C 
ATOM     13  C   UNL     1       0.342  -0.652   8.941  0.00  0.00    -0.010 C 
ATOM     14  C   UNL     1      -0.860  -2.620   9.849  0.00  0.00    -0.010 C 
ATOM     15  H   UNL     1      -2.220  -0.985  11.128  0.00  0.00    -0.084 HD
ATOM     16  H   UNL     1      -0.631  -0.152  11.213  0.00  0.00    -0.084 HD
ENDBRANCH   3   5
BRANCH   1  17
ATOM     17  C   UNL     1      -3.956   0.343   4.435  0.00  0.00    +0.213 C 
BRANCH  17  27
ATOM     18  C   UNL     1      -0.002   1.056   2.507  0.00  0.00    +0.010 C 
ATOM     19  C   UNL     1      -0.730   1.580   1.267  0.00  0.00    +0.018 C 
ATOM     20  C   UNL     1      -0.013   1.086   0.008  0.00  0.00    +0.006 C 
ATOM     21  C   UNL     1      -0.753   1.593  -1.231  0.00  0.00    +0.000 C 
ATOM     22  C   UNL     1      -2.186   1.056  -1.227  0.00  0.00    +0.003 C 
ATOM     23  C   UNL     1      -2.911   1.550   0.027  0.00  0.00    +0.035 C 
ATOM     24  C   UNL     1      -2.167   1.069   1.268  0.00  0.00    +0.115 C 
ATOM     25  C   UNL     1      -2.885   1.517   2.521  0.00  0.00    +0.247 C 
ATOM     26  O   UNL     1      -3.102   2.655   2.875  0.00  0.00    -0.273 OA
ATOM     27  N   UNL     1      -3.233   0.381   3.161  0.00  0.00    -0.215 N 
ATOM     28  C   UNL     1      -2.836  -0.706   2.489  0.00  0.00    +0.310 C 
ATOM     29  O   UNL     1      -3.035  -1.844   2.866  0.00  0.00    -0.252 OA
ATOM     30  N   UNL     1      -2.191  -0.397   1.347  0.00  0.00    -0.285 N 
ATOM     31  H   UNL     1      -1.730  -0.998   0.550  0.00  0.00    +0.151 HD
ENDBRANCH  17  27
ENDBRANCH   1  17
TORSDOF 3
