REMARK  Name = ZINC20906614
REMARK  7 active torsions:
REMARK  status: ('A' for Active; 'I' for Inactive)
REMARK    1  A    between atoms: C_1  and  C_2
REMARK    2  A    between atoms: C_9  and  C_11
REMARK    3  A    between atoms: C_11  and  S_12
REMARK    4  A    between atoms: S_12  and  C_13
REMARK    5  A    between atoms: N_19  and  N_20
REMARK    6  A    between atoms: C_21  and  C_22
REMARK    7  A    between atoms: C_26  and  O_28
REMARK                            x       y       z     vdW  Elec       q    Type
REMARK                         _______ _______ _______ _____ _____    ______ ____
ROOT
ATOM      1  C   UNL     1      -1.417  -7.701   3.358  0.00  0.00    +0.210 A 
ATOM      2  N   UNL     1      -2.413  -8.493   3.768  0.00  0.00    -0.186 NA
ATOM      3  C   UNL     1      -1.917  -9.570   4.339  0.00  0.00    +0.232 A 
ATOM      4  N   UNL     1      -0.570  -9.479   4.301  0.00  0.00    -0.245 N 
ATOM      5  H   UNL     1       0.066 -10.125   4.646  0.00  0.00    +0.192 HD
ATOM      6  N   UNL     1      -0.272  -8.266   3.658  0.00  0.00    -0.144 NA
ATOM      7  N   UNL     1      -2.646 -10.612   4.883  0.00  0.00    -0.205 N 
ATOM      8  H   UNL     1      -2.187 -11.367   5.285  0.00  0.00    +0.177 HD
ENDROOT
BRANCH   7   9
ATOM      9  N   UNL     1      -4.046 -10.576   4.855  0.00  0.00    -0.188 NA
ATOM     10  C   UNL     1      -4.730 -11.554   5.366  0.00  0.00    +0.138 C 
BRANCH  10  11
ATOM     11  C   UNL     1      -6.204 -11.517   5.336  0.00  0.00    -0.002 A 
ATOM     12  C   UNL     1      -6.867 -10.434   4.753  0.00  0.00    +0.010 A 
ATOM     13  C   UNL     1      -8.246 -10.403   4.727  0.00  0.00    +0.004 A 
ATOM     14  C   UNL     1      -8.976 -11.441   5.276  0.00  0.00    +0.045 A 
ATOM     15  C   UNL     1      -8.326 -12.522   5.857  0.00  0.00    +0.117 A 
ATOM     16  C   UNL     1      -6.943 -12.567   5.884  0.00  0.00    +0.054 A 
BRANCH  15  17
ATOM     17  O   UNL     1      -9.049 -13.540   6.395  0.00  0.00    -0.507 OA
ATOM     18  H   UNL     1      -9.253 -14.250   5.771  0.00  0.00    +0.292 HD
ENDBRANCH  15  17
ENDBRANCH  10  11
ENDBRANCH   7   9
BRANCH   1  19
ATOM     19  S   UNL     1      -1.611  -6.152   2.541  0.00  0.00    -0.077 S 
BRANCH  19  20
ATOM     20  C   UNL     1       0.090  -5.594   2.249  0.00  0.00    +0.151 C 
BRANCH  20  29
ATOM     21  C   UNL     1      -0.018   1.503   0.010  0.00  0.00    +0.044 C 
ATOM     22  C   UNL     1       0.002  -0.004   0.002  0.00  0.00    -0.048 A 
ATOM     23  C   UNL     1       0.006  -0.687  -1.206  0.00  0.00    +0.005 A 
ATOM     24  C   UNL     1       0.024  -2.052  -1.235  0.00  0.00    +0.030 A 
ATOM     25  C   UNL     1       0.040  -2.774  -0.039  0.00  0.00    +0.089 A 
ATOM     26  C   UNL     1       0.037  -2.083   1.185  0.00  0.00    +0.066 A 
ATOM     27  C   UNL     1       0.023  -0.695   1.195  0.00  0.00    +0.031 A 
ATOM     28  N   UNL     1       0.055  -3.051   2.169  0.00  0.00    -0.341 N 
ATOM     29  C   UNL     1       0.068  -4.261   1.546  0.00  0.00    +0.118 A 
ATOM     30  N   UNL     1       0.059  -4.099   0.255  0.00  0.00    -0.232 NA
ATOM     31  H   UNL     1       0.058  -2.898   3.127  0.00  0.00    +0.167 HD
ENDBRANCH  20  29
ENDBRANCH  19  20
ENDBRANCH   1  19
TORSDOF 6
