REMARK  Name = ZINC14158113
REMARK  10 active torsions:
REMARK  status: ('A' for Active; 'I' for Inactive)
REMARK    1  A    between atoms: C_1  and  C_2
REMARK    2  A    between atoms: C_6  and  N_9
REMARK    3  A    between atoms: C_7  and  C_8
REMARK    4  A    between atoms: N_9  and  C_10
REMARK    5  A    between atoms: C_10  and  N_12
REMARK    6  A    between atoms: N_14  and  C_15
REMARK    7  A    between atoms: C_15  and  C_16
REMARK    8  A    between atoms: C_16  and  C_17
REMARK    9  A    between atoms: C_30  and  C_35
REMARK   10  A    between atoms: C_32  and  C_34
REMARK                            x       y       z     vdW  Elec       q    Type
REMARK                         _______ _______ _______ _____ _____    ______ ____
ROOT
ATOM      1  N   UNL     1      -4.922  -3.058  -2.855  0.00  0.00    -0.159 NA
ATOM      2  C   UNL     1      -4.105  -2.022  -2.777  0.00  0.00    +0.195 C 
ATOM      3  N   UNL     1      -3.755  -1.519  -1.558  0.00  0.00    -0.357 N 
ATOM      4  N   UNL     1      -3.610  -1.454  -3.920  0.00  0.00    -0.297 N 
ATOM      5  C   UNL     1      -4.052  -1.893  -5.161  0.00  0.00    +0.231 A 
ATOM      6  N   UNL     1      -5.025  -2.789  -5.221  0.00  0.00    -0.217 NA
ATOM      7  C   UNL     1      -5.473  -3.224  -6.387  0.00  0.00    +0.044 A 
ATOM      8  C   UNL     1      -4.903  -2.739  -7.554  0.00  0.00    +0.046 A 
ATOM      9  C   UNL     1      -3.883  -1.805  -7.454  0.00  0.00    +0.044 A 
ATOM     10  N   UNL     1      -3.486  -1.409  -6.256  0.00  0.00    -0.217 NA
ATOM     11  C   UNL     1      -3.234  -1.249  -8.695  0.00  0.00    +0.066 C 
ATOM     12  C   UNL     1      -6.585  -4.239  -6.446  0.00  0.00    +0.066 C 
ATOM     13  H   UNL     1      -4.215  -1.922  -0.644  0.00  0.00    +0.162 HD
ATOM     14  H   UNL     1      -2.861  -0.651  -3.855  0.00  0.00    +0.171 HD
ENDROOT
BRANCH   1  15
ATOM     15  C   UNL     1      -5.500  -3.541  -1.745  0.00  0.00    +0.161 C 
ATOM     16  S   UNL     1      -6.616  -2.579  -0.873  0.00  0.00    -0.016 S 
BRANCH  15  17
ATOM     17  N   UNL     1      -5.202  -4.784  -1.317  0.00  0.00    -0.295 N 
ATOM     18  H   UNL     1      -4.423  -5.370  -1.826  0.00  0.00    +0.154 HD
BRANCH  17  24
ATOM     19  C   UNL     1      -7.410  -8.630   0.803  0.00  0.00    +0.044 C 
ATOM     20  C   UNL     1      -6.966  -7.191   0.831  0.00  0.00    -0.046 A 
ATOM     21  C   UNL     1      -7.232  -6.407   1.938  0.00  0.00    +0.004 A 
ATOM     22  C   UNL     1      -6.826  -5.085   1.968  0.00  0.00    +0.002 A 
ATOM     23  C   UNL     1      -6.152  -4.544   0.890  0.00  0.00    +0.023 A 
ATOM     24  C   UNL     1      -5.883  -5.329  -0.224  0.00  0.00    +0.036 A 
ATOM     25  C   UNL     1      -6.298  -6.654  -0.252  0.00  0.00    -0.026 A 
ATOM     26  C   UNL     1      -6.014  -7.508  -1.462  0.00  0.00    +0.046 C 
ENDBRANCH  17  24
ENDBRANCH  15  17
ENDBRANCH   1  15
BRANCH   3  27
ATOM     27  C   UNL     1      -2.767  -0.441  -1.466  0.00  0.00    +0.120 C 
BRANCH  27  28
ATOM     28  C   UNL     1      -2.466  -0.148   0.005  0.00  0.00    +0.058 C 
BRANCH  28  29
ATOM     29  C   UNL     1      -1.544   1.039   0.102  0.00  0.00    -0.021 A 
ATOM     30  C   UNL     1      -0.215   1.005   0.293  0.00  0.00    +0.087 A 
ATOM     31  N   UNL     1       0.284   2.279   0.328  0.00  0.00    -0.360 N 
ATOM     32  H   UNL     1       1.361   2.443   0.477  0.00  0.00    +0.165 HD
ATOM     33  C   UNL     1      -0.737   3.187   0.158  0.00  0.00    +0.047 A 
ATOM     34  C   UNL     1      -1.927   2.450   0.009  0.00  0.00    +0.003 A 
ATOM     35  C   UNL     1      -3.139   3.116  -0.177  0.00  0.00    +0.010 A 
ATOM     36  C   UNL     1      -3.163   4.482  -0.223  0.00  0.00    +0.001 A 
ATOM     37  C   UNL     1      -1.993   5.213  -0.077  0.00  0.00    +0.002 A 
ATOM     38  C   UNL     1      -0.786   4.576   0.112  0.00  0.00    +0.026 A 
ENDBRANCH  28  29
ENDBRANCH  27  28
ENDBRANCH   3  27
TORSDOF 6
