REMARK  Name = ZINC66192755
REMARK  10 active torsions:
REMARK  status: ('A' for Active; 'I' for Inactive)
REMARK    1  A    between atoms: C_1  and  C_2
REMARK    2  A    between atoms: C_2  and  C_3
REMARK    3  A    between atoms: C_3  and  N_4
REMARK    4  A    between atoms: C_7  and  N_10
REMARK    5  A    between atoms: N_10  and  C_11
REMARK    6  A    between atoms: N_14  and  C_15
REMARK    7  A    between atoms: C_15  and  C_16
REMARK    8  A    between atoms: C_16  and  N_17
REMARK    9  A    between atoms: N_17  and  C_18
REMARK   10  A    between atoms: N_17  and  C_19
REMARK                            x       y       z     vdW  Elec       q    Type
REMARK                         _______ _______ _______ _____ _____    ______ ____
ROOT
ATOM      1  N   UNL     1      -2.018  -6.065   0.950  0.00  0.00    -0.286 N 
ATOM      2  C   UNL     1      -1.265  -6.668  -0.153  0.00  0.00    +0.134 C 
ATOM      3  C   UNL     1      -2.625  -6.852   1.860  0.00  0.00    +0.302 C 
ATOM      4  O   UNL     1      -3.250  -6.352   2.776  0.00  0.00    -0.253 OA
ATOM      5  N   UNL     1      -2.541  -8.193   1.756  0.00  0.00    -0.301 N 
ATOM      6  H   UNL     1      -2.043  -8.592   1.025  0.00  0.00    +0.150 HD
ENDROOT
BRANCH   1  10
ATOM      7  N   UNL     1      -1.413  -2.002   0.005  0.00  0.00    +0.380 N 
ATOM      8  C   UNL     1      -0.802  -2.489   1.247  0.00  0.00    -0.077 C 
ATOM      9  C   UNL     1      -0.705  -4.016   1.209  0.00  0.00    +0.004 C 
ATOM     10  C   UNL     1      -2.110  -4.607   1.064  0.00  0.00    +0.074 C 
ATOM     11  C   UNL     1      -2.766  -4.036  -0.196  0.00  0.00    +0.004 C 
ATOM     12  C   UNL     1      -2.787  -2.508  -0.105  0.00  0.00    -0.077 C 
ATOM     13  H   UNL     1      -0.873  -2.326  -0.783  0.00  0.00    -0.082 HD
BRANCH   7  14
ATOM     14  C   UNL     1      -1.433  -0.534   0.013  0.00  0.00    -0.079 C 
BRANCH  14  16
ATOM     15  C   UNL     1      -0.019   1.526   0.010  0.00  0.00    +0.002 C 
ATOM     16  C   UNL     1       0.002  -0.004   0.002  0.00  0.00    -0.022 C 
ENDBRANCH  14  16
ENDBRANCH   7  14
ENDBRANCH   1  10
BRANCH   5  17
ATOM     17  C   UNL     1      -3.201  -9.048   2.745  0.00  0.00    +0.087 C 
BRANCH  17  18
ATOM     18  C   UNL     1      -2.951 -10.517   2.398  0.00  0.00    -0.060 C 
BRANCH  18  19
ATOM     19  N   UNL     1      -3.614 -11.374   3.390  0.00  0.00    +0.381 N 
ATOM     20  C   UNL     1      -2.989 -11.174   4.704  0.00  0.00    -0.096 C 
ATOM     21  H   UNL     1      -4.592 -11.134   3.442  0.00  0.00    -0.082 HD
BRANCH  19  22
ATOM     22  C   UNL     1      -3.475 -12.781   2.991  0.00  0.00    -0.069 C 
ATOM     23  C   UNL     1      -4.125 -12.989   1.622  0.00  0.00    -0.015 C 
ATOM     24  C   UNL     1      -3.981 -14.455   1.207  0.00  0.00    -0.002 C 
ATOM     25  C   UNL     1      -4.671 -15.348   2.240  0.00  0.00    -0.000 C 
ATOM     26  C   UNL     1      -4.021 -15.140   3.609  0.00  0.00    -0.002 C 
ATOM     27  C   UNL     1      -4.165 -13.674   4.024  0.00  0.00    -0.015 C 
ENDBRANCH  19  22
ENDBRANCH  18  19
ENDBRANCH  17  18
ENDBRANCH   5  17
TORSDOF 7
