REMARK  Name = ZINC13521563
REMARK  12 active torsions:
REMARK  status: ('A' for Active; 'I' for Inactive)
REMARK    1  A    between atoms: C_1  and  C_2
REMARK    2  A    between atoms: C_2  and  O_3
REMARK    3  A    between atoms: O_3  and  C_4
REMARK    4  A    between atoms: C_4  and  C_6
REMARK    5  A    between atoms: C_7  and  C_23
REMARK    6  A    between atoms: C_12  and  C_14
REMARK    7  A    between atoms: C_17  and  O_22
REMARK    8  A    between atoms: C_18  and  O_20
REMARK    9  A    between atoms: O_20  and  C_21
REMARK   10  A    between atoms: C_23  and  S_24
REMARK   11  A    between atoms: S_24  and  C_27
REMARK   12  A    between atoms: C_30  and  C_33
REMARK                            x       y       z     vdW  Elec       q    Type
REMARK                         _______ _______ _______ _____ _____    ______ ____
ROOT
ATOM      1  C   UNL     1      -2.672  -2.350  -0.233  0.00  0.00    +0.080 C 
ATOM      2  C   UNL     1      -2.983  -3.659  -0.341  0.00  0.00    +0.045 C 
ATOM      3  N   UNL     1      -4.278  -4.086  -0.250  0.00  0.00    -0.271 N 
ATOM      4  C   UNL     1      -5.317  -3.266  -0.051  0.00  0.00    +0.304 C 
ATOM      5  O   UNL     1      -6.435  -3.740   0.016  0.00  0.00    -0.252 OA
ATOM      6  N   UNL     1      -5.165  -1.933   0.076  0.00  0.00    -0.288 N 
ATOM      7  C   UNL     1      -3.806  -1.372  -0.001  0.00  0.00    +0.144 C 
ATOM      8  H   UNL     1      -4.453  -5.036  -0.334  0.00  0.00    +0.156 HD
ATOM      9  H   UNL     1      -5.933  -1.357   0.220  0.00  0.00    +0.151 HD
ENDROOT
BRANCH   7  10
ATOM     10  C   UNL     1      -3.787  -0.365  -1.121  0.00  0.00    -0.019 A 
ATOM     11  C   UNL     1      -4.226  -0.727  -2.381  0.00  0.00    +0.009 A 
ATOM     12  C   UNL     1      -4.211   0.194  -3.413  0.00  0.00    +0.049 A 
ATOM     13  C   UNL     1      -3.756   1.483  -3.184  0.00  0.00    +0.158 A 
ATOM     14  C   UNL     1      -3.315   1.847  -1.916  0.00  0.00    +0.162 A 
ATOM     15  C   UNL     1      -3.337   0.921  -0.885  0.00  0.00    +0.055 A 
BRANCH  14  16
ATOM     16  O   UNL     1      -2.868   3.111  -1.687  0.00  0.00    -0.491 OA
ATOM     17  C   UNL     1      -2.342   3.387  -0.387  0.00  0.00    +0.277 C 
ENDBRANCH  14  16
BRANCH  13  18
ATOM     18  O   UNL     1      -3.740   2.389  -4.198  0.00  0.00    -0.503 OA
ATOM     19  H   UNL     1      -4.555   2.903  -4.279  0.00  0.00    +0.292 HD
ENDBRANCH  13  18
ENDBRANCH   7  10
BRANCH   1  20
ATOM     20  C   UNL     1      -1.332  -1.907  -0.326  0.00  0.00    +0.339 C 
ATOM     21  O   UNL     1      -0.709  -1.634   0.683  0.00  0.00    -0.245 OA
BRANCH  20  22
ATOM     22  O   UNL     1      -0.744  -1.787  -1.535  0.00  0.00    -0.462 OA
BRANCH  22  24
ATOM     23  C   UNL     1       1.105  -1.251  -2.997  0.00  0.00    +0.048 C 
ATOM     24  C   UNL     1       0.643  -1.444  -1.551  0.00  0.00    +0.229 C 
ENDBRANCH  22  24
ENDBRANCH  20  22
ENDBRANCH   1  20
BRANCH   2  25
ATOM     25  C   UNL     1      -1.885  -4.666  -0.567  0.00  0.00    +0.223 C 
BRANCH  25  26
ATOM     26  S   UNL     1      -1.565  -5.568   0.974  0.00  0.00    +0.002 S 
ATOM     27  O   UNL     1      -0.997  -4.697   1.942  0.00  0.00    -0.169 OA
ATOM     28  O   UNL     1      -2.679  -6.387   1.302  0.00  0.00    -0.169 OA
BRANCH  26  29
ATOM     29  C   UNL     1      -0.276  -6.701   0.577  0.00  0.00    +0.089 A 
ATOM     30  C   UNL     1      -0.585  -7.963   0.105  0.00  0.00    +0.027 A 
ATOM     31  C   UNL     1       0.427  -8.851  -0.207  0.00  0.00    +0.005 A 
ATOM     32  C   UNL     1       1.748  -8.478  -0.048  0.00  0.00    -0.050 A 
ATOM     33  C   UNL     1       2.058  -7.215   0.423  0.00  0.00    +0.005 A 
ATOM     34  C   UNL     1       1.046  -6.325   0.731  0.00  0.00    +0.027 A 
ATOM     35  C   UNL     1       2.852  -9.447  -0.387  0.00  0.00    +0.044 C 
ENDBRANCH  26  29
ENDBRANCH  25  26
ENDBRANCH   2  25
TORSDOF 9
