REMARK  Name = ZINC39657214
REMARK  6 active torsions:
REMARK  status: ('A' for Active; 'I' for Inactive)
REMARK    1  A    between atoms: C_1  and  C_2
REMARK    2  A    between atoms: C_2  and  C_4
REMARK    3  A    between atoms: C_2  and  N_11
REMARK    4  A    between atoms: C_12  and  C_14
REMARK    5  A    between atoms: C_25  and  C_27
REMARK    6  A    between atoms: N_31  and  C_32
REMARK                            x       y       z     vdW  Elec       q    Type
REMARK                         _______ _______ _______ _____ _____    ______ ____
ROOT
ATOM      1  C   UNL     1       1.545  -1.425  -3.978  0.00  0.00    +0.100 C 
ATOM      2  C   UNL     1       1.857  -2.911  -3.692  0.00  0.00    +0.121 C 
ATOM      3  N   UNL     1       0.597  -3.626  -4.007  0.00  0.00    -0.295 N 
ATOM      4  C   UNL     1       0.081  -2.946  -5.219  0.00  0.00    +0.115 C 
ATOM      5  C   UNL     1       0.381  -1.452  -4.984  0.00  0.00    -0.004 C 
ATOM      6  C   UNL     1       0.797  -0.785  -6.291  0.00  0.00    -0.010 C 
ATOM      7  C   UNL     1      -0.394  -0.772  -7.254  0.00  0.00    -0.082 C 
ATOM      8  N   UNL     1      -1.512  -0.043  -6.642  0.00  0.00    +0.379 N 
ATOM      9  C   UNL     1      -1.966  -0.744  -5.435  0.00  0.00    -0.082 C 
ATOM     10  C   UNL     1      -0.842  -0.755  -4.396  0.00  0.00    -0.010 C 
ATOM     11  C   UNL     1       0.046  -4.660  -3.341  0.00  0.00    +0.265 C 
ATOM     12  O   UNL     1      -0.890  -5.266  -3.828  0.00  0.00    -0.268 OA
ATOM     13  H   UNL     1      -1.210   0.888  -6.396  0.00  0.00    -0.086 HD
ATOM     14  H   UNL     1      -2.273   0.017  -7.302  0.00  0.00    -0.086 HD
ENDROOT
BRANCH  11  15
ATOM     15  C   UNL     1       0.574  -5.054  -2.030  0.00  0.00    +0.124 A 
ATOM     16  C   UNL     1       1.375  -4.309  -1.212  0.00  0.00    +0.143 A 
ATOM     17  N   UNL     1       1.627  -5.032  -0.120  0.00  0.00    -0.243 NA
ATOM     18  C   UNL     1       1.026  -6.191  -0.211  0.00  0.00    +0.199 A 
ATOM     19  N   UNL     1       0.356  -6.251  -1.375  0.00  0.00    -0.330 N 
ATOM     20  C   UNL     1      -0.451  -7.374  -1.859  0.00  0.00    +0.150 C 
ENDBRANCH  11  15
BRANCH   1  22
ATOM     21  N   UNL     1       1.392   0.588  -2.550  0.00  0.00    -0.308 N 
ATOM     22  C   UNL     1       1.127  -0.723  -2.712  0.00  0.00    +0.219 C 
ATOM     23  O   UNL     1       0.553  -1.339  -1.839  0.00  0.00    -0.275 OA
ATOM     24  H   UNL     1       1.851   1.080  -3.248  0.00  0.00    +0.149 HD
BRANCH  21  26
ATOM     25  C   UNL     1      -0.468   1.730  -1.445  0.00  0.00    +0.033 C 
ATOM     26  C   UNL     1       0.986   1.270  -1.318  0.00  0.00    +0.100 C 
BRANCH  26  27
ATOM     27  C   UNL     1       1.873   2.468  -1.092  0.00  0.00    -0.027 A 
ATOM     28  C   UNL     1       2.247   3.262  -2.159  0.00  0.00    +0.006 A 
ATOM     29  C   UNL     1       3.060   4.361  -1.952  0.00  0.00    +0.015 A 
ATOM     30  C   UNL     1       3.499   4.665  -0.676  0.00  0.00    +0.018 A 
ATOM     31  C   UNL     1       3.124   3.869   0.392  0.00  0.00    +0.015 A 
ATOM     32  C   UNL     1       2.307   2.774   0.184  0.00  0.00    +0.006 A 
ATOM     33 BR   UNL     1       4.612   6.167  -0.392  0.00  0.00    -0.050 Br
ENDBRANCH  26  27
ENDBRANCH  21  26
ENDBRANCH   1  22
TORSDOF 4
