REMARK  Name = ZINC02326278
REMARK  9 active torsions:
REMARK  status: ('A' for Active; 'I' for Inactive)
REMARK    1  A    between atoms: C_1  and  C_2
REMARK    2  A    between atoms: C_9  and  N_31
REMARK    3  A    between atoms: C_10  and  C_13
REMARK    4  A    between atoms: N_17  and  C_21
REMARK    5  A    between atoms: C_21  and  C_22
REMARK    6  A    between atoms: N_31  and  C_32
REMARK    7  A    between atoms: C_32  and  C_33
REMARK    8  A    between atoms: C_33  and  C_34
REMARK    9  A    between atoms: C_33  and  C_35
REMARK                            x       y       z     vdW  Elec       q    Type
REMARK                         _______ _______ _______ _____ _____    ______ ____
ROOT
ATOM      1  C   UNL     1       2.592   4.785  -0.794  0.00  0.00    +0.047 C 
ATOM      2  C   UNL     1       1.444   3.835  -0.565  0.00  0.00    -0.007 A 
ATOM      3  C   UNL     1       1.665   2.491  -0.514  0.00  0.00    +0.008 A 
ATOM      4  C   UNL     1       0.587   1.621  -0.301  0.00  0.00    +0.019 A 
ATOM      5  C   UNL     1      -0.663   2.114  -0.152  0.00  0.00    +0.096 A 
ATOM      6  N   UNL     1      -0.894   3.457  -0.197  0.00  0.00    -0.267 N 
ATOM      7  C   UNL     1       0.138   4.330  -0.404  0.00  0.00    +0.145 A 
ATOM      8  N   UNL     1      -0.069   5.647  -0.455  0.00  0.00    -0.214 NA
ATOM      9  C   UNL     1      -1.278   6.167  -0.309  0.00  0.00    +0.134 A 
ATOM     10  C   UNL     1      -2.384   5.312  -0.093  0.00  0.00    +0.081 A 
ATOM     11  C   UNL     1      -2.154   3.917  -0.040  0.00  0.00    +0.267 A 
ATOM     12  O   UNL     1      -3.077   3.142   0.145  0.00  0.00    -0.267 OA
ENDROOT
BRANCH  10  13
ATOM     13  C   UNL     1      -3.688   5.838   0.067  0.00  0.00    +0.037 C 
ATOM     14  C   UNL     1      -3.937   6.760   1.042  0.00  0.00    +0.077 C 
ATOM     15  C   UNL     1      -5.122   7.505   1.304  0.00  0.00    +0.259 C 
ATOM     16  O   UNL     1      -6.113   7.368   0.608  0.00  0.00    -0.269 OA
ATOM     17  N   UNL     1      -5.117   8.345   2.323  0.00  0.00    -0.251 N 
ATOM     18  C   UNL     1      -4.015   8.501   3.091  0.00  0.00    +0.121 C 
ATOM     19  S   UNL     1      -3.784   9.526   4.442  0.00  0.00    -0.027 S 
ATOM     20  S   UNL     1      -2.861   7.365   2.336  0.00  0.00    -0.061 S 
BRANCH  17  21
ATOM     21  C   UNL     1      -6.322   9.123   2.623  0.00  0.00    +0.150 C 
BRANCH  21  22
ATOM     22  C   UNL     1      -6.280  10.425   1.865  0.00  0.00    -0.026 A 
ATOM     23  C   UNL     1      -6.826  10.502   0.597  0.00  0.00    +0.009 A 
ATOM     24  C   UNL     1      -6.790  11.693  -0.104  0.00  0.00    +0.050 A 
ATOM     25  C   UNL     1      -6.208  12.814   0.465  0.00  0.00    +0.166 A 
ATOM     26  C   UNL     1      -5.659  12.737   1.742  0.00  0.00    +0.167 A 
ATOM     27  C   UNL     1      -5.702  11.541   2.440  0.00  0.00    +0.054 A 
ATOM     28  O   UNL     1      -5.153  13.960   2.075  0.00  0.00    -0.453 OA
ATOM     29  C   UNL     1      -5.760  14.889   1.157  0.00  0.00    +0.466 C 
ATOM     30  O   UNL     1      -6.046  14.086  -0.003  0.00  0.00    -0.453 OA
ENDBRANCH  21  22
ENDBRANCH  17  21
ENDBRANCH  10  13
BRANCH   9  31
ATOM     31  N   UNL     1      -1.458   7.532  -0.369  0.00  0.00    -0.328 N 
ATOM     32  H   UNL     1      -2.345   7.910  -0.261  0.00  0.00    +0.147 HD
BRANCH  31  33
ATOM     33  C   UNL     1      -0.309   8.413  -0.594  0.00  0.00    +0.106 C 
BRANCH  33  34
ATOM     34  C   UNL     1      -0.780   9.869  -0.616  0.00  0.00    -0.000 C 
ATOM     35  C   UNL     1       0.433  10.795  -0.726  0.00  0.00    +0.009 C 
ATOM     36  C   UNL     1      -1.700  10.089  -1.818  0.00  0.00    +0.009 C 
ENDBRANCH  33  34
ENDBRANCH  31  33
ENDBRANCH   9  31
TORSDOF 6
