REMARK  Name = ZINC10104078
REMARK  12 active torsions:
REMARK  status: ('A' for Active; 'I' for Inactive)
REMARK    1  A    between atoms: C_1  and  C_2
REMARK    2  A    between atoms: C_2  and  N_67
REMARK    3  A    between atoms: C_3  and  C_4
REMARK    4  A    between atoms: C_3  and  N_67
REMARK    5  A    between atoms: C_5  and  C_6
REMARK    6  A    between atoms: C_5  and  N_67
REMARK    7  A    between atoms: C_6  and  N_7
REMARK    8  A    between atoms: C_8  and  C_34
REMARK    9  A    between atoms: C_9  and  C_33
REMARK   10  A    between atoms: N_17  and  C_22
REMARK   11  A    between atoms: N_20  and  C_21
REMARK   12  A    between atoms: C_22  and  C_23
REMARK                            x       y       z     vdW  Elec       q    Type
REMARK                         _______ _______ _______ _____ _____    ______ ____
ROOT
ATOM      1  N   UNL     1      -1.472   0.880   2.329  0.00  0.00    -0.315 N 
ATOM      2  C   UNL     1      -0.676   1.451   3.305  0.00  0.00    +0.038 A 
ATOM      3  C   UNL     1      -0.586   0.596   4.319  0.00  0.00    +0.043 A 
ATOM      4  N   UNL     1      -1.323  -0.532   4.004  0.00  0.00    -0.275 N 
ATOM      5  C   UNL     1      -1.871  -0.350   2.780  0.00  0.00    +0.218 A 
ATOM      6  N   UNL     1      -2.579  -1.421   2.454  0.00  0.00    -0.193 NA
ATOM      7  C   UNL     1      -2.526  -2.317   3.436  0.00  0.00    +0.170 A 
ATOM      8  C   UNL     1      -1.730  -1.782   4.448  0.00  0.00    +0.157 A 
ATOM      9  C   UNL     1      -1.508  -2.533   5.614  0.00  0.00    +0.283 A 
ATOM     10  O   UNL     1      -0.815  -2.086   6.511  0.00  0.00    -0.265 OA
ATOM     11  N   UNL     1      -2.069  -3.754   5.730  0.00  0.00    -0.255 N 
ATOM     12  C   UNL     1      -2.835  -4.262   4.749  0.00  0.00    +0.334 A 
ATOM     13  O   UNL     1      -3.324  -5.366   4.890  0.00  0.00    -0.246 OA
ATOM     14  N   UNL     1      -3.075  -3.578   3.615  0.00  0.00    -0.279 N 
ATOM     15  C   UNL     1      -3.916  -4.165   2.569  0.00  0.00    +0.155 C 
ATOM     16  C   UNL     1       0.188   0.817   5.593  0.00  0.00    +0.066 C 
ATOM     17  C   UNL     1      -0.024   2.808   3.232  0.00  0.00    +0.065 C 
ENDROOT
BRANCH   1  18
ATOM     18  C   UNL     1      -1.829   1.486   1.044  0.00  0.00    +0.106 C 
BRANCH  18  19
ATOM     19  C   UNL     1      -0.786   1.103  -0.008  0.00  0.00    -0.057 C 
BRANCH  19  20
ATOM     20  N   UNL     1      -1.172   1.704  -1.302  0.00  0.00    +0.380 N 
ATOM     21  H   UNL     1      -2.147   1.457  -1.507  0.00  0.00    -0.082 HD
BRANCH  20  23
ATOM     22  C   UNL     1       0.389   3.584  -0.926  0.00  0.00    -0.017 C 
ATOM     23  C   UNL     1      -1.053   3.175  -1.231  0.00  0.00    -0.082 C 
ENDBRANCH  20  23
BRANCH  20  24
ATOM     24  C   UNL     1      -0.307   1.179  -2.380  0.00  0.00    -0.082 C 
ATOM     25  C   UNL     1      -0.943   1.519  -3.729  0.00  0.00    -0.017 C 
ENDBRANCH  20  24
ENDBRANCH  19  20
ENDBRANCH  18  19
ENDBRANCH   1  18
BRANCH  11  26
ATOM     26  C   UNL     1      -1.839  -4.540   6.944  0.00  0.00    +0.165 C 
BRANCH  26  27
ATOM     27  C   UNL     1      -2.894  -4.205   7.967  0.00  0.00    -0.020 A 
ATOM     28  C   UNL     1      -3.893  -3.333   7.659  0.00  0.00    +0.006 A 
ATOM     29  C   UNL     1      -4.877  -3.012   8.591  0.00  0.00    +0.001 A 
ATOM     30  C   UNL     1      -4.869  -3.560   9.837  0.00  0.00    +0.008 A 
ATOM     31  C   UNL     1      -3.854  -4.465  10.191  0.00  0.00    -0.018 A 
ATOM     32  C   UNL     1      -2.855  -4.796   9.241  0.00  0.00    -0.013 A 
ATOM     33  C   UNL     1      -1.837  -5.696   9.598  0.00  0.00    +0.009 A 
ATOM     34  C   UNL     1      -1.828  -6.245  10.843  0.00  0.00    +0.001 A 
ATOM     35  C   UNL     1      -2.813  -5.922  11.776  0.00  0.00    +0.001 A 
ATOM     36  C   UNL     1      -3.811  -5.051  11.468  0.00  0.00    +0.008 A 
ENDBRANCH  26  27
ENDBRANCH  11  26
TORSDOF 7
