REMARK  Name = ZINC29855806
REMARK  6 active torsions:
REMARK  status: ('A' for Active; 'I' for Inactive)
REMARK    1  A    between atoms: C_1  and  C_2
REMARK    2  A    between atoms: C_6  and  C_11
REMARK    3  A    between atoms: N_13  and  N_14
REMARK    4  A    between atoms: C_15  and  C_17
REMARK    5  A    between atoms: C_17  and  C_18
REMARK    6  A    between atoms: N_26  and  C_27
REMARK                            x       y       z     vdW  Elec       q    Type
REMARK                         _______ _______ _______ _____ _____    ______ ____
ROOT
ATOM      1  N   UNL     1       1.483  -7.175  -2.031  0.00  0.00    -0.234 N 
ATOM      2  C   UNL     1       1.784  -8.479  -1.868  0.00  0.00    +0.236 C 
ATOM      3  O   UNL     1       2.083  -8.899  -0.771  0.00  0.00    -0.274 OA
ATOM      4  H   UNL     1       1.244  -6.839  -2.909  0.00  0.00    +0.173 HD
ENDROOT
BRANCH   1   7
ATOM      5  C   UNL     1       1.218  -5.002  -1.096  0.00  0.00    +0.261 C 
ATOM      6  O   UNL     1       0.917  -4.580  -2.197  0.00  0.00    -0.269 OA
ATOM      7  N   UNL     1       1.518  -6.306  -0.933  0.00  0.00    -0.230 N 
ATOM      8  H   UNL     1       1.757  -6.642  -0.056  0.00  0.00    +0.173 HD
BRANCH   5  14
ATOM      9  C   UNL     1      -0.019   1.526   0.010  0.00  0.00    +0.008 C 
ATOM     10  C   UNL     1       0.002  -0.004   0.002  0.00  0.00    -0.009 C 
ATOM     11  C   UNL     1       0.731  -0.500  -1.250  0.00  0.00    +0.008 C 
ATOM     12  C   UNL     1       0.545  -2.012  -1.397  0.00  0.00    +0.037 C 
ATOM     13  C   UNL     1       0.935  -2.681  -0.088  0.00  0.00    -0.025 A 
ATOM     14  C   UNL     1       1.253  -4.088   0.057  0.00  0.00    +0.049 A 
ATOM     15  C   UNL     1       1.589  -4.538   1.313  0.00  0.00    +0.058 A 
ATOM     16  S   UNL     1       1.495  -3.168   2.280  0.00  0.00    -0.101 S 
ATOM     17  C   UNL     1       1.013  -1.977   1.065  0.00  0.00    -0.006 A 
ATOM     18  C   UNL     1       0.745  -0.515   1.246  0.00  0.00    +0.046 C 
ENDBRANCH   5  14
ENDBRANCH   1   7
BRANCH   2  19
ATOM     19  C   UNL     1       1.747  -9.414  -3.049  0.00  0.00    +0.171 C 
BRANCH  19  20
ATOM     20  C   UNL     1       2.120 -10.804  -2.601  0.00  0.00    +0.119 A 
ATOM     21  N   UNL     1       3.331 -11.278  -2.574  0.00  0.00    -0.232 NA
ATOM     22  C   UNL     1       3.311 -12.557  -2.119  0.00  0.00    +0.089 A 
ATOM     23  C   UNL     1       4.301 -13.517  -1.895  0.00  0.00    +0.030 A 
ATOM     24  C   UNL     1       3.959 -14.751  -1.420  0.00  0.00    +0.002 A 
ATOM     25  C   UNL     1       2.633 -15.065  -1.156  0.00  0.00    +0.002 A 
ATOM     26  C   UNL     1       1.639 -14.134  -1.370  0.00  0.00    +0.028 A 
ATOM     27  C   UNL     1       1.968 -12.875  -1.852  0.00  0.00    +0.069 A 
ATOM     28  N   UNL     1       1.240 -11.743  -2.161  0.00  0.00    -0.330 N 
ATOM     29  C   UNL     1      -0.211 -11.585  -2.041  0.00  0.00    +0.150 C 
ENDBRANCH  19  20
ENDBRANCH   2  19
TORSDOF 4
