REMARK  Name = ZINC39148531
REMARK  8 active torsions:
REMARK  status: ('A' for Active; 'I' for Inactive)
REMARK    1  A    between atoms: C_1  and  C_2
REMARK    2  A    between atoms: C_2  and  C_4
REMARK    3  A    between atoms: C_2  and  N_14
REMARK    4  A    between atoms: C_4  and  C_5
REMARK    5  A    between atoms: C_15  and  C_17
REMARK    6  A    between atoms: C_17  and  N_18
REMARK    7  A    between atoms: C_19  and  C_21
REMARK    8  A    between atoms: C_28  and  N_31
REMARK                            x       y       z     vdW  Elec       q    Type
REMARK                         _______ _______ _______ _____ _____    ______ ____
ROOT
ATOM      1  N   UNL     1      -0.240  -1.150  -4.711  0.00  0.00    -0.303 N 
ATOM      2  C   UNL     1       0.170  -1.560  -5.928  0.00  0.00    +0.244 C 
ATOM      3  O   UNL     1       1.329  -1.882  -6.103  0.00  0.00    -0.270 OA
ATOM      4  H   UNL     1      -1.165  -0.893  -4.572  0.00  0.00    +0.150 HD
ENDROOT
BRANCH   2   5
ATOM      5  C   UNL     1      -0.788  -1.616  -7.049  0.00  0.00    +0.038 A 
ATOM      6  C   UNL     1      -2.122  -1.243  -6.865  0.00  0.00    +0.015 A 
ATOM      7  C   UNL     1      -3.017  -1.293  -7.902  0.00  0.00    +0.025 A 
ATOM      8  C   UNL     1      -2.628  -1.720  -9.188  0.00  0.00    +0.043 A 
ATOM      9  C   UNL     1      -1.285  -2.089  -9.346  0.00  0.00    +0.033 A 
ATOM     10  C   UNL     1      -0.377  -2.039  -8.319  0.00  0.00    +0.029 A 
ATOM     11  S   UNL     1      -1.135  -2.567 -11.053  0.00  0.00    -0.079 S 
ATOM     12  C   UNL     1      -2.877  -2.273 -11.557  0.00  0.00    +0.237 C 
ATOM     13  N   UNL     1      -3.462  -1.803 -10.294  0.00  0.00    -0.314 N 
ATOM     14  H   UNL     1      -4.399  -1.559 -10.235  0.00  0.00    +0.149 HD
BRANCH  12  15
ATOM     15  N   UNL     1      -3.513  -3.514 -12.004  0.00  0.00    -0.326 N 
ATOM     16  C   UNL     1      -4.174  -4.401 -11.206  0.00  0.00    +0.088 A 
ATOM     17  C   UNL     1      -4.618  -5.413 -11.978  0.00  0.00    +0.019 A 
ATOM     18  C   UNL     1      -4.217  -5.142 -13.301  0.00  0.00    +0.019 A 
ATOM     19  C   UNL     1      -3.548  -3.971 -13.288  0.00  0.00    +0.088 A 
ENDBRANCH  12  15
ENDBRANCH   2   5
BRANCH   1  20
ATOM     20  C   UNL     1       0.712  -1.094  -3.598  0.00  0.00    +0.200 C 
BRANCH  20  22
ATOM     21  N   UNL     1       0.688  -0.476  -1.203  0.00  0.00    -0.311 N 
ATOM     22  C   UNL     1       0.006  -0.608  -2.358  0.00  0.00    +0.230 C 
ATOM     23  O   UNL     1      -1.175  -0.336  -2.400  0.00  0.00    -0.274 OA
ATOM     24  H   UNL     1       1.632  -0.695  -1.170  0.00  0.00    +0.149 HD
BRANCH  21  26
ATOM     25  C   UNL     1      -0.019   1.526   0.010  0.00  0.00    +0.028 C 
ATOM     26  C   UNL     1       0.002  -0.004   0.002  0.00  0.00    +0.074 C 
BRANCH  26  27
ATOM     27  C   UNL     1       0.742  -0.511   1.242  0.00  0.00    +0.059 C 
BRANCH  27  28
ATOM     28  C   UNL     1       0.657  -2.014   1.298  0.00  0.00    -0.021 A 
ATOM     29  C   UNL     1       1.543  -2.963   0.620  0.00  0.00    +0.003 A 
ATOM     30  C   UNL     1       2.650  -2.828  -0.219  0.00  0.00    +0.010 A 
ATOM     31  C   UNL     1       3.277  -3.942  -0.701  0.00  0.00    +0.001 A 
ATOM     32  C   UNL     1       2.822  -5.209  -0.363  0.00  0.00    +0.002 A 
ATOM     33  C   UNL     1       1.731  -5.366   0.464  0.00  0.00    +0.026 A 
ATOM     34  C   UNL     1       1.077  -4.245   0.966  0.00  0.00    +0.047 A 
ATOM     35  N   UNL     1      -0.010  -4.073   1.792  0.00  0.00    -0.360 N 
ATOM     36  C   UNL     1      -0.242  -2.738   1.983  0.00  0.00    +0.087 A 
ATOM     37  H   UNL     1      -0.532  -4.791   2.184  0.00  0.00    +0.165 HD
ENDBRANCH  27  28
ENDBRANCH  26  27
ENDBRANCH  21  26
ENDBRANCH  20  22
ENDBRANCH   1  20
TORSDOF 7
