REMARK  Name = ZINC39532630
REMARK  11 active torsions:
REMARK  status: ('A' for Active; 'I' for Inactive)
REMARK    1  A    between atoms: C_1  and  C_2
REMARK    2  A    between atoms: C_2  and  C_3
REMARK    3  A    between atoms: C_3  and  C_4
REMARK    4  A    between atoms: C_7  and  C_10
REMARK    5  A    between atoms: C_10  and  C_12
REMARK    6  A    between atoms: C_10  and  N_21
REMARK    7  A    between atoms: C_12  and  N_13
REMARK    8  A    between atoms: N_13  and  C_14
REMARK    9  A    between atoms: C_14  and  C_15
REMARK   10  A    between atoms: C_25  and  C_28
REMARK   11  A    between atoms: C_33  and  O_34
REMARK                            x       y       z     vdW  Elec       q    Type
REMARK                         _______ _______ _______ _____ _____    ______ ____
ROOT
ATOM      1  C   UNL     1       0.815  -6.241  -1.305  0.00  0.00    -0.024 C 
ENDROOT
BRANCH   1   2
ATOM      2  N   UNL     1       0.247  -6.590  -2.614  0.00  0.00    +0.383 N 
ATOM      3  C   UNL     1       0.045  -8.043  -2.688  0.00  0.00    -0.097 C 
ATOM      4  C   UNL     1      -0.547  -8.407  -4.051  0.00  0.00    -0.101 C 
ATOM      5  N   UNL     1       0.375  -7.986  -5.114  0.00  0.00    +0.381 N 
ATOM      6  C   UNL     1       0.577  -6.532  -5.040  0.00  0.00    -0.054 C 
ATOM      7  C   UNL     1       1.169  -6.169  -3.677  0.00  0.00    -0.089 C 
ATOM      8  H   UNL     1       1.261  -8.454  -4.996  0.00  0.00    -0.085 HD
ATOM      9  H   UNL     1      -0.015  -8.225  -6.013  0.00  0.00    -0.085 HD
ATOM     10  H   UNL     1      -0.639  -6.121  -2.732  0.00  0.00    -0.081 HD
BRANCH   6  11
ATOM     11  C   UNL     1       1.523  -6.100  -6.130  0.00  0.00    -0.022 A 
ATOM     12  C   UNL     1       2.356  -7.025  -6.730  0.00  0.00    +0.005 A 
ATOM     13  C   UNL     1       3.225  -6.629  -7.729  0.00  0.00    +0.000 A 
ATOM     14  C   UNL     1       3.263  -5.307  -8.133  0.00  0.00    +0.004 A 
ATOM     15  C   UNL     1       2.432  -4.378  -7.537  0.00  0.00    +0.045 A 
ATOM     16  C   UNL     1       1.555  -4.774  -6.537  0.00  0.00    +0.118 A 
BRANCH  16  17
ATOM     17  O   UNL     1       0.733  -3.864  -5.953  0.00  0.00    -0.507 OA
ATOM     18  H   UNL     1       1.114  -3.429  -5.178  0.00  0.00    +0.292 HD
ENDBRANCH  16  17
ENDBRANCH   6  11
ENDBRANCH   1   2
BRANCH   1  22
ATOM     19  C   UNL     1       1.495  -2.027  -1.128  0.00  0.00    -0.047 A 
ATOM     20  C   UNL     1       2.419  -2.900  -0.584  0.00  0.00    +0.004 A 
ATOM     21  C   UNL     1       2.199  -4.263  -0.641  0.00  0.00    +0.002 A 
ATOM     22  C   UNL     1       1.055  -4.754  -1.242  0.00  0.00    -0.060 A 
ATOM     23  C   UNL     1       0.131  -3.882  -1.786  0.00  0.00    +0.002 A 
ATOM     24  C   UNL     1       0.349  -2.518  -1.725  0.00  0.00    +0.004 A 
BRANCH  19  25
ATOM     25  C   UNL     1       1.735  -0.541  -1.066  0.00  0.00    +0.035 C 
BRANCH  25  27
ATOM     26  C   UNL     1       1.375   1.529   0.287  0.00  0.00    +0.004 C 
ATOM     27  C   UNL     1       1.132   0.019   0.224  0.00  0.00    +0.001 C 
ENDBRANCH  25  27
ENDBRANCH  19  25
ENDBRANCH   1  22
BRANCH   1  28
ATOM     28  C   UNL     1      -0.162  -6.647  -0.200  0.00  0.00    +0.070 C 
BRANCH  28  29
ATOM     29  N   UNL     1       0.438  -6.367   1.111  0.00  0.00    -0.313 NA
ATOM     30  H   UNL     1       1.359  -6.773   1.182  0.00  0.00    +0.122 HD
BRANCH  29  31
ATOM     31  C   UNL     1      -0.430  -6.837   2.199  0.00  0.00    +0.116 C 
BRANCH  31  32
ATOM     32  C   UNL     1       0.217  -6.532   3.525  0.00  0.00    -0.034 A 
ATOM     33  C   UNL     1       1.066  -7.454   4.108  0.00  0.00    +0.005 A 
ATOM     34  C   UNL     1       1.659  -7.175   5.325  0.00  0.00    +0.000 A 
ATOM     35  C   UNL     1       1.404  -5.973   5.959  0.00  0.00    +0.000 A 
ATOM     36  C   UNL     1       0.556  -5.051   5.375  0.00  0.00    +0.000 A 
ATOM     37  C   UNL     1      -0.034  -5.328   4.157  0.00  0.00    +0.005 A 
ENDBRANCH  31  32
ENDBRANCH  29  31
ENDBRANCH  28  29
ENDBRANCH   1  28
TORSDOF 10
