REMARK  Name = ZINC06760268
REMARK  6 active torsions:
REMARK  status: ('A' for Active; 'I' for Inactive)
REMARK    1  A    between atoms: C_1  and  C_2
REMARK    2  A    between atoms: C_9  and  N_14
REMARK    3  A    between atoms: C_10  and  C_11
REMARK    4  A    between atoms: C_15  and  C_17
REMARK    5  A    between atoms: C_22  and  O_23
REMARK    6  A    between atoms: O_23  and  C_24
REMARK                            x       y       z     vdW  Elec       q    Type
REMARK                         _______ _______ _______ _____ _____    ______ ____
ROOT
ATOM      1  C   UNL     1      -1.435   3.621   2.530  0.00  0.00    +0.008 C 
ATOM      2  C   UNL     1      -0.938   3.097   1.181  0.00  0.00    -0.009 C 
ATOM      3  C   UNL     1      -0.735   1.582   1.262  0.00  0.00    +0.008 C 
ATOM      4  C   UNL     1      -0.013   1.086   0.008  0.00  0.00    +0.037 C 
ATOM      5  C   UNL     1      -0.755   1.593  -1.222  0.00  0.00    -0.023 A 
ATOM      6  C   UNL     1      -1.621   2.627  -1.135  0.00  0.00    -0.004 A 
ATOM      7  S   UNL     1      -2.225   2.851  -2.784  0.00  0.00    -0.077 S 
ATOM      8  C   UNL     1      -1.341   1.592  -3.580  0.00  0.00    +0.085 A 
ATOM      9  C   UNL     1      -0.600   1.027  -2.551  0.00  0.00    +0.068 A 
ATOM     10  C   UNL     1      -1.980   3.403   0.095  0.00  0.00    +0.046 C 
ENDROOT
BRANCH   9  11
ATOM     11  C   UNL     1       0.307  -0.099  -2.796  0.00  0.00    +0.244 C 
ATOM     12  O   UNL     1      -0.102  -1.241  -2.702  0.00  0.00    -0.270 OA
ATOM     13  N   UNL     1       1.593   0.132  -3.126  0.00  0.00    -0.325 N 
ATOM     14  H   UNL     1       1.919   1.042  -3.201  0.00  0.00    +0.145 HD
ATOM     15  H   UNL     1       2.193  -0.613  -3.288  0.00  0.00    +0.145 HD
ENDBRANCH   9  11
BRANCH   8  16
ATOM     16  N   UNL     1      -1.368   1.234  -4.918  0.00  0.00    -0.275 N 
ATOM     17  C   UNL     1      -2.159   1.905  -5.779  0.00  0.00    +0.252 C 
ATOM     18  O   UNL     1      -2.849   2.824  -5.381  0.00  0.00    -0.270 OA
ATOM     19  H   UNL     1      -0.818   0.501  -5.235  0.00  0.00    +0.156 HD
BRANCH  17  20
ATOM     20  C   UNL     1      -2.188   1.524  -7.203  0.00  0.00    +0.081 A 
ATOM     21  C   UNL     1      -1.393   0.473  -7.666  0.00  0.00    +0.036 A 
ATOM     22  C   UNL     1      -1.427   0.119  -8.998  0.00  0.00    +0.043 A 
ATOM     23  C   UNL     1      -2.241   0.808  -9.884  0.00  0.00    +0.043 A 
ATOM     24  C   UNL     1      -3.029   1.853  -9.440  0.00  0.00    +0.085 A 
ATOM     25  C   UNL     1      -3.009   2.219  -8.101  0.00  0.00    +0.150 A 
ATOM     26 CL   UNL     1      -4.043   2.709 -10.558  0.00  0.00    -0.080 Cl
ATOM     27 CL   UNL     1      -0.443  -1.192  -9.570  0.00  0.00    -0.083 Cl
BRANCH  25  28
ATOM     28  O   UNL     1      -3.783   3.245  -7.664  0.00  0.00    -0.493 OA
ATOM     29  C   UNL     1      -3.204   4.551  -7.691  0.00  0.00    +0.277 C 
ENDBRANCH  25  28
ENDBRANCH  17  20
ENDBRANCH   8  16
TORSDOF 4
