REMARK  Name = ZINC56388363
REMARK  7 active torsions:
REMARK  status: ('A' for Active; 'I' for Inactive)
REMARK    1  A    between atoms: C_1  and  C_2
REMARK    2  A    between atoms: C_5  and  C_26
REMARK    3  A    between atoms: C_8  and  C_25
REMARK    4  A    between atoms: C_9  and  C_11
REMARK    5  A    between atoms: N_13  and  N_14
REMARK    6  A    between atoms: C_15  and  C_17
REMARK    7  A    between atoms: C_17  and  C_18
REMARK                            x       y       z     vdW  Elec       q    Type
REMARK                         _______ _______ _______ _____ _____    ______ ____
ROOT
ATOM      1  C   UNL     1       0.069  -1.578   4.791  0.00  0.00    +0.296 C 
ATOM      2  O   UNL     1       0.061  -0.566   5.466  0.00  0.00    -0.265 OA
ATOM      3  N   UNL     1       0.091  -2.786   5.388  0.00  0.00    -0.228 N 
ATOM      4  H   UNL     1       0.097  -3.593   4.850  0.00  0.00    +0.173 HD
ENDROOT
BRANCH   1  13
ATOM      5  C   UNL     1      -0.018   1.503   0.010  0.00  0.00    +0.044 C 
ATOM      6  C   UNL     1       0.002  -0.004   0.002  0.00  0.00    -0.039 A 
ATOM      7  C   UNL     1       0.006  -0.684  -1.183  0.00  0.00    +0.004 A 
ATOM      8  C   UNL     1       0.025  -2.072  -1.198  0.00  0.00    +0.007 A 
ATOM      9  C   UNL     1       0.041  -2.789  -0.021  0.00  0.00    -0.008 A 
ATOM     10  C   UNL     1       0.037  -2.119   1.197  0.00  0.00    +0.139 A 
ATOM     11  C   UNL     1       0.023  -0.712   1.206  0.00  0.00    +0.027 A 
ATOM     12  C   UNL     1       0.031  -0.325   2.616  0.00  0.00    +0.008 A 
ATOM     13  C   UNL     1       0.054  -1.483   3.324  0.00  0.00    +0.195 A 
ATOM     14  O   UNL     1       0.049  -2.535   2.478  0.00  0.00    -0.450 OA
ATOM     15  C   UNL     1       0.016   1.076   3.171  0.00  0.00    +0.048 C 
ATOM     16  C   UNL     1       0.061  -4.295  -0.055  0.00  0.00    +0.047 C 
ENDBRANCH   1  13
BRANCH   3  17
ATOM     17  N   UNL     1       0.105  -2.876   6.786  0.00  0.00    -0.234 N 
ATOM     18  C   UNL     1       0.128  -4.084   7.383  0.00  0.00    +0.233 C 
ATOM     19  O   UNL     1       0.135  -5.093   6.710  0.00  0.00    -0.274 OA
ATOM     20  H   UNL     1       0.099  -2.069   7.324  0.00  0.00    +0.173 HD
BRANCH  18  21
ATOM     21  C   UNL     1       0.143  -4.181   8.887  0.00  0.00    +0.132 C 
BRANCH  21  22
ATOM     22  C   UNL     1       0.167  -5.631   9.296  0.00  0.00    -0.038 A 
ATOM     23  C   UNL     1      -1.019  -6.314   9.490  0.00  0.00    +0.007 A 
ATOM     24  C   UNL     1      -0.999  -7.644   9.865  0.00  0.00    +0.038 A 
ATOM     25  C   UNL     1       0.211  -8.293  10.047  0.00  0.00    +0.123 A 
ATOM     26  C   UNL     1       1.399  -7.608   9.853  0.00  0.00    +0.038 A 
ATOM     27  C   UNL     1       1.375  -6.279   9.473  0.00  0.00    +0.007 A 
ATOM     28  F   UNL     1       0.233  -9.593  10.414  0.00  0.00    -0.205 F 
ENDBRANCH  21  22
ENDBRANCH  18  21
ENDBRANCH   3  17
TORSDOF 4
