REMARK  Name = ZINC16778023
REMARK  3 active torsions:
REMARK  status: ('A' for Active; 'I' for Inactive)
REMARK    1  A    between atoms: C_7  and  C_20
REMARK    2  A    between atoms: C_8  and  N_19
REMARK    3  A    between atoms: C_10  and  C_12
REMARK                            x       y       z     vdW  Elec       q    Type
REMARK                         _______ _______ _______ _____ _____    ______ ____
ROOT
ATOM      1  C   UNL     1       0.004   1.071   0.012  0.00  0.00    +0.001 A 
ATOM      2  C   UNL     1      -1.210   1.738   0.022  0.00  0.00    +0.002 A 
ATOM      3  C   UNL     1      -1.253   3.117   0.034  0.00  0.00    +0.027 A 
ATOM      4  C   UNL     1      -0.072   3.849   0.025  0.00  0.00    +0.059 A 
ATOM      5  C   UNL     1       1.156   3.172   0.009  0.00  0.00    +0.014 A 
ATOM      6  C   UNL     1       1.187   1.780   0.003  0.00  0.00    +0.011 A 
ATOM      7  C   UNL     1       2.203   4.213   0.003  0.00  0.00    +0.084 A 
ATOM      8  C   UNL     1       1.542   5.432   0.016  0.00  0.00    +0.116 A 
ATOM      9  N   UNL     1       0.193   5.212   0.029  0.00  0.00    -0.263 N 
ATOM     10  C   UNL     1      -0.745   6.179   0.043  0.00  0.00    +0.264 C 
ATOM     11  O   UNL     1      -1.093   6.673   1.097  0.00  0.00    -0.267 OA
ENDROOT
BRANCH  10  12
ATOM     12  C   UNL     1      -1.352   6.638  -1.223  0.00  0.00    +0.040 A 
ATOM     13  C   UNL     1      -1.028   6.005  -2.425  0.00  0.00    +0.014 A 
ATOM     14  C   UNL     1      -1.602   6.435  -3.603  0.00  0.00    +0.016 A 
ATOM     15  C   UNL     1      -2.489   7.499  -3.597  0.00  0.00    +0.018 A 
ATOM     16  C   UNL     1      -2.809   8.134  -2.409  0.00  0.00    +0.016 A 
ATOM     17  C   UNL     1      -2.247   7.710  -1.224  0.00  0.00    +0.014 A 
ATOM     18 BR   UNL     1      -3.266   8.086  -5.218  0.00  0.00    -0.050 Br
ENDBRANCH  10  12
BRANCH   7  19
ATOM     19  C   UNL     1       3.649   4.002  -0.012  0.00  0.00    +0.245 C 
ATOM     20  O   UNL     1       4.241   3.918  -1.073  0.00  0.00    -0.270 OA
ATOM     21  N   UNL     1       4.327   3.899   1.148  0.00  0.00    -0.325 N 
ATOM     22  H   UNL     1       3.856   3.965   1.993  0.00  0.00    +0.145 HD
ATOM     23  H   UNL     1       5.287   3.758   1.138  0.00  0.00    +0.145 HD
ENDBRANCH   7  19
BRANCH   8  24
ATOM     24  N   UNL     1       2.147   6.665   0.016  0.00  0.00    -0.343 N 
ATOM     25  H   UNL     1       3.113   6.732   0.080  0.00  0.00    +0.144 HD
ATOM     26  H   UNL     1       1.609   7.470  -0.048  0.00  0.00    +0.144 HD
ENDBRANCH   8  24
TORSDOF 3
