REMARK  Name = ZINC13636333
REMARK  4 active torsions:
REMARK  status: ('A' for Active; 'I' for Inactive)
REMARK    1  A    between atoms: C_1  and  O_2
REMARK    2  A    between atoms: O_2  and  C_3
REMARK    3  A    between atoms: C_6  and  C_9
REMARK    4  A    between atoms: C_20  and  C_25
REMARK                            x       y       z     vdW  Elec       q    Type
REMARK                         _______ _______ _______ _____ _____    ______ ____
ROOT
ATOM      1  C   UNL     1      -0.315   2.396  -1.110  0.00  0.00    +0.105 C 
ATOM      2  C   UNL     1       0.037   1.696   0.190  0.00  0.00    +0.029 C 
ATOM      3  C   UNL     1      -0.209   0.184   0.262  0.00  0.00    +0.033 C 
ATOM      4  C   UNL     1       0.867  -0.256   1.257  0.00  0.00    -0.030 C 
ATOM      5  C   UNL     1       1.879   0.602   1.240  0.00  0.00    -0.023 C 
ATOM      6  C   UNL     1       1.594   1.652   0.228  0.00  0.00    +0.049 C 
ATOM      7  C   UNL     1       2.083   3.039   0.382  0.00  0.00    -0.019 A 
ATOM      8  C   UNL     1       3.209   3.346   1.105  0.00  0.00    +0.019 A 
ATOM      9  C   UNL     1       3.638   4.672   1.211  0.00  0.00    +0.037 A 
ATOM     10  C   UNL     1       2.914   5.686   0.575  0.00  0.00    +0.015 A 
ATOM     11  C   UNL     1       1.784   5.377  -0.144  0.00  0.00    +0.024 A 
ATOM     12  C   UNL     1       1.350   4.057  -0.247  0.00  0.00    +0.031 A 
ATOM     13  N   UNL     1       0.189   3.780  -0.967  0.00  0.00    -0.336 N 
ATOM     14  H   UNL     1      -0.299   4.508  -1.382  0.00  0.00    +0.147 HD
ENDROOT
BRANCH   9  15
ATOM     15  C   UNL     1       4.847   5.001   1.990  0.00  0.00    +0.247 C 
ATOM     16  O   UNL     1       5.821   4.275   1.936  0.00  0.00    -0.270 OA
ATOM     17  N   UNL     1       4.872   6.106   2.761  0.00  0.00    -0.298 N 
ATOM     18  C   UNL     1       6.108   6.463   3.419  0.00  0.00    +0.108 C 
ATOM     19  C   UNL     1       6.184   5.781   4.802  0.00  0.00    +0.019 C 
ATOM     20  C   UNL     1       5.225   6.402   5.729  0.00  0.00    +0.002 C 
ATOM     21  C   UNL     1       3.764   6.257   5.314  0.00  0.00    +0.002 C 
ATOM     22  C   UNL     1       3.406   7.363   4.352  0.00  0.00    +0.019 C 
ATOM     23  C   UNL     1       3.635   6.898   2.902  0.00  0.00    +0.108 C 
ENDBRANCH   9  15
BRANCH   1  27
ATOM     24  C   UNL     1       1.610   0.458  -4.397  0.00  0.00    +0.120 A 
ATOM     25  C   UNL     1       0.356   0.036  -3.978  0.00  0.00    +0.046 A 
ATOM     26  C   UNL     1      -0.264   0.664  -2.916  0.00  0.00    +0.009 A 
ATOM     27  C   UNL     1       0.364   1.713  -2.269  0.00  0.00    -0.027 A 
ATOM     28  C   UNL     1       1.611   2.139  -2.688  0.00  0.00    +0.009 A 
ATOM     29  C   UNL     1       2.238   1.510  -3.747  0.00  0.00    +0.046 A 
BRANCH  24  31
ATOM     30  C   UNL     1       3.511   0.329  -5.818  0.00  0.00    +0.277 C 
ATOM     31  O   UNL     1       2.222  -0.159  -5.442  0.00  0.00    -0.495 OA
ENDBRANCH  24  31
ENDBRANCH   1  27
TORSDOF 3
