REMARK  Name = ZINC52594511
REMARK  6 active torsions:
REMARK  status: ('A' for Active; 'I' for Inactive)
REMARK    1  A    between atoms: C_15  and  C_17
REMARK    2  A    between atoms: C_17  and  C_19
REMARK    3  A    between atoms: C_17  and  N_29
REMARK    4  A    between atoms: C_19  and  C_20
REMARK    5  A    between atoms: C_30  and  C_32
REMARK    6  A    between atoms: C_32  and  N_33
REMARK                            x       y       z     vdW  Elec       q    Type
REMARK                         _______ _______ _______ _____ _____    ______ ____
ROOT
ATOM      1  C   UNL     1       8.074  -1.790   1.927  0.00  0.00    +0.163 C 
ENDROOT
BRANCH   1  16
ATOM      2  C   UNL     1      -0.017   1.377   0.010  0.00  0.00    +0.000 A 
ATOM      3  C   UNL     1       1.172   2.083   0.002  0.00  0.00    +0.000 A 
ATOM      4  C   UNL     1       2.376   1.405  -0.014  0.00  0.00    +0.004 A 
ATOM      5  C   UNL     1       2.397   0.021  -0.023  0.00  0.00    -0.038 A 
ATOM      6  C   UNL     1       1.208  -0.685  -0.013  0.00  0.00    -0.044 A 
ATOM      7  C   UNL     1       0.002  -0.004   0.002  0.00  0.00    +0.004 A 
ATOM      8  C   UNL     1       1.494  -2.172  -0.021  0.00  0.00    +0.036 C 
ATOM      9  C   UNL     1       2.965  -2.298  -0.475  0.00  0.00    +0.016 C 
ATOM     10  C   UNL     1       3.559  -0.944  -0.044  0.00  0.00    -0.001 C 
ATOM     11  C   UNL     1       4.606  -0.489  -1.057  0.00  0.00    +0.030 C 
ATOM     12  C   UNL     1       5.744  -1.515  -1.108  0.00  0.00    +0.108 C 
ATOM     13  N   UNL     1       6.254  -1.723   0.254  0.00  0.00    -0.300 N 
ATOM     14  C   UNL     1       5.308  -2.095   1.315  0.00  0.00    +0.108 C 
ATOM     15  C   UNL     1       4.173  -1.065   1.347  0.00  0.00    +0.030 C 
ATOM     16  C   UNL     1       7.565  -1.574   0.525  0.00  0.00    +0.236 C 
ATOM     17  O   UNL     1       8.337  -1.267  -0.359  0.00  0.00    -0.274 OA
ENDBRANCH   1  16
BRANCH   1  18
ATOM     18  N   UNL     1       9.373  -1.131   2.083  0.00  0.00    -0.305 N 
ATOM     19  C   UNL     1      10.410  -1.492   1.301  0.00  0.00    +0.196 C 
ATOM     20  O   UNL     1      10.267  -2.363   0.469  0.00  0.00    -0.278 OA
ATOM     21  H   UNL     1       9.487  -0.435   2.748  0.00  0.00    +0.149 HD
BRANCH  19  22
ATOM     22  C   UNL     1      11.746  -0.814   1.461  0.00  0.00    +0.011 C 
BRANCH  22  23
ATOM     23  N   UNL     1      12.701  -1.383   0.500  0.00  0.00    +0.384 N 
ATOM     24  H   UNL     1      12.803  -2.372   0.672  0.00  0.00    -0.089 HD
ATOM     25  H   UNL     1      12.361  -1.238  -0.439  0.00  0.00    -0.089 HD
ATOM     26  H   UNL     1      13.596  -0.928   0.607  0.00  0.00    -0.089 HD
ENDBRANCH  22  23
ENDBRANCH  19  22
ENDBRANCH   1  18
BRANCH   1  27
ATOM     27  C   UNL     1       8.229  -3.290   2.188  0.00  0.00    +0.065 C 
BRANCH  27  28
ATOM     28  C   UNL     1       8.619  -3.512   3.627  0.00  0.00    -0.039 C 
ATOM     29  C   UNL     1       7.792  -3.790   4.660  0.00  0.00    -0.001 A 
ATOM     30  C   UNL     1       6.337  -3.961   4.751  0.00  0.00    +0.010 A 
ATOM     31  C   UNL     1       5.783  -4.240   5.952  0.00  0.00    +0.001 A 
ATOM     32  C   UNL     1       6.561  -4.370   7.111  0.00  0.00    +0.002 A 
ATOM     33  C   UNL     1       7.903  -4.226   7.107  0.00  0.00    +0.026 A 
ATOM     34  C   UNL     1       8.591  -3.932   5.897  0.00  0.00    +0.043 A 
ATOM     35  N   UNL     1       9.864  -3.749   5.639  0.00  0.00    -0.380 N 
ATOM     36  C   UNL     1      10.015  -3.476   4.206  0.00  0.00    +0.144 C 
ATOM     37  H   UNL     1      10.584  -3.791   6.287  0.00  0.00    +0.160 HD
ENDBRANCH  27  28
ENDBRANCH   1  27
TORSDOF 6
