REMARK  Name = ZINC08910818
REMARK  12 active torsions:
REMARK  status: ('A' for Active; 'I' for Inactive)
REMARK    1  A    between atoms: C_1  and  C_2
REMARK    2  A    between atoms: C_2  and  O_3
REMARK    3  A    between atoms: O_3  and  C_4
REMARK    4  A    between atoms: C_7  and  C_10
REMARK    5  A    between atoms: N_12  and  C_13
REMARK    6  A    between atoms: C_14  and  N_32
REMARK    7  A    between atoms: C_16  and  S_21
REMARK    8  A    between atoms: S_21  and  C_22
REMARK    9  A    between atoms: C_22  and  C_23
REMARK   10  A    between atoms: C_26  and  C_28
REMARK   11  A    between atoms: C_28  and  O_30
REMARK   12  A    between atoms: O_30  and  C_31
REMARK                            x       y       z     vdW  Elec       q    Type
REMARK                         _______ _______ _______ _____ _____    ______ ____
ROOT
ATOM      1  C   UNL     1      -7.284  -0.233   0.999  0.00  0.00    +0.139 A 
ATOM      2  C   UNL     1      -6.421   0.077  -0.048  0.00  0.00    +0.146 A 
ATOM      3  N   UNL     1      -5.180   0.499   0.218  0.00  0.00    -0.207 NA
ATOM      4  C   UNL     1      -4.755   0.628   1.458  0.00  0.00    +0.171 A 
ATOM      5  N   UNL     1      -5.557   0.333   2.518  0.00  0.00    -0.300 N 
ATOM      6  H   UNL     1      -5.219   0.433   3.422  0.00  0.00    +0.171 HD
ATOM      7  C   UNL     1      -6.821  -0.092   2.315  0.00  0.00    +0.275 A 
ATOM      8  O   UNL     1      -7.548  -0.354   3.261  0.00  0.00    -0.266 OA
ENDROOT
BRANCH   1  11
ATOM      9  C   UNL     1      -8.996  -1.885   1.188  0.00  0.00    +0.248 C 
ATOM     10  O   UNL     1      -8.256  -2.552   1.886  0.00  0.00    -0.270 OA
ATOM     11  N   UNL     1      -8.595  -0.678   0.741  0.00  0.00    -0.274 N 
ATOM     12  H   UNL     1      -9.209  -0.117   0.242  0.00  0.00    +0.155 HD
BRANCH   9  16
ATOM     13  C   UNL     1     -12.845  -3.357   0.160  0.00  0.00    +0.121 A 
ATOM     14  C   UNL     1     -12.001  -4.121   0.958  0.00  0.00    +0.046 A 
ATOM     15  C   UNL     1     -10.752  -3.647   1.293  0.00  0.00    +0.016 A 
ATOM     16  C   UNL     1     -10.334  -2.397   0.831  0.00  0.00    +0.037 A 
ATOM     17  C   UNL     1     -11.187  -1.629   0.034  0.00  0.00    +0.016 A 
ATOM     18  C   UNL     1     -12.432  -2.113  -0.302  0.00  0.00    +0.046 A 
BRANCH  13  19
ATOM     19  O   UNL     1     -14.074  -3.828  -0.169  0.00  0.00    -0.492 OA
BRANCH  19  21
ATOM     20  C   UNL     1     -16.229  -3.684  -1.254  0.00  0.00    +0.048 C 
ATOM     21  C   UNL     1     -14.890  -2.991  -0.991  0.00  0.00    +0.225 C 
ENDBRANCH  19  21
ENDBRANCH  13  19
ENDBRANCH   9  16
ENDBRANCH   1  11
BRANCH   2  22
ATOM     22  N   UNL     1      -6.845  -0.051  -1.359  0.00  0.00    -0.341 N 
ATOM     23  H   UNL     1      -6.242   0.165  -2.087  0.00  0.00    +0.144 HD
ATOM     24  H   UNL     1      -7.745  -0.357  -1.549  0.00  0.00    +0.144 HD
ENDBRANCH   2  22
BRANCH   4  25
ATOM     25  S   UNL     1      -3.110   1.188   1.750  0.00  0.00    -0.080 S 
BRANCH  25  26
ATOM     26  C   UNL     1      -2.544   1.405   0.045  0.00  0.00    +0.151 C 
BRANCH  26  27
ATOM     27  C   UNL     1      -1.118   1.894   0.047  0.00  0.00    +0.116 A 
ATOM     28  C   UNL     1      -0.017   1.110   0.034  0.00  0.00    +0.046 A 
ATOM     29  C   UNL     1       1.097   1.962   0.036  0.00  0.00    +0.057 A 
ATOM     30  C   UNL     1       0.614   3.240   0.055  0.00  0.00    +0.212 A 
ATOM     31  O   UNL     1      -0.734   3.177   0.065  0.00  0.00    -0.452 OA
BRANCH  30  32
ATOM     32  C   UNL     1       1.418   4.465   0.064  0.00  0.00    +0.375 C 
ATOM     33  O   UNL     1       2.632   4.395   0.055  0.00  0.00    -0.241 OA
BRANCH  32  34
ATOM     34  O   UNL     1       0.812   5.670   0.083  0.00  0.00    -0.462 OA
ATOM     35  C   UNL     1       1.671   6.840   0.091  0.00  0.00    +0.280 C 
ENDBRANCH  32  34
ENDBRANCH  30  32
ENDBRANCH  26  27
ENDBRANCH  25  26
ENDBRANCH   4  25
TORSDOF 10
