REMARK  Name = ZINC08720410
REMARK  15 active torsions:
REMARK  status: ('A' for Active; 'I' for Inactive)
REMARK    1  A    between atoms: C_1  and  C_2
REMARK    2  A    between atoms: C_3  and  C_34
REMARK    3  A    between atoms: C_7  and  N_33
REMARK    4  A    between atoms: C_9  and  C_11
REMARK    5  A    between atoms: C_11  and  C_13
REMARK    6  A    between atoms: C_11  and  S_14
REMARK    7  A    between atoms: S_14  and  C_15
REMARK    8  A    between atoms: C_18  and  C_21
REMARK    9  A    between atoms: N_19  and  N_20
REMARK   10  A    between atoms: C_21  and  O_22
REMARK   11  A    between atoms: O_22  and  C_23
REMARK   12  A    between atoms: C_26  and  C_29
REMARK   13  A    between atoms: C_29  and  C_30
REMARK   14  A    between atoms: C_29  and  C_31
REMARK   15  A    between atoms: C_29  and  C_32
REMARK                            x       y       z     vdW  Elec       q    Type
REMARK                         _______ _______ _______ _____ _____    ______ ____
ROOT
ATOM      1  C   UNL     1      -2.172   2.043  -2.788  0.00  0.00    +0.209 A 
ATOM      2  N   UNL     1      -1.349   3.063  -2.725  0.00  0.00    -0.121 NA
ATOM      3  N   UNL     1      -0.534   2.907  -1.743  0.00  0.00    -0.128 NA
ATOM      4  C   UNL     1      -0.787   1.788  -1.125  0.00  0.00    +0.189 A 
ATOM      5  N   UNL     1      -1.836   1.195  -1.772  0.00  0.00    -0.225 N 
ENDROOT
BRANCH   5   6
ATOM      6  N   UNL     1      -2.427   0.003  -1.463  0.00  0.00    -0.295 N 
ATOM      7  H   UNL     1      -3.187   0.134  -0.812  0.00  0.00    +0.163 HD
ATOM      8  H   UNL     1      -2.743  -0.471  -2.296  0.00  0.00    +0.163 HD
ENDBRANCH   5   6
BRANCH   1   9
ATOM      9  S   UNL     1      -3.463   1.808  -3.965  0.00  0.00    -0.074 S 
BRANCH   9  10
ATOM     10  C   UNL     1      -3.268   3.315  -4.949  0.00  0.00    +0.119 C 
ATOM     11  C   UNL     1      -3.582   4.535  -4.081  0.00  0.00    +0.028 C 
BRANCH  10  20
ATOM     12  C   UNL     1      -8.151   2.826  -9.473  0.00  0.00    +0.045 C 
ATOM     13  C   UNL     1      -6.696   3.221  -9.466  0.00  0.00    -0.028 A 
ATOM     14  C   UNL     1      -6.090   3.597 -10.602  0.00  0.00    -0.008 A 
ATOM     15  S   UNL     1      -4.422   3.955 -10.085  0.00  0.00    -0.074 S 
ATOM     16  C   UNL     1      -4.584   3.590  -8.357  0.00  0.00    +0.114 A 
ATOM     17  C   UNL     1      -5.935   3.199  -8.230  0.00  0.00    +0.050 A 
ATOM     18  C   UNL     1      -6.345   2.843  -6.915  0.00  0.00    +0.128 A 
ATOM     19  N   UNL     1      -5.464   2.893  -5.929  0.00  0.00    -0.216 NA
ATOM     20  C   UNL     1      -4.214   3.275  -6.121  0.00  0.00    +0.145 A 
ATOM     21  N   UNL     1      -3.775   3.617  -7.317  0.00  0.00    -0.224 NA
ATOM     22  C   UNL     1      -6.678   3.693 -11.986  0.00  0.00    +0.052 C 
BRANCH  18  23
ATOM     23  N   UNL     1      -7.647   2.444  -6.672  0.00  0.00    -0.343 N 
ATOM     24  H   UNL     1      -7.851   1.907  -5.890  0.00  0.00    +0.144 HD
ATOM     25  H   UNL     1      -8.355   2.700  -7.283  0.00  0.00    +0.144 HD
ENDBRANCH  18  23
ENDBRANCH  10  20
ENDBRANCH   9  10
ENDBRANCH   1   9
BRANCH   4  26
ATOM     26  C   UNL     1      -0.056   1.246   0.075  0.00  0.00    +0.306 C 
BRANCH  26  27
ATOM     27  O   UNL     1      -0.683   1.718   1.269  0.00  0.00    -0.484 OA
BRANCH  27  28
ATOM     28  C   UNL     1      -0.142   1.317   2.450  0.00  0.00    +0.121 A 
ATOM     29  C   UNL     1       0.966   0.483   2.459  0.00  0.00    +0.046 A 
ATOM     30  C   UNL     1       1.518   0.083   3.660  0.00  0.00    +0.008 A 
ATOM     31  C   UNL     1       0.959   0.503   4.853  0.00  0.00    -0.042 A 
ATOM     32  C   UNL     1      -0.149   1.330   4.847  0.00  0.00    +0.008 A 
ATOM     33  C   UNL     1      -0.701   1.738   3.648  0.00  0.00    +0.046 A 
BRANCH  31  34
ATOM     34  C   UNL     1       1.559   0.059   6.163  0.00  0.00    -0.013 C 
ATOM     35  C   UNL     1       0.513  -0.717   6.966  0.00  0.00    +0.015 C 
ATOM     36  C   UNL     1       2.765  -0.842   5.892  0.00  0.00    +0.015 C 
ATOM     37  C   UNL     1       2.007   1.286   6.960  0.00  0.00    +0.015 C 
ENDBRANCH  31  34
ENDBRANCH  27  28
ENDBRANCH  26  27
ENDBRANCH   4  26
TORSDOF 9
