REMARK  Name = ZINC03528562
REMARK  10 active torsions:
REMARK  status: ('A' for Active; 'I' for Inactive)
REMARK    1  A    between atoms: C_1  and  O_2
REMARK    2  A    between atoms: O_2  and  C_3
REMARK    3  A    between atoms: C_3  and  C_4
REMARK    4  A    between atoms: C_4  and  N_5
REMARK    5  A    between atoms: N_5  and  C_6
REMARK    6  A    between atoms: C_7  and  N_22
REMARK    7  A    between atoms: N_8  and  C_15
REMARK    8  A    between atoms: C_15  and  C_16
REMARK    9  A    between atoms: C_23  and  C_25
REMARK   10  A    between atoms: C_25  and  C_26
REMARK                            x       y       z     vdW  Elec       q    Type
REMARK                         _______ _______ _______ _____ _____    ______ ____
ROOT
ATOM      1  C   UNL     1      -4.466   0.490   3.022  0.00  0.00    +0.140 A 
ATOM      2  C   UNL     1      -3.648  -0.176   3.913  0.00  0.00    +0.128 A 
ATOM      3  N   UNL     1      -4.107  -0.432   5.184  0.00  0.00    -0.276 N 
ATOM      4  C   UNL     1      -5.343  -0.047   5.551  0.00  0.00    +0.331 A 
ATOM      5  O   UNL     1      -5.732  -0.287   6.678  0.00  0.00    -0.246 OA
ATOM      6  N   UNL     1      -6.155   0.598   4.696  0.00  0.00    -0.273 N 
ATOM      7  H   UNL     1      -7.162   0.904   5.018  0.00  0.00    +0.173 HD
ATOM      8  C   UNL     1      -5.753   0.878   3.441  0.00  0.00    +0.277 A 
ATOM      9  O   UNL     1      -6.497   1.463   2.673  0.00  0.00    -0.266 OA
ENDROOT
BRANCH   1  10
ATOM     10  N   UNL     1      -4.022   0.771   1.713  0.00  0.00    -0.262 N 
ATOM     11  C   UNL     1      -2.959   1.579   1.520  0.00  0.00    +0.224 C 
ATOM     12  O   UNL     1      -2.437   2.131   2.466  0.00  0.00    -0.275 OA
BRANCH  10  13
ATOM     13  C   UNL     1      -4.715   0.185   0.563  0.00  0.00    +0.142 C 
BRANCH  13  14
ATOM     14  C   UNL     1      -4.069  -1.155   0.206  0.00  0.00    +0.178 C 
BRANCH  14  16
ATOM     15  C   UNL     1      -3.698  -3.370   1.044  0.00  0.00    +0.194 C 
ATOM     16  O   UNL     1      -4.266  -2.079   1.277  0.00  0.00    -0.381 OA
ENDBRANCH  14  16
ENDBRANCH  13  14
ENDBRANCH  10  13
BRANCH  11  17
ATOM     17  C   UNL     1      -2.420   1.796   0.129  0.00  0.00    +0.134 C 
BRANCH  17  18
ATOM     18  C   UNL     1      -1.242   2.733   0.188  0.00  0.00    -0.002 A 
ATOM     19  C   UNL     1      -1.437   4.099   0.080  0.00  0.00    +0.046 A 
ATOM     20  C   UNL     1      -0.354   4.958   0.128  0.00  0.00    +0.020 A 
ATOM     21  C   UNL     1       0.923   4.453   0.289  0.00  0.00    +0.003 A 
ATOM     22  C   UNL     1       1.118   3.089   0.402  0.00  0.00    +0.020 A 
ATOM     23  C   UNL     1       0.036   2.229   0.354  0.00  0.00    +0.046 A 
ATOM     24 CL   UNL     1       0.281   0.516   0.495  0.00  0.00    -0.083 Cl
ATOM     25 CL   UNL     1      -3.040   4.733  -0.122  0.00  0.00    -0.083 Cl
ENDBRANCH  17  18
ENDBRANCH  11  17
ENDBRANCH   1  10
BRANCH   2  26
ATOM     26  N   UNL     1      -2.388  -0.574   3.535  0.00  0.00    -0.343 N 
ATOM     27  H   UNL     1      -1.742  -1.104   4.250  0.00  0.00    +0.144 HD
ATOM     28  H   UNL     1      -2.026  -0.363   2.518  0.00  0.00    +0.144 HD
ENDBRANCH   2  26
BRANCH   3  29
ATOM     29  C   UNL     1      -3.248  -1.133   6.141  0.00  0.00    +0.163 C 
BRANCH  29  30
ATOM     30  C   UNL     1      -3.474  -2.619   6.024  0.00  0.00    -0.028 A 
ATOM     31  C   UNL     1      -4.439  -3.234   6.799  0.00  0.00    +0.005 A 
ATOM     32  C   UNL     1      -4.649  -4.596   6.688  0.00  0.00    +0.000 A 
ATOM     33  C   UNL     1      -3.888  -5.344   5.809  0.00  0.00    +0.000 A 
ATOM     34  C   UNL     1      -2.920  -4.729   5.038  0.00  0.00    +0.000 A 
ATOM     35  C   UNL     1      -2.713  -3.366   5.145  0.00  0.00    +0.005 A 
ENDBRANCH  29  30
ENDBRANCH   3  29
TORSDOF 9
