REMARK  Name = ZINC13148133
REMARK  14 active torsions:
REMARK  status: ('A' for Active; 'I' for Inactive)
REMARK    1  A    between atoms: C_1  and  C_2
REMARK    2  A    between atoms: C_2  and  O_3
REMARK    3  A    between atoms: O_3  and  C_4
REMARK    4  A    between atoms: C_7  and  N_10
REMARK    5  A    between atoms: C_11  and  C_41
REMARK    6  A    between atoms: C_13  and  C_16
REMARK    7  A    between atoms: C_14  and  C_15
REMARK    8  A    between atoms: N_17  and  N_18
REMARK    9  A    between atoms: C_19  and  C_21
REMARK   10  A    between atoms: C_24  and  O_27
REMARK   11  A    between atoms: O_27  and  C_28
REMARK   12  A    between atoms: C_28  and  C_29
REMARK   13  A    between atoms: C_32  and  C_40
REMARK   14  A    between atoms: C_37  and  C_39
REMARK                            x       y       z     vdW  Elec       q    Type
REMARK                         _______ _______ _______ _____ _____    ______ ____
ROOT
ATOM      1  N   UNL     1      -1.450 -11.281   4.498  0.00  0.00    -0.203 N 
ATOM      2  C   UNL     1      -2.065 -10.975   5.657  0.00  0.00    +0.263 C 
ATOM      3  O   UNL     1      -1.813  -9.927   6.220  0.00  0.00    -0.268 OA
ATOM      4  H   UNL     1      -1.650 -12.117   4.048  0.00  0.00    +0.178 HD
ENDROOT
BRANCH   2   5
ATOM      5  C   UNL     1      -3.045 -11.910   6.242  0.00  0.00    +0.039 A 
ATOM      6  C   UNL     1      -3.332 -13.117   5.598  0.00  0.00    +0.016 A 
ATOM      7  C   UNL     1      -4.247 -13.988   6.147  0.00  0.00    +0.046 A 
ATOM      8  C   UNL     1      -4.885 -13.667   7.340  0.00  0.00    +0.121 A 
ATOM      9  C   UNL     1      -4.603 -12.467   7.982  0.00  0.00    +0.046 A 
ATOM     10  C   UNL     1      -3.685 -11.594   7.443  0.00  0.00    +0.016 A 
BRANCH   8  11
ATOM     11  O   UNL     1      -5.786 -14.527   7.878  0.00  0.00    -0.483 OA
BRANCH  11  12
ATOM     12  C   UNL     1      -6.405 -14.135   9.105  0.00  0.00    +0.324 C 
BRANCH  12  13
ATOM     13  C   UNL     1      -7.368 -15.207   9.546  0.00  0.00    +0.254 C 
ATOM     14  O   UNL     1      -7.642 -16.122   8.799  0.00  0.00    -0.272 OA
ATOM     15  N   UNL     1      -7.924 -15.149  10.773  0.00  0.00    -0.293 N 
ATOM     16  C   UNL     1      -8.460 -16.360  11.409  0.00  0.00    +0.073 C 
ATOM     17  C   UNL     1      -9.909 -16.096  11.830  0.00  0.00    +0.022 C 
ATOM     18  C   UNL     1      -9.960 -14.847  12.713  0.00  0.00    +0.004 C 
ATOM     19  C   UNL     1      -9.459 -13.638  11.918  0.00  0.00    +0.022 C 
ATOM     20  C   UNL     1      -8.000 -13.876  11.501  0.00  0.00    +0.073 C 
ATOM     21  C   UNL     1      -7.532 -12.737  10.593  0.00  0.00    +0.028 C 
ATOM     22  C   UNL     1      -8.415 -17.524  10.417  0.00  0.00    +0.028 C 
ENDBRANCH  12  13
ENDBRANCH  11  12
ENDBRANCH   8  11
ENDBRANCH   2   5
BRANCH   1  24
ATOM     23  C   UNL     1       0.074 -10.688   2.826  0.00  0.00    +0.140 C 
ATOM     24  N   UNL     1      -0.519 -10.393   3.942  0.00  0.00    -0.187 NA
BRANCH  23  28
ATOM     25  N   UNL     1       2.357  -8.002   1.908  0.00  0.00    -0.317 N 
ATOM     26  C   UNL     1       2.576  -8.839   0.852  0.00  0.00    +0.022 A 
ATOM     27  C   UNL     1       1.805  -9.933   0.997  0.00  0.00    +0.032 A 
ATOM     28  C   UNL     1       1.053  -9.754   2.241  0.00  0.00    +0.016 A 
ATOM     29  C   UNL     1       1.443  -8.549   2.754  0.00  0.00    +0.030 A 
ATOM     30  C   UNL     1       0.944  -7.931   4.035  0.00  0.00    +0.064 C 
ATOM     31  C   UNL     1       3.525  -8.580  -0.289  0.00  0.00    +0.064 C 
BRANCH  25  35
ATOM     32  C   UNL     1       4.230  -4.317   2.467  0.00  0.00    +0.121 A 
ATOM     33  C   UNL     1       4.977  -5.485   2.490  0.00  0.00    +0.047 A 
ATOM     34  C   UNL     1       4.358  -6.705   2.306  0.00  0.00    +0.030 A 
ATOM     35  C   UNL     1       2.987  -6.763   2.096  0.00  0.00    +0.047 A 
ATOM     36  C   UNL     1       2.239  -5.593   2.073  0.00  0.00    +0.030 A 
ATOM     37  C   UNL     1       2.858  -4.374   2.263  0.00  0.00    +0.047 A 
BRANCH  32  38
ATOM     38  O   UNL     1       4.840  -3.116   2.649  0.00  0.00    -0.492 OA
BRANCH  38  40
ATOM     39  C   UNL     1       6.758  -1.698   3.039  0.00  0.00    +0.048 C 
ATOM     40  C   UNL     1       6.254  -3.131   2.854  0.00  0.00    +0.225 C 
ENDBRANCH  38  40
ENDBRANCH  32  38
ENDBRANCH  25  35
ENDBRANCH  23  28
ENDBRANCH   1  24
TORSDOF 9
