REMARK  Name = ZINC11791010
REMARK  13 active torsions:
REMARK  status: ('A' for Active; 'I' for Inactive)
REMARK    1  A    between atoms: C_1  and  C_2
REMARK    2  A    between atoms: C_2  and  C_3
REMARK    3  A    between atoms: C_3  and  C_18
REMARK    4  A    between atoms: N_6  and  C_10
REMARK    5  A    between atoms: C_10  and  C_11
REMARK    6  A    between atoms: C_11  and  C_12
REMARK    7  A    between atoms: C_13  and  C_17
REMARK    8  A    between atoms: C_23  and  C_24
REMARK    9  A    between atoms: C_23  and  N_72
REMARK   10  A    between atoms: C_25  and  C_26
REMARK   11  A    between atoms: C_29  and  N_32
REMARK   12  A    between atoms: N_32  and  C_33
REMARK   13  A    between atoms: N_32  and  C_34
REMARK                            x       y       z     vdW  Elec       q    Type
REMARK                         _______ _______ _______ _____ _____    ______ ____
ROOT
ATOM      1  C   UNL     1       2.014   1.938  -1.265  0.00  0.00    +0.018 C 
ATOM      2  C   UNL     1       3.202   2.904  -1.256  0.00  0.00    -0.013 C 
ATOM      3  C   UNL     1       3.996   2.741  -2.554  0.00  0.00    -0.078 C 
ATOM      4  C   UNL     1       2.003   2.071  -3.758  0.00  0.00    -0.078 C 
ATOM      5  C   UNL     1       1.148   2.216  -2.497  0.00  0.00    -0.013 C 
ATOM      6  N   UNL     1       3.113   3.046  -3.700  0.00  0.00    +0.382 N 
ATOM      7  H   UNL     1       2.723   3.988  -3.578  0.00  0.00    -0.081 HD
ENDROOT
BRANCH   1   8
ATOM      8  C   UNL     1       1.181   2.140   0.002  0.00  0.00    +0.115 C 
ATOM      9  C   UNL     1      -0.014   1.208   0.009  0.00  0.00    +0.247 C 
ATOM     10  O   UNL     1       0.002  -0.004   0.002  0.00  0.00    -0.273 OA
ATOM     11  N   UNL     1      -1.099   2.007   0.017  0.00  0.00    -0.224 N 
ATOM     12  C   UNL     1      -0.759   3.301   0.026  0.00  0.00    +0.309 C 
ATOM     13  O   UNL     1      -1.564   4.212   0.038  0.00  0.00    -0.252 OA
ATOM     14  N   UNL     1       0.574   3.482   0.015  0.00  0.00    -0.285 N 
ATOM     15  H   UNL     1       1.044   4.331   0.014  0.00  0.00    +0.151 HD
BRANCH   8  17
ATOM     16  C   UNL     1       1.198   2.182   2.500  0.00  0.00    +0.006 C 
ATOM     17  C   UNL     1       2.040   1.923   1.250  0.00  0.00    +0.032 C 
ENDBRANCH   8  17
BRANCH  11  18
ATOM     18  C   UNL     1      -2.481   1.520   0.020  0.00  0.00    +0.123 C 
BRANCH  18  19
ATOM     19  C   UNL     1      -2.956   1.342   1.463  0.00  0.00    +0.064 C 
BRANCH  19  20
ATOM     20  C   UNL     1      -4.377   0.840   1.466  0.00  0.00    +0.014 A 
ATOM     21  C   UNL     1      -4.847  -0.433   1.461  0.00  0.00    +0.049 A 
ATOM     22  N   UNL     1      -6.151  -0.619   1.465  0.00  0.00    -0.252 NA
ATOM     23  C   UNL     1      -6.987   0.393   1.474  0.00  0.00    +0.156 A 
ATOM     24  S   UNL     1      -5.911   1.757   1.485  0.00  0.00    -0.080 S 
ATOM     25  C   UNL     1      -3.901  -1.605   1.451  0.00  0.00    +0.066 C 
ENDBRANCH  19  20
ENDBRANCH  18  19
ENDBRANCH  11  18
ENDBRANCH   1   8
BRANCH   6  26
ATOM     26  C   UNL     1       3.886   3.006  -4.958  0.00  0.00    -0.051 C 
BRANCH  26  27
ATOM     27  C   UNL     1       5.158   3.794  -4.781  0.00  0.00    -0.045 C 
ATOM     28  C   UNL     1       6.329   3.233  -5.049  0.00  0.00    +0.002 C 
BRANCH  28  29
ATOM     29  C   UNL     1       7.576   4.006  -4.876  0.00  0.00    -0.025 A 
ATOM     30  C   UNL     1       7.523   5.330  -4.435  0.00  0.00    +0.010 A 
ATOM     31  C   UNL     1       8.688   6.047  -4.270  0.00  0.00    +0.023 A 
ATOM     32  C   UNL     1       9.915   5.457  -4.552  0.00  0.00    +0.029 A 
ATOM     33  C   UNL     1       9.971   4.141  -4.996  0.00  0.00    +0.023 A 
ATOM     34  C   UNL     1       8.810   3.417  -5.158  0.00  0.00    +0.010 A 
BRANCH  32  35
ATOM     35  N   UNL     1      11.093   6.188  -4.389  0.00  0.00    -0.336 N 
ATOM     36  C   UNL     1      12.386   5.568  -4.686  0.00  0.00    +0.129 C 
ATOM     37  C   UNL     1      11.035   7.575  -3.921  0.00  0.00    +0.129 C 
ENDBRANCH  32  35
ENDBRANCH  28  29
ENDBRANCH  26  27
ENDBRANCH   6  26
TORSDOF 9
