REMARK  Name = ZINC60371871
REMARK  5 active torsions:
REMARK  status: ('A' for Active; 'I' for Inactive)
REMARK    1  A    between atoms: C_1  and  C_2
REMARK    2  A    between atoms: C_5  and  N_9
REMARK    3  A    between atoms: C_7  and  C_8
REMARK    4  A    between atoms: C_12  and  C_16
REMARK    5  A    between atoms: N_18  and  C_19
REMARK                            x       y       z     vdW  Elec       q    Type
REMARK                         _______ _______ _______ _____ _____    ______ ____
ROOT
ATOM      1  C   UNL     1      -0.762  -7.177   1.621  0.00  0.00    +0.229 C 
ATOM      2  O   UNL     1      -1.752  -7.721   1.177  0.00  0.00    -0.275 OA
ATOM      3  N   UNL     1      -0.466  -7.281   2.932  0.00  0.00    -0.284 N 
ATOM      4  H   UNL     1       0.293  -6.801   3.297  0.00  0.00    +0.155 HD
ENDROOT
BRANCH   3   5
ATOM      5  C   UNL     1      -1.255  -8.083   3.766  0.00  0.00    +0.055 A 
ATOM      6  C   UNL     1      -2.580  -8.336   3.435  0.00  0.00    +0.072 A 
ATOM      7  C   UNL     1      -3.357  -9.128   4.261  0.00  0.00    +0.144 A 
ATOM      8  C   UNL     1      -2.808  -9.671   5.422  0.00  0.00    +0.077 A 
ATOM      9  C   UNL     1      -1.487  -9.418   5.750  0.00  0.00    +0.048 A 
ATOM     10  C   UNL     1      -0.709  -8.630   4.921  0.00  0.00    +0.064 A 
ATOM     11 CL   UNL     1       0.950  -8.318   5.327  0.00  0.00    -0.082 Cl
ATOM     12  N   UNL     1      -3.611 -10.472   6.250  0.00  0.00    -0.280 N 
ATOM     13  C   UNL     1      -4.773 -10.958   5.762  0.00  0.00    +0.255 C 
ATOM     14  O   UNL     1      -5.497 -11.627   6.469  0.00  0.00    -0.272 OA
ATOM     15  C   UNL     1      -5.167 -10.665   4.337  0.00  0.00    +0.325 C 
ATOM     16  O   UNL     1      -4.656  -9.386   3.950  0.00  0.00    -0.481 OA
ATOM     17  H   UNL     1      -3.335 -10.674   7.157  0.00  0.00    +0.155 HD
ENDBRANCH   3   5
BRANCH   1  21
ATOM     18  N   UNL     1       0.003  -4.161  -0.021  0.00  0.00    -0.271 N 
ATOM     19  C   UNL     1      -0.063  -4.987  -1.232  0.00  0.00    +0.115 C 
ATOM     20  C   UNL     1      -0.406  -6.411  -0.742  0.00  0.00    +0.041 C 
ATOM     21  C   UNL     1       0.137  -6.386   0.706  0.00  0.00    +0.163 C 
ATOM     22  C   UNL     1       0.127  -4.920   1.081  0.00  0.00    +0.232 C 
ATOM     23  O   UNL     1       0.216  -4.492   2.213  0.00  0.00    -0.274 OA
BRANCH  18  28
ATOM     24  C   UNL     1      -0.209   1.508   0.002  0.00  0.00    +0.044 C 
ATOM     25  C   UNL     1      -0.153   0.002  -0.004  0.00  0.00    -0.047 A 
ATOM     26  C   UNL     1      -0.139  -0.693   1.191  0.00  0.00    +0.005 A 
ATOM     27  C   UNL     1      -0.087  -2.073   1.189  0.00  0.00    +0.024 A 
ATOM     28  C   UNL     1      -0.050  -2.763  -0.016  0.00  0.00    +0.037 A 
ATOM     29  C   UNL     1      -0.064  -2.062  -1.214  0.00  0.00    +0.027 A 
ATOM     30  C   UNL     1      -0.121  -0.682  -1.205  0.00  0.00    -0.046 A 
ATOM     31  C   UNL     1      -0.142   0.079  -2.506  0.00  0.00    +0.044 C 
ENDBRANCH  18  28
ENDBRANCH   1  21
TORSDOF 3
