REMARK  Name = ZINC16401756
REMARK  7 active torsions:
REMARK  status: ('A' for Active; 'I' for Inactive)
REMARK    1  A    between atoms: C_1  and  C_2
REMARK    2  A    between atoms: C_2  and  C_28
REMARK    3  A    between atoms: N_5  and  C_9
REMARK    4  A    between atoms: C_9  and  C_10
REMARK    5  A    between atoms: N_12  and  C_13
REMARK    6  A    between atoms: C_13  and  C_15
REMARK    7  A    between atoms: C_13  and  C_21
REMARK                            x       y       z     vdW  Elec       q    Type
REMARK                         _______ _______ _______ _____ _____    ______ ____
ROOT
ATOM      1  C   UNL     1       4.636   3.889  -1.470  0.00  0.00    +0.232 C 
ATOM      2  O   UNL     1       5.731   3.413  -1.252  0.00  0.00    -0.274 OA
ATOM      3  N   UNL     1       3.541   3.347  -0.902  0.00  0.00    -0.303 N 
ATOM      4  H   UNL     1       2.666   3.727  -1.077  0.00  0.00    +0.150 HD
ENDROOT
BRANCH   1   5
ATOM      5  C   UNL     1       4.502   5.086  -2.375  0.00  0.00    +0.213 C 
BRANCH   5  10
ATOM      6  C   UNL     1       7.825   6.537  -5.361  0.00  0.00    +0.050 C 
ATOM      7  C   UNL     1       7.741   5.691  -4.089  0.00  0.00    +0.168 C 
ATOM      8  C   UNL     1       6.391   5.009  -3.990  0.00  0.00    +0.254 C 
ATOM      9  O   UNL     1       5.918   4.206  -4.765  0.00  0.00    -0.272 OA
ATOM     10  N   UNL     1       5.826   5.482  -2.861  0.00  0.00    -0.215 N 
ATOM     11  C   UNL     1       6.621   6.362  -2.242  0.00  0.00    +0.310 C 
ATOM     12  O   UNL     1       6.327   6.927  -1.207  0.00  0.00    -0.252 OA
ATOM     13  N   UNL     1       7.784   6.549  -2.892  0.00  0.00    -0.279 N 
ATOM     14  H   UNL     1       8.508   7.137  -2.627  0.00  0.00    +0.152 HD
BRANCH   7  15
ATOM     15  C   UNL     1       8.852   4.673  -4.056  0.00  0.00    +0.137 A 
ATOM     16  C   UNL     1      10.090   4.875  -3.569  0.00  0.00    +0.047 A 
ATOM     17  C   UNL     1      10.799   3.664  -3.738  0.00  0.00    +0.041 A 
ATOM     18  C   UNL     1       9.953   2.794  -4.318  0.00  0.00    +0.195 A 
ATOM     19  O   UNL     1       8.773   3.409  -4.503  0.00  0.00    -0.465 OA
ENDBRANCH   7  15
ENDBRANCH   5  10
ENDBRANCH   1   5
BRANCH   3  20
ATOM     20  C   UNL     1       3.672   2.183  -0.022  0.00  0.00    +0.134 C 
BRANCH  20  21
ATOM     21  C   UNL     1       2.377   1.411  -0.013  0.00  0.00    -0.023 A 
ATOM     22  C   UNL     1       1.171   2.086   0.002  0.00  0.00    +0.007 A 
ATOM     23  C   UNL     1      -0.017   1.379   0.010  0.00  0.00    +0.020 A 
ATOM     24  C   UNL     1       0.002  -0.004   0.002  0.00  0.00    +0.041 A 
ATOM     25  C   UNL     1       1.210  -0.679  -0.013  0.00  0.00    +0.020 A 
ATOM     26  C   UNL     1       2.397   0.029  -0.021  0.00  0.00    +0.007 A 
ATOM     27 CL   UNL     1      -1.489  -0.893   0.012  0.00  0.00    -0.084 Cl
ENDBRANCH  20  21
BRANCH  20  28
ATOM     28  C   UNL     1       3.991   2.645   1.377  0.00  0.00    -0.023 A 
ATOM     29  C   UNL     1       3.371   3.768   1.892  0.00  0.00    +0.006 A 
ATOM     30  C   UNL     1       3.660   4.188   3.177  0.00  0.00    +0.000 A 
ATOM     31  C   UNL     1       4.577   3.492   3.942  0.00  0.00    +0.000 A 
ATOM     32  C   UNL     1       5.200   2.372   3.425  0.00  0.00    +0.000 A 
ATOM     33  C   UNL     1       4.907   1.948   2.142  0.00  0.00    +0.006 A 
ENDBRANCH  20  28
ENDBRANCH   3  20
TORSDOF 6
