REMARK  Name = ZINC00880409
REMARK  7 active torsions:
REMARK  status: ('A' for Active; 'I' for Inactive)
REMARK    1  A    between atoms: C_1  and  C_2
REMARK    2  A    between atoms: C_5  and  C_35
REMARK    3  A    between atoms: C_9  and  C_14
REMARK    4  A    between atoms: C_14  and  N_15
REMARK    5  A    between atoms: N_15  and  C_16
REMARK    6  A    between atoms: C_16  and  C_17
REMARK    7  A    between atoms: N_28  and  C_29
REMARK                            x       y       z     vdW  Elec       q    Type
REMARK                         _______ _______ _______ _____ _____    ______ ____
ROOT
ATOM      1  N   UNL     1      -1.198  -2.189   0.224  0.00  0.00    -0.277 N 
ATOM      2  C   UNL     1      -1.380  -0.895  -0.106  0.00  0.00    +0.307 C 
ATOM      3  O   UNL     1      -2.502  -0.428  -0.136  0.00  0.00    -0.252 OA
ATOM      4  N   UNL     1      -0.319  -0.119  -0.404  0.00  0.00    -0.269 N 
ATOM      5  H   UNL     1       0.575  -0.497  -0.398  0.00  0.00    +0.156 HD
ENDROOT
BRANCH   4   6
ATOM      6  C   UNL     1      -0.506   1.230  -0.722  0.00  0.00    +0.035 A 
ATOM      7  C   UNL     1      -1.666   1.639  -1.367  0.00  0.00    +0.023 A 
ATOM      8  C   UNL     1      -1.851   2.973  -1.675  0.00  0.00    +0.002 A 
ATOM      9  C   UNL     1      -0.877   3.899  -1.351  0.00  0.00    +0.000 A 
ATOM     10  C   UNL     1       0.282   3.495  -0.715  0.00  0.00    +0.002 A 
ATOM     11  C   UNL     1       0.470   2.163  -0.399  0.00  0.00    +0.023 A 
ENDBRANCH   4   6
BRANCH   1  12
ATOM     12  C   UNL     1       0.157  -2.742   0.299  0.00  0.00    +0.150 C 
BRANCH  12  21
ATOM     13  C   UNL     1       0.040  -6.264   4.133  0.00  0.00    +0.044 C 
ATOM     14  C   UNL     1       0.694  -5.024   4.684  0.00  0.00    -0.041 A 
ATOM     15  C   UNL     1       1.123  -4.993   5.981  0.00  0.00    +0.004 A 
ATOM     16  C   UNL     1       1.726  -3.856   6.499  0.00  0.00    +0.005 A 
ATOM     17  C   UNL     1       1.904  -2.735   5.716  0.00  0.00    -0.026 A 
ATOM     18  C   UNL     1       1.475  -2.743   4.393  0.00  0.00    +0.052 A 
ATOM     19  C   UNL     1       0.864  -3.898   3.871  0.00  0.00    +0.002 A 
ATOM     20  C   UNL     1       0.415  -3.896   2.478  0.00  0.00    +0.020 A 
ATOM     21  C   UNL     1       0.607  -2.777   1.737  0.00  0.00    +0.035 A 
ATOM     22  C   UNL     1       1.230  -1.646   2.307  0.00  0.00    +0.254 A 
ATOM     23  O   UNL     1       1.397  -0.651   1.622  0.00  0.00    -0.268 OA
ATOM     24  N   UNL     1       1.641  -1.636   3.587  0.00  0.00    -0.322 N 
ATOM     25  H   UNL     1       2.063  -0.841   3.948  0.00  0.00    +0.169 HD
ATOM     26  C   UNL     1       2.561  -1.507   6.291  0.00  0.00    +0.046 C 
ENDBRANCH  12  21
ENDBRANCH   1  12
BRANCH   1  27
ATOM     27  C   UNL     1      -2.354  -3.043   0.508  0.00  0.00    +0.145 C 
BRANCH  27  28
ATOM     28  C   UNL     1      -2.821  -3.696  -0.767  0.00  0.00    -0.026 A 
ATOM     29  C   UNL     1      -3.773  -3.072  -1.552  0.00  0.00    +0.009 A 
ATOM     30  C   UNL     1      -4.201  -3.665  -2.726  0.00  0.00    +0.050 A 
ATOM     31  C   UNL     1      -3.685  -4.892  -3.111  0.00  0.00    +0.166 A 
ATOM     32  C   UNL     1      -2.730  -5.522  -2.317  0.00  0.00    +0.167 A 
ATOM     33  C   UNL     1      -2.302  -4.920  -1.145  0.00  0.00    +0.054 A 
ATOM     34  O   UNL     1      -2.385  -6.704  -2.906  0.00  0.00    -0.453 OA
ATOM     35  C   UNL     1      -3.432  -6.982  -3.854  0.00  0.00    +0.466 C 
ATOM     36  O   UNL     1      -3.937  -5.679  -4.198  0.00  0.00    -0.453 OA
ENDBRANCH  27  28
ENDBRANCH   1  27
TORSDOF 5
