REMARK  Name = ZINC04125688
REMARK  8 active torsions:
REMARK  status: ('A' for Active; 'I' for Inactive)
REMARK    1  A    between atoms: C_1  and  C_2
REMARK    2  A    between atoms: C_2  and  C_3
REMARK    3  A    between atoms: C_3  and  O_4
REMARK    4  A    between atoms: O_4  and  C_5
REMARK    5  A    between atoms: C_8  and  C_11
REMARK    6  A    between atoms: C_14  and  C_25
REMARK    7  A    between atoms: C_20  and  N_24
REMARK    8  A    between atoms: C_21  and  C_22
REMARK                            x       y       z     vdW  Elec       q    Type
REMARK                         _______ _______ _______ _____ _____    ______ ____
ROOT
ATOM      1  C   UNL     1      -6.397  -4.588   0.038  0.00  0.00    +0.102 C 
ATOM      2  C   UNL     1      -6.519  -5.462  -1.183  0.00  0.00    +0.054 A 
ATOM      3  C   UNL     1      -6.710  -5.095  -2.518  0.00  0.00    +0.100 A 
ATOM      4  N   UNL     1      -6.755  -6.199  -3.240  0.00  0.00    -0.171 NA
ATOM      5  N   UNL     1      -6.594  -7.296  -2.380  0.00  0.00    -0.246 N 
ATOM      6  H   UNL     1      -6.586  -8.230  -2.643  0.00  0.00    +0.192 HD
ATOM      7  C   UNL     1      -6.452  -6.824  -1.124  0.00  0.00    +0.223 A 
ATOM      8  O   UNL     1      -6.273  -7.499   0.038  0.00  0.00    -0.423 OA
ATOM      9  C   UNL     1      -6.434  -6.815   1.189  0.00  0.00    +0.200 C 
ATOM     10  C   UNL     1      -6.502  -5.466   1.260  0.00  0.00    +0.098 C 
ENDROOT
BRANCH   3  11
ATOM     11  C   UNL     1      -6.840  -3.709  -3.033  0.00  0.00    +0.006 A 
ATOM     12  C   UNL     1      -7.477  -2.737  -2.266  0.00  0.00    +0.014 A 
ATOM     13  C   UNL     1      -7.596  -1.448  -2.745  0.00  0.00    +0.050 A 
ATOM     14  C   UNL     1      -7.084  -1.117  -3.990  0.00  0.00    +0.166 A 
ATOM     15  C   UNL     1      -6.446  -2.086  -4.762  0.00  0.00    +0.167 A 
ATOM     16  C   UNL     1      -6.319  -3.378  -4.282  0.00  0.00    +0.059 A 
ATOM     17  O   UNL     1      -6.036  -1.512  -5.931  0.00  0.00    -0.453 OA
ATOM     18  C   UNL     1      -6.787  -0.289  -6.043  0.00  0.00    +0.466 C 
ATOM     19  O   UNL     1      -7.073   0.063  -4.677  0.00  0.00    -0.453 OA
ENDBRANCH   3  11
BRANCH   1  23
ATOM     20  C   UNL     1      -2.616  -2.596   0.013  0.00  0.00    +0.121 A 
ATOM     21  C   UNL     1      -3.791  -1.857   0.022  0.00  0.00    +0.046 A 
ATOM     22  C   UNL     1      -5.012  -2.504   0.030  0.00  0.00    +0.008 A 
ATOM     23  C   UNL     1      -5.064  -3.885   0.029  0.00  0.00    -0.034 A 
ATOM     24  C   UNL     1      -3.895  -4.624   0.020  0.00  0.00    +0.008 A 
ATOM     25  C   UNL     1      -2.671  -3.982   0.006  0.00  0.00    +0.046 A 
BRANCH  20  26
ATOM     26  O   UNL     1      -1.414  -1.962   0.005  0.00  0.00    -0.492 OA
BRANCH  26  27
ATOM     27  C   UNL     1      -1.433  -0.534   0.013  0.00  0.00    +0.229 C 
BRANCH  27  29
ATOM     28  C   UNL     1      -0.019   1.526   0.010  0.00  0.00    +0.007 C 
ATOM     29  C   UNL     1       0.002  -0.004   0.002  0.00  0.00    +0.038 C 
ENDBRANCH  27  29
ENDBRANCH  26  27
ENDBRANCH  20  26
ENDBRANCH   1  23
BRANCH   9  30
ATOM     30  N   UNL     1      -6.536  -7.529   2.357  0.00  0.00    -0.328 N 
ATOM     31  H   UNL     1      -6.491  -8.498   2.339  0.00  0.00    +0.145 HD
ATOM     32  H   UNL     1      -6.652  -7.064   3.201  0.00  0.00    +0.145 HD
ENDBRANCH   9  30
BRANCH  10  33
ATOM     33  C   UNL     1      -6.679  -4.849   2.540  0.00  0.00    +0.101 C 
ATOM     34  N   UNL     1      -6.819  -4.359   3.555  0.00  0.00    -0.191 NA
ENDBRANCH  10  33
TORSDOF 7
