REMARK  Name = ZINC19742542
REMARK  13 active torsions:
REMARK  status: ('A' for Active; 'I' for Inactive)
REMARK    1  A    between atoms: C_1  and  O_2
REMARK    2  A    between atoms: O_2  and  C_3
REMARK    3  A    between atoms: C_3  and  C_5
REMARK    4  A    between atoms: N_7  and  C_10
REMARK    5  A    between atoms: C_13  and  C_28
REMARK    6  A    between atoms: N_15  and  C_17
REMARK    7  A    between atoms: C_17  and  C_18
REMARK    8  A    between atoms: C_23  and  O_24
REMARK    9  A    between atoms: O_24  and  C_25
REMARK   10  A    between atoms: C_25  and  C_26
REMARK   11  A    between atoms: N_30  and  C_31
REMARK   12  A    between atoms: C_31  and  C_32
REMARK   13  A    between atoms: C_32  and  C_33
REMARK                            x       y       z     vdW  Elec       q    Type
REMARK                         _______ _______ _______ _____ _____    ______ ____
ROOT
ATOM      1  C   UNL     1       4.586   2.029   2.874  0.00  0.00    +0.091 C 
ATOM      2  C   UNL     1       4.992   0.555   2.668  0.00  0.00    +0.019 C 
ATOM      3  C   UNL     1       4.215   0.096   1.416  0.00  0.00    +0.022 C 
ATOM      4  N   UNL     1       3.047   1.011   1.344  0.00  0.00    +0.391 N 
ATOM      5  C   UNL     1       3.598   2.336   1.728  0.00  0.00    -0.050 C 
ATOM      6  H   UNL     1       2.216   0.692   1.990  0.00  0.00    -0.080 HD
ENDROOT
BRANCH   1   9
ATOM      7  C   UNL     1       2.451   2.277   5.772  0.00  0.00    +0.189 A 
ATOM      8  C   UNL     1       2.624   2.002   4.444  0.00  0.00    +0.145 A 
ATOM      9  N   UNL     1       3.929   2.200   4.172  0.00  0.00    -0.250 N 
ATOM     10  N   UNL     1       4.539   2.595   5.371  0.00  0.00    -0.065 NA
ATOM     11  N   UNL     1       3.638   2.636   6.290  0.00  0.00    -0.123 NA
BRANCH   7  12
ATOM     12  C   UNL     1       1.178   2.194   6.510  0.00  0.00    +0.361 C 
ATOM     13  O   UNL     1       0.163   1.856   5.934  0.00  0.00    -0.243 OA
BRANCH  12  15
ATOM     14  C   UNL     1      -0.148   2.389   8.486  0.00  0.00    +0.280 C 
ATOM     15  O   UNL     1       1.140   2.493   7.823  0.00  0.00    -0.463 OA
ENDBRANCH  12  15
ENDBRANCH   7  12
ENDBRANCH   1   9
BRANCH   3  16
ATOM     16  C   UNL     1       3.755  -1.331   1.577  0.00  0.00    +0.200 C 
ATOM     17  O   UNL     1       2.570  -1.584   1.629  0.00  0.00    -0.278 OA
ATOM     18  N   UNL     1       4.661  -2.325   1.664  0.00  0.00    -0.316 N 
ATOM     19  H   UNL     1       5.736  -2.095   1.617  0.00  0.00    +0.149 HD
BRANCH  18  20
ATOM     20  C   UNL     1       4.214  -3.711   1.820  0.00  0.00    +0.109 C 
BRANCH  20  21
ATOM     21  C   UNL     1       5.432  -4.635   1.893  0.00  0.00    +0.054 C 
BRANCH  21  22
ATOM     22  C   UNL     1       4.973  -6.061   2.054  0.00  0.00    -0.046 A 
ATOM     23  C   UNL     1       4.792  -6.590   3.318  0.00  0.00    +0.004 A 
ATOM     24  C   UNL     1       4.366  -7.897   3.465  0.00  0.00    +0.000 A 
ATOM     25  C   UNL     1       4.130  -8.677   2.349  0.00  0.00    +0.000 A 
ATOM     26  C   UNL     1       4.315  -8.149   1.085  0.00  0.00    +0.000 A 
ATOM     27  C   UNL     1       4.737  -6.841   0.937  0.00  0.00    +0.004 A 
ENDBRANCH  21  22
ENDBRANCH  20  21
ENDBRANCH  18  20
ENDBRANCH   3  16
BRANCH   4  28
ATOM     28  C   UNL     1       2.490   1.047  -0.015  0.00  0.00    -0.038 C 
BRANCH  28  29
ATOM     29  C   UNL     1       1.175   1.782   0.000  0.00  0.00    -0.022 A 
ATOM     30  C   UNL     1      -0.013   1.076   0.008  0.00  0.00    +0.005 A 
ATOM     31  C   UNL     1      -1.219   1.750   0.017  0.00  0.00    +0.000 A 
ATOM     32  C   UNL     1      -1.242   3.133   0.030  0.00  0.00    +0.004 A 
ATOM     33  C   UNL     1      -0.057   3.844   0.022  0.00  0.00    +0.046 A 
ATOM     34  C   UNL     1       1.155   3.169   0.008  0.00  0.00    +0.122 A 
BRANCH  34  35
ATOM     35  O   UNL     1       2.322   3.866  -0.000  0.00  0.00    -0.488 OA
BRANCH  35  36
ATOM     36  C   UNL     1       2.226   5.292   0.008  0.00  0.00    +0.256 C 
BRANCH  36  37
ATOM     37  C   UNL     1       3.609   5.889  -0.003  0.00  0.00    +0.006 C 
ATOM     38  C   UNL     1       3.885   6.889  -0.802  0.00  0.00    +0.007 C 
ENDBRANCH  36  37
ENDBRANCH  35  36
ENDBRANCH  34  35
ENDBRANCH  28  29
ENDBRANCH   4  28
TORSDOF 12
