REMARK  Name = ZINC20154364
REMARK  6 active torsions:
REMARK  status: ('A' for Active; 'I' for Inactive)
REMARK    1  A    between atoms: C_4  and  N_27
REMARK    2  A    between atoms: C_6  and  C_7
REMARK    3  A    between atoms: C_8  and  C_9
REMARK    4  A    between atoms: N_11  and  C_12
REMARK    5  A    between atoms: C_15  and  N_21
REMARK    6  A    between atoms: C_16  and  N_18
REMARK                            x       y       z     vdW  Elec       q    Type
REMARK                         _______ _______ _______ _____ _____    ______ ____
ROOT
ATOM      1  C   UNL     1       1.099   2.162  -0.056  0.00  0.00    +0.036 A 
ATOM      2  C   UNL     1       2.348   1.556  -0.089  0.00  0.00    +0.025 A 
ATOM      3  C   UNL     1       3.489   2.331  -0.152  0.00  0.00    +0.027 A 
ATOM      4  C   UNL     1       3.388   3.716  -0.172  0.00  0.00    +0.060 A 
ATOM      5  C   UNL     1       2.139   4.322  -0.134  0.00  0.00    +0.149 A 
ATOM      6  C   UNL     1       0.997   3.547  -0.076  0.00  0.00    +0.058 A 
ENDROOT
BRANCH   4   7
ATOM      7  N   UNL     1       4.544   4.501  -0.231  0.00  0.00    -0.332 N 
ATOM      8  C   UNL     1       5.417   4.240   0.922  0.00  0.00    +0.086 C 
ATOM      9  C   UNL     1       6.629   5.173   0.863  0.00  0.00    -0.063 C 
ATOM     10  N   UNL     1       7.350   4.956  -0.399  0.00  0.00    +0.381 N 
ATOM     11  C   UNL     1       6.477   5.217  -1.552  0.00  0.00    -0.063 C 
ATOM     12  C   UNL     1       5.265   4.284  -1.493  0.00  0.00    +0.086 C 
ATOM     13  H   UNL     1       8.214   5.634  -0.449  0.00  0.00    -0.086 HD
ATOM     14  H   UNL     1       7.698   3.913  -0.447  0.00  0.00    -0.086 HD
ENDBRANCH   4   7
BRANCH   1  17
ATOM     15  C   UNL     1      -1.177   1.774  -0.636  0.00  0.00    +0.241 C 
ATOM     16  O   UNL     1      -1.207   2.856  -1.194  0.00  0.00    -0.270 OA
ATOM     17  N   UNL     1      -0.059   1.376   0.003  0.00  0.00    -0.282 N 
ATOM     18  H   UNL     1      -0.056   0.434   0.571  0.00  0.00    +0.155 HD
BRANCH  15  20
ATOM     19  C   UNL     1      -3.473   1.303  -1.300  0.00  0.00    +0.013 C 
ATOM     20  C   UNL     1      -2.354   0.905  -0.660  0.00  0.00    +0.068 C 
BRANCH  19  26
ATOM     21  C   UNL     1      -4.626  -0.813  -0.685  0.00  0.00    +0.009 A 
ATOM     22  C   UNL     1      -5.739  -1.626  -0.711  0.00  0.00    +0.023 A 
ATOM     23  C   UNL     1      -6.887  -1.214  -1.369  0.00  0.00    +0.071 A 
ATOM     24  C   UNL     1      -6.924   0.017  -2.005  0.00  0.00    +0.145 A 
ATOM     25  C   UNL     1      -5.821   0.842  -1.982  0.00  0.00    +0.042 A 
ATOM     26  C   UNL     1      -4.657   0.430  -1.325  0.00  0.00    -0.023 A 
ATOM     27 CL   UNL     1      -8.284  -2.244  -1.397  0.00  0.00    -0.081 Cl
BRANCH  24  28
ATOM     28  N   UNL     1      -8.155   0.448  -2.706  0.00  0.00    +0.058 N 
ATOM     29  O   UNL     1      -8.189   1.530  -3.266  0.00  0.00    -0.126 OA
ATOM     30  O   UNL     1      -9.132  -0.278  -2.724  0.00  0.00    -0.126 OA
ENDBRANCH  24  28
ENDBRANCH  19  26
ENDBRANCH  15  20
ENDBRANCH   1  17
BRANCH   5  31
ATOM     31  N   UNL     1       2.031   5.798  -0.156  0.00  0.00    +0.058 N 
ATOM     32  O   UNL     1       0.943   6.331  -0.026  0.00  0.00    -0.126 OA
ATOM     33  O   UNL     1       3.029   6.479  -0.304  0.00  0.00    -0.126 OA
ENDBRANCH   5  31
TORSDOF 6
