REMARK  Name = ZINC12498001
REMARK  7 active torsions:
REMARK  status: ('A' for Active; 'I' for Inactive)
REMARK    1  A    between atoms: C_1  and  C_2
REMARK    2  A    between atoms: C_7  and  C_8
REMARK    3  A    between atoms: N_16  and  C_19
REMARK    4  A    between atoms: C_29  and  C_30
REMARK    5  A    between atoms: C_29  and  C_36
REMARK    6  A    between atoms: C_36  and  O_38
REMARK    7  A    between atoms: O_38  and  C_39
REMARK                            x       y       z     vdW  Elec       q    Type
REMARK                         _______ _______ _______ _____ _____    ______ ____
ROOT
ATOM      1  C   UNL     1      -3.001   4.559   2.322  0.00  0.00    -0.026 C 
ATOM      2  C   UNL     1      -3.171   3.094   2.155  0.00  0.00    +0.078 C 
ATOM      3  C   UNL     1      -3.640   3.011   0.648  0.00  0.00    +0.090 C 
ATOM      4  C   UNL     1      -3.747   1.537   0.558  0.00  0.00    +0.229 C 
ATOM      5  O   UNL     1      -3.487   0.838  -0.397  0.00  0.00    -0.275 OA
ATOM      6  N   UNL     1      -4.201   1.132   1.786  0.00  0.00    -0.210 N 
ATOM      7  C   UNL     1      -4.072   2.107   2.743  0.00  0.00    +0.229 C 
ATOM      8  O   UNL     1      -4.592   2.142   3.838  0.00  0.00    -0.275 OA
ATOM      9  C   UNL     1      -2.553   3.869   0.045  0.00  0.00    +0.070 C 
ATOM     10  N   UNL     1      -2.505   5.022   0.994  0.00  0.00    +0.398 N 
ATOM     11  H   UNL     1      -1.539   5.359   1.082  0.00  0.00    -0.083 HD
ATOM     12  H   UNL     1      -3.102   5.782   0.646  0.00  0.00    -0.083 HD
ENDROOT
BRANCH   6  13
ATOM     13  C   UNL     1      -4.739  -0.140   2.037  0.00  0.00    +0.048 A 
ATOM     14  C   UNL     1      -4.834  -1.068   1.010  0.00  0.00    +0.028 A 
ATOM     15  C   UNL     1      -5.364  -2.320   1.255  0.00  0.00    +0.051 A 
ATOM     16  C   UNL     1      -5.804  -2.652   2.528  0.00  0.00    +0.162 A 
ATOM     17  C   UNL     1      -5.708  -1.725   3.559  0.00  0.00    +0.164 A 
ATOM     18  C   UNL     1      -5.171  -0.471   3.313  0.00  0.00    +0.073 A 
ATOM     19  O   UNL     1      -6.128  -2.035   4.816  0.00  0.00    -0.485 OA
ATOM     20  C   UNL     1      -6.999  -3.164   4.944  0.00  0.00    +0.270 C 
ATOM     21  C   UNL     1      -6.417  -4.316   4.114  0.00  0.00    +0.270 C 
ATOM     22  O   UNL     1      -6.331  -3.888   2.750  0.00  0.00    -0.485 OA
ENDBRANCH   6  13
BRANCH   1  29
ATOM     23  C   UNL     1      -3.923   4.657   5.058  0.00  0.00    +0.044 C 
ATOM     24  C   UNL     1      -4.763   5.255   3.958  0.00  0.00    -0.049 A 
ATOM     25  C   UNL     1      -5.974   5.849   4.258  0.00  0.00    +0.003 A 
ATOM     26  C   UNL     1      -6.744   6.397   3.250  0.00  0.00    +0.000 A 
ATOM     27  C   UNL     1      -6.303   6.351   1.940  0.00  0.00    +0.000 A 
ATOM     28  C   UNL     1      -5.090   5.760   1.641  0.00  0.00    +0.002 A 
ATOM     29  C   UNL     1      -4.322   5.207   2.649  0.00  0.00    -0.058 A 
ENDBRANCH   1  29
BRANCH   9  30
ATOM     30  C   UNL     1      -1.238   3.133   0.030  0.00  0.00    -0.047 A 
ATOM     31  C   UNL     1      -0.976   2.206  -0.962  0.00  0.00    +0.003 A 
ATOM     32  C   UNL     1       0.228   1.528  -0.973  0.00  0.00    +0.000 A 
ATOM     33  C   UNL     1       1.175   1.784   0.001  0.00  0.00    +0.000 A 
ATOM     34  C   UNL     1       0.916   2.715   0.989  0.00  0.00    +0.000 A 
ATOM     35  C   UNL     1      -0.291   3.389   1.004  0.00  0.00    +0.003 A 
ENDBRANCH   9  30
BRANCH   9  36
ATOM     36  C   UNL     1      -2.931   4.315  -1.343  0.00  0.00    +0.301 C 
ATOM     37  O   UNL     1      -3.674   3.639  -2.014  0.00  0.00    -0.252 OA
BRANCH  36  38
ATOM     38  O   UNL     1      -2.442   5.465  -1.835  0.00  0.00    -0.469 OA
ATOM     39  C   UNL     1      -2.848   5.832  -3.179  0.00  0.00    +0.280 C 
ENDBRANCH  36  38
ENDBRANCH   9  36
TORSDOF 5
