REMARK  Name = ZINC52594493
REMARK  9 active torsions:
REMARK  status: ('A' for Active; 'I' for Inactive)
REMARK    1  A    between atoms: C_1  and  C_2
REMARK    2  A    between atoms: C_2  and  C_3
REMARK    3  A    between atoms: C_2  and  C_5
REMARK    4  A    between atoms: C_2  and  N_36
REMARK    5  A    between atoms: C_3  and  O_4
REMARK    6  A    between atoms: N_7  and  C_8
REMARK    7  A    between atoms: C_8  and  C_10
REMARK    8  A    between atoms: C_8  and  C_20
REMARK    9  A    between atoms: C_10  and  C_11
REMARK                            x       y       z     vdW  Elec       q    Type
REMARK                         _______ _______ _______ _____ _____    ______ ____
ROOT
ATOM      1  C   UNL     1       0.712  -1.094  -3.598  0.00  0.00    +0.163 C 
ENDROOT
BRANCH   1   2
ATOM      2  C   UNL     1       1.832  -0.147  -3.943  0.00  0.00    +0.236 C 
ATOM      3  O   UNL     1       2.278   0.599  -3.096  0.00  0.00    -0.274 OA
ATOM      4  N   UNL     1       2.339  -0.129  -5.191  0.00  0.00    -0.300 N 
ATOM      5  C   UNL     1       1.806  -1.022  -6.229  0.00  0.00    +0.108 C 
ATOM      6  C   UNL     1       1.399  -0.179  -7.442  0.00  0.00    +0.030 C 
ATOM      7  C   UNL     1       2.581   0.679  -7.883  0.00  0.00    -0.001 C 
ATOM      8  C   UNL     1       3.757  -0.222  -8.303  0.00  0.00    +0.016 C 
ATOM      9  C   UNL     1       4.388   0.578  -9.463  0.00  0.00    +0.036 C 
ATOM     10  C   UNL     1       3.261   1.416 -10.026  0.00  0.00    -0.044 A 
ATOM     11  C   UNL     1       2.221   1.474  -9.116  0.00  0.00    -0.038 A 
ATOM     12  C   UNL     1       1.077   2.192  -9.422  0.00  0.00    +0.004 A 
ATOM     13  C   UNL     1       0.971   2.850 -10.632  0.00  0.00    +0.000 A 
ATOM     14  C   UNL     1       2.010   2.791 -11.542  0.00  0.00    +0.000 A 
ATOM     15  C   UNL     1       3.152   2.076 -11.239  0.00  0.00    +0.004 A 
ATOM     16  C   UNL     1       3.016   1.614  -6.759  0.00  0.00    +0.030 C 
ATOM     17  C   UNL     1       3.432   0.789  -5.542  0.00  0.00    +0.108 C 
ENDBRANCH   1   2
BRANCH   1  20
ATOM     18  C   UNL     1       0.707  -0.490  -1.238  0.00  0.00    +0.204 C 
ATOM     19  O   UNL     1       1.889  -0.763  -1.196  0.00  0.00    -0.277 OA
ATOM     20  N   UNL     1       0.026  -0.622  -2.393  0.00  0.00    -0.305 N 
ATOM     21  H   UNL     1      -0.919  -0.404  -2.426  0.00  0.00    +0.149 HD
BRANCH  18  23
ATOM     22  C   UNL     1      -0.019   1.526   0.010  0.00  0.00    +0.001 C 
ATOM     23  C   UNL     1       0.002  -0.004   0.002  0.00  0.00    +0.028 C 
BRANCH  23  24
ATOM     24  N   UNL     1      -1.376  -0.512   0.012  0.00  0.00    +0.389 N 
ATOM     25  H   UNL     1      -1.864  -0.178  -0.805  0.00  0.00    -0.088 HD
ATOM     26  H   UNL     1      -1.362  -1.521   0.007  0.00  0.00    -0.088 HD
ATOM     27  H   UNL     1      -1.848  -0.187   0.843  0.00  0.00    -0.088 HD
ENDBRANCH  23  24
BRANCH  23  28
ATOM     28  C   UNL     1       0.742  -0.511   1.242  0.00  0.00    +0.152 C 
BRANCH  28  29
ATOM     29  O   UNL     1       0.010  -0.149   2.414  0.00  0.00    -0.396 OA
ATOM     30  H   UNL     1       0.422  -0.439   3.240  0.00  0.00    +0.209 HD
ENDBRANCH  28  29
ENDBRANCH  23  28
ENDBRANCH  18  23
ENDBRANCH   1  20
BRANCH   1  31
ATOM     31  C   UNL     1       1.284  -2.490  -3.346  0.00  0.00    +0.065 C 
BRANCH  31  32
ATOM     32  C   UNL     1       0.154  -3.463  -3.122  0.00  0.00    -0.039 C 
ATOM     33  C   UNL     1      -0.422  -4.266  -4.046  0.00  0.00    -0.001 A 
ATOM     34  C   UNL     1      -0.180  -4.466  -5.479  0.00  0.00    +0.010 A 
ATOM     35  C   UNL     1      -0.936  -5.361  -6.154  0.00  0.00    +0.001 A 
ATOM     36  C   UNL     1      -1.944  -6.101  -5.520  0.00  0.00    +0.002 A 
ATOM     37  C   UNL     1      -2.226  -5.972  -4.206  0.00  0.00    +0.026 A 
ATOM     38  C   UNL     1      -1.492  -5.059  -3.399  0.00  0.00    +0.043 A 
ATOM     39  N   UNL     1      -1.574  -4.759  -2.126  0.00  0.00    -0.380 N 
ATOM     40  C   UNL     1      -0.560  -3.743  -1.819  0.00  0.00    +0.144 C 
ATOM     41  H   UNL     1      -2.198  -5.145  -1.492  0.00  0.00    +0.160 HD
ENDBRANCH  31  32
ENDBRANCH   1  31
TORSDOF 8
