REMARK  Name = ZINC09233495
REMARK  6 active torsions:
REMARK  status: ('A' for Active; 'I' for Inactive)
REMARK    1  A    between atoms: C_6  and  N_7
REMARK    2  A    between atoms: C_8  and  C_10
REMARK    3  A    between atoms: C_10  and  N_11
REMARK    4  A    between atoms: C_15  and  C_16
REMARK    5  A    between atoms: C_18  and  O_23
REMARK    6  A    between atoms: C_21  and  O_22
REMARK                            x       y       z     vdW  Elec       q    Type
REMARK                         _______ _______ _______ _____ _____    ______ ____
ROOT
ATOM      1  N   UNL     1       2.025   0.976  -1.149  0.00  0.00    -0.219 N 
ATOM      2  C   UNL     1       1.340  -0.132  -0.919  0.00  0.00    +0.261 C 
ATOM      3  O   UNL     1       1.771  -1.226  -1.230  0.00  0.00    -0.269 OA
ATOM      4  C   UNL     1       0.026   0.027  -0.265  0.00  0.00    +0.080 C 
ATOM      5  C   UNL     1      -0.883  -0.917   0.090  0.00  0.00    +0.032 C 
ATOM      6  S   UNL     1      -0.039   1.802  -0.068  0.00  0.00    -0.026 S 
ATOM      7  C   UNL     1       1.543   2.187  -0.802  0.00  0.00    +0.286 C 
ATOM      8  O   UNL     1       2.061   3.277  -0.952  0.00  0.00    -0.262 OA
ENDROOT
BRANCH   5   9
ATOM      9  C   UNL     1      -0.545  -2.341  -0.020  0.00  0.00    +0.021 A 
ATOM     10  C   UNL     1       0.721  -2.796   0.369  0.00  0.00    +0.057 A 
ATOM     11  C   UNL     1       1.030  -4.139   0.267  0.00  0.00    +0.118 A 
ATOM     12  C   UNL     1       0.092  -5.036  -0.232  0.00  0.00    +0.049 A 
ATOM     13  C   UNL     1      -1.157  -4.596  -0.624  0.00  0.00    +0.049 A 
ATOM     14  C   UNL     1      -1.486  -3.254  -0.523  0.00  0.00    +0.124 A 
BRANCH  14  15
ATOM     15  O   UNL     1      -2.715  -2.823  -0.908  0.00  0.00    -0.506 OA
ATOM     16  H   UNL     1      -2.766  -2.562  -1.837  0.00  0.00    +0.292 HD
ENDBRANCH  14  15
BRANCH  11  17
ATOM     17  O   UNL     1       2.257  -4.583   0.650  0.00  0.00    -0.507 OA
ATOM     18  H   UNL     1       2.916  -4.575  -0.058  0.00  0.00    +0.292 HD
ENDBRANCH  11  17
ENDBRANCH   5   9
BRANCH   1  19
ATOM     19  C   UNL     1       3.336   0.885  -1.795  0.00  0.00    +0.213 C 
BRANCH  19  21
ATOM     20  N   UNL     1       4.246   0.912  -4.095  0.00  0.00    -0.284 N 
ATOM     21  C   UNL     1       3.167   0.973  -3.290  0.00  0.00    +0.235 C 
ATOM     22  O   UNL     1       2.059   1.098  -3.768  0.00  0.00    -0.274 OA
ATOM     23  H   UNL     1       5.122   0.734  -3.719  0.00  0.00    +0.155 HD
BRANCH  20  29
ATOM     24  C   UNL     1       4.905   0.401  -6.362  0.00  0.00    +0.027 A 
ATOM     25  C   UNL     1       4.760   0.586  -7.724  0.00  0.00    +0.051 A 
ATOM     26  C   UNL     1       3.821   1.483  -8.208  0.00  0.00    +0.166 A 
ATOM     27  C   UNL     1       3.017   2.195  -7.320  0.00  0.00    +0.168 A 
ATOM     28  C   UNL     1       3.159   2.004  -5.956  0.00  0.00    +0.072 A 
ATOM     29  C   UNL     1       4.101   1.105  -5.475  0.00  0.00    +0.037 A 
ATOM     30  O   UNL     1       2.184   3.003  -8.038  0.00  0.00    -0.453 OA
ATOM     31  C   UNL     1       2.202   2.480  -9.379  0.00  0.00    +0.466 C 
ATOM     32  O   UNL     1       3.491   1.847  -9.482  0.00  0.00    -0.453 OA
ENDBRANCH  20  29
ENDBRANCH  19  21
ENDBRANCH   1  19
TORSDOF 6
