REMARK  Name = ZINC39504823
REMARK  6 active torsions:
REMARK  status: ('A' for Active; 'I' for Inactive)
REMARK    1  A    between atoms: C_4  and  O_7
REMARK    2  A    between atoms: O_7  and  S_8
REMARK    3  A    between atoms: S_8  and  C_11
REMARK    4  A    between atoms: C_18  and  C_23
REMARK    5  A    between atoms: N_21  and  O_22
REMARK    6  A    between atoms: C_28  and  O_29
REMARK                            x       y       z     vdW  Elec       q    Type
REMARK                         _______ _______ _______ _____ _____    ______ ____
ROOT
ATOM      1  C   UNL     1       3.125  -2.313   1.960  0.00  0.00    +0.173 C 
ATOM      2  C   UNL     1       3.316  -3.574   1.079  0.00  0.00    +0.032 C 
ATOM      3  C   UNL     1       2.940  -4.747   2.010  0.00  0.00    +0.027 C 
ATOM      4  C   UNL     1       3.139  -4.242   3.444  0.00  0.00    +0.049 C 
ATOM      5  C   UNL     1       3.620  -2.783   3.352  0.00  0.00    +0.054 C 
ATOM      6  C   UNL     1       1.814  -4.309   4.222  0.00  0.00    +0.034 C 
ATOM      7  C   UNL     1       1.957  -5.624   5.036  0.00  0.00    +0.041 C 
ATOM      8  C   UNL     1       3.472  -5.628   5.364  0.00  0.00    +0.123 C 
ATOM      9  N   UNL     1       4.122  -5.069   4.157  0.00  0.00    -0.184 NA
ENDROOT
BRANCH   7  10
ATOM     10  C   UNL     1       1.132  -5.572   6.295  0.00  0.00    -0.002 A 
ATOM     11  C   UNL     1       1.370  -4.590   7.238  0.00  0.00    +0.007 A 
ATOM     12  C   UNL     1       0.613  -4.542   8.394  0.00  0.00    +0.001 A 
ATOM     13  C   UNL     1      -0.384  -5.475   8.610  0.00  0.00    +0.004 A 
ATOM     14  C   UNL     1      -0.626  -6.458   7.670  0.00  0.00    +0.046 A 
ATOM     15  C   UNL     1       0.128  -6.505   6.507  0.00  0.00    +0.120 A 
BRANCH  15  16
ATOM     16  O   UNL     1      -0.112  -7.468   5.579  0.00  0.00    -0.506 OA
ATOM     17  H   UNL     1       0.398  -8.279   5.712  0.00  0.00    +0.292 HD
ENDBRANCH  15  16
ENDBRANCH   7  10
BRANCH   1  18
ATOM     18  S   UNL     1       4.140  -0.941   1.346  0.00  0.00    +0.124 S 
ATOM     19  O   UNL     1       5.471  -1.383   1.113  0.00  0.00    -0.136 OA
ATOM     20  O   UNL     1       3.889   0.232   2.108  0.00  0.00    -0.136 OA
BRANCH  18  21
ATOM     21  O   UNL     1       3.586  -0.632  -0.037  0.00  0.00    -0.346 OA
BRANCH  21  25
ATOM     22  C   UNL     1      -0.017   1.378   0.010  0.00  0.00    +0.000 A 
ATOM     23  C   UNL     1       1.170   2.088   0.002  0.00  0.00    +0.004 A 
ATOM     24  C   UNL     1       2.377   1.417  -0.013  0.00  0.00    +0.048 A 
ATOM     25  C   UNL     1       2.399   0.030  -0.021  0.00  0.00    +0.156 A 
ATOM     26  C   UNL     1       1.207  -0.680  -0.013  0.00  0.00    +0.048 A 
ATOM     27  C   UNL     1       0.002  -0.004   0.002  0.00  0.00    +0.004 A 
ENDBRANCH  21  25
ENDBRANCH  18  21
ENDBRANCH   1  18
BRANCH   9  28
ATOM     28  O   UNL     1       5.305  -4.286   4.514  0.00  0.00    -0.312 OA
ATOM     29  H   UNL     1       5.982  -4.790   4.986  0.00  0.00    +0.237 HD
ENDBRANCH   9  28
TORSDOF 6
