REMARK  Name = ZINC13735392
REMARK  7 active torsions:
REMARK  status: ('A' for Active; 'I' for Inactive)
REMARK    1  A    between atoms: C_4  and  C_7
REMARK    2  A    between atoms: C_7  and  C_8
REMARK    3  A    between atoms: C_8  and  C_10
REMARK    4  A    between atoms: C_8  and  N_19
REMARK    5  A    between atoms: N_12  and  C_13
REMARK    6  A    between atoms: C_13  and  C_14
REMARK    7  A    between atoms: C_28  and  C_30
REMARK                            x       y       z     vdW  Elec       q    Type
REMARK                         _______ _______ _______ _____ _____    ______ ____
ROOT
ATOM      1  N   UNL     1       0.612   8.072  -1.746  0.00  0.00    -0.288 N 
ATOM      2  C   UNL     1      -0.608   7.537  -1.540  0.00  0.00    +0.303 C 
ATOM      3  O   UNL     1      -1.581   8.260  -1.447  0.00  0.00    -0.253 OA
ATOM      4  N   UNL     1      -0.749   6.201  -1.439  0.00  0.00    -0.283 N 
ATOM      5  C   UNL     1       0.429   5.322  -1.440  0.00  0.00    +0.128 C 
ATOM      6  C   UNL     1       0.264   4.283  -2.556  0.00  0.00    +0.127 C 
ATOM      7  N   UNL     1      -1.070   3.678  -2.441  0.00  0.00    -0.294 N 
ATOM      8  C   UNL     1      -2.249   4.556  -2.446  0.00  0.00    +0.127 C 
ATOM      9  C   UNL     1      -2.084   5.596  -1.324  0.00  0.00    +0.128 C 
ATOM     10  C   UNL     1      -1.211   2.342  -2.339  0.00  0.00    +0.249 C 
ATOM     11  O   UNL     1      -0.228   1.632  -2.240  0.00  0.00    -0.270 OA
ATOM     12  H   UNL     1       1.396   7.502  -1.753  0.00  0.00    +0.151 HD
ENDROOT
BRANCH  10  13
ATOM     13  C   UNL     1      -2.552   1.742  -2.348  0.00  0.00    +0.062 A 
ATOM     14  C   UNL     1      -3.593   2.081  -3.160  0.00  0.00    +0.096 A 
ATOM     15  N   UNL     1      -4.670   1.312  -2.871  0.00  0.00    -0.360 N 
ATOM     16  H   UNL     1      -5.529   1.372  -3.318  0.00  0.00    +0.165 HD
ATOM     17  C   UNL     1      -4.374   0.433  -1.850  0.00  0.00    +0.047 A 
ATOM     18  C   UNL     1      -3.040   0.658  -1.475  0.00  0.00    +0.012 A 
ATOM     19  C   UNL     1      -2.464  -0.096  -0.455  0.00  0.00    +0.011 A 
ATOM     20  C   UNL     1      -3.211  -1.063   0.182  0.00  0.00    +0.001 A 
ATOM     21  C   UNL     1      -4.529  -1.287  -0.187  0.00  0.00    +0.002 A 
ATOM     22  C   UNL     1      -5.111  -0.548  -1.194  0.00  0.00    +0.026 A 
ENDBRANCH  10  13
BRANCH   1  23
ATOM     23  C   UNL     1       0.752   9.515  -1.959  0.00  0.00    +0.165 C 
BRANCH  23  24
ATOM     24  C   UNL     1       2.011   9.787  -2.742  0.00  0.00    +0.234 C 
ATOM     25  O   UNL     1       2.720   8.867  -3.088  0.00  0.00    -0.274 OA
ATOM     26  N   UNL     1       2.347  11.053  -3.057  0.00  0.00    -0.307 N 
ATOM     27  H   UNL     1       1.780  11.790  -2.780  0.00  0.00    +0.149 HD
BRANCH  26  28
ATOM     28  C   UNL     1       3.571  11.318  -3.818  0.00  0.00    +0.178 C 
BRANCH  28  29
ATOM     29  C   UNL     1       3.715  12.802  -4.037  0.00  0.00    +0.122 A 
ATOM     30  C   UNL     1       4.353  13.659  -3.220  0.00  0.00    +0.046 A 
ATOM     31  C   UNL     1       4.245  14.941  -3.806  0.00  0.00    +0.041 A 
ATOM     32  C   UNL     1       3.548  14.791  -4.947  0.00  0.00    +0.195 A 
ATOM     33  O   UNL     1       3.235  13.492  -5.085  0.00  0.00    -0.466 OA
ENDBRANCH  28  29
ENDBRANCH  26  28
ENDBRANCH  23  24
BRANCH  23  34
ATOM     34  C   UNL     1       0.830  10.225  -0.606  0.00  0.00    +0.067 C 
BRANCH  34  38
ATOM     35  C   UNL     1      -2.873   9.744   1.470  0.00  0.00    +0.000 A 
ATOM     36  C   UNL     1      -1.861   8.817   1.638  0.00  0.00    +0.000 A 
ATOM     37  C   UNL     1      -0.663   8.973   0.966  0.00  0.00    +0.004 A 
ATOM     38  C   UNL     1      -0.476  10.055   0.127  0.00  0.00    -0.045 A 
ATOM     39  C   UNL     1      -1.486  10.985  -0.037  0.00  0.00    +0.004 A 
ATOM     40  C   UNL     1      -2.686  10.827   0.631  0.00  0.00    +0.000 A 
ENDBRANCH  34  38
ENDBRANCH  23  34
ENDBRANCH   1  23
TORSDOF 7
