REMARK  Name = ZINC66242378
REMARK  11 active torsions:
REMARK  status: ('A' for Active; 'I' for Inactive)
REMARK    1  A    between atoms: C_1  and  O_2
REMARK    2  A    between atoms: O_2  and  C_3
REMARK    3  A    between atoms: C_6  and  C_9
REMARK    4  A    between atoms: C_9  and  C_10
REMARK    5  A    between atoms: C_10  and  N_11
REMARK    6  A    between atoms: N_14  and  C_15
REMARK    7  A    between atoms: C_15  and  C_16
REMARK    8  A    between atoms: C_16  and  C_18
REMARK    9  A    between atoms: C_16  and  N_26
REMARK   10  A    between atoms: C_22  and  O_24
REMARK   11  A    between atoms: O_24  and  C_25
REMARK                            x       y       z     vdW  Elec       q    Type
REMARK                         _______ _______ _______ _____ _____    ______ ____
ROOT
ATOM      1  N   UNL     1       4.620  -3.451  -5.165  0.00  0.00    -0.357 N 
ATOM      2  C   UNL     1       5.929  -3.864  -5.072  0.00  0.00    +0.169 C 
ATOM      3  N   UNL     1       6.552  -3.803  -3.929  0.00  0.00    -0.371 N 
ATOM      4  N   UNL     1       6.580  -4.341  -6.185  0.00  0.00    -0.359 N 
ATOM      5  H   UNL     1       4.157  -3.497  -6.016  0.00  0.00    +0.162 HD
ATOM      6  H   UNL     1       7.475  -4.094  -3.863  0.00  0.00    +0.159 HD
ATOM      7  H   UNL     1       6.116  -4.386  -7.036  0.00  0.00    +0.162 HD
ATOM      8  H   UNL     1       6.092  -3.466  -3.143  0.00  0.00    +0.159 HD
ENDROOT
BRANCH   1   9
ATOM      9  C   UNL     1       3.927  -2.943  -3.979  0.00  0.00    +0.120 C 
BRANCH   9  10
ATOM     10  C   UNL     1       2.494  -2.556  -4.353  0.00  0.00    +0.056 C 
BRANCH  10  14
ATOM     11  C   UNL     1       0.470  -1.073  -0.893  0.00  0.00    +0.120 A 
ATOM     12  C   UNL     1       1.169  -0.202  -1.716  0.00  0.00    +0.046 A 
ATOM     13  C   UNL     1       1.823  -0.684  -2.834  0.00  0.00    +0.007 A 
ATOM     14  C   UNL     1       1.781  -2.033  -3.132  0.00  0.00    -0.045 A 
ATOM     15  C   UNL     1       1.085  -2.904  -2.314  0.00  0.00    +0.007 A 
ATOM     16  C   UNL     1       0.435  -2.428  -1.192  0.00  0.00    +0.046 A 
BRANCH  11  18
ATOM     17  C   UNL     1      -0.094   0.803   0.453  0.00  0.00    +0.277 C 
ATOM     18  O   UNL     1      -0.173  -0.602   0.207  0.00  0.00    -0.495 OA
ENDBRANCH  11  18
ENDBRANCH  10  14
ENDBRANCH   9  10
ENDBRANCH   1   9
BRANCH   4  19
ATOM     19  C   UNL     1       7.974  -4.780  -6.086  0.00  0.00    +0.105 C 
BRANCH  19  20
ATOM     20  C   UNL     1       8.415  -5.380  -7.423  0.00  0.00    -0.018 C 
BRANCH  20  21
ATOM     21  C   UNL     1       7.630  -6.638  -7.692  0.00  0.00    -0.056 A 
ATOM     22  C   UNL     1       7.989  -7.822  -7.075  0.00  0.00    +0.002 A 
ATOM     23  C   UNL     1       7.270  -8.978  -7.320  0.00  0.00    +0.004 A 
ATOM     24  C   UNL     1       6.192  -8.952  -8.183  0.00  0.00    +0.045 A 
ATOM     25  C   UNL     1       5.830  -7.766  -8.804  0.00  0.00    +0.120 A 
ATOM     26  C   UNL     1       6.549  -6.606  -8.551  0.00  0.00    +0.047 A 
BRANCH  25  27
ATOM     27  O   UNL     1       4.770  -7.738  -9.654  0.00  0.00    -0.495 OA
ATOM     28  C   UNL     1       4.073  -8.968  -9.862  0.00  0.00    +0.277 C 
ENDBRANCH  25  27
ENDBRANCH  20  21
BRANCH  20  29
ATOM     29  N   UNL     1       9.848  -5.700  -7.366  0.00  0.00    +0.385 N 
ATOM     30  C   UNL     1      10.296  -6.271  -8.662  0.00  0.00    -0.078 C 
ATOM     31  C   UNL     1      11.826  -6.022  -8.649  0.00  0.00    -0.020 C 
ATOM     32  C   UNL     1      11.944  -4.636  -7.973  0.00  0.00    -0.020 C 
ATOM     33  C   UNL     1      10.639  -4.465  -7.174  0.00  0.00    -0.078 C 
ATOM     34  H   UNL     1      10.030  -6.351  -6.617  0.00  0.00    -0.081 HD
ENDBRANCH  20  29
ENDBRANCH  19  20
ENDBRANCH   4  19
TORSDOF 9
