REMARK  Name = ZINC12218126
REMARK  13 active torsions:
REMARK  status: ('A' for Active; 'I' for Inactive)
REMARK    1  A    between atoms: C_1  and  C_2
REMARK    2  A    between atoms: C_2  and  C_3
REMARK    3  A    between atoms: C_6  and  C_9
REMARK    4  A    between atoms: C_9  and  N_66
REMARK    5  A    between atoms: C_11  and  N_28
REMARK    6  A    between atoms: C_14  and  C_16
REMARK    7  A    between atoms: N_18  and  C_19
REMARK    8  A    between atoms: C_19  and  C_20
REMARK    9  A    between atoms: C_23  and  O_26
REMARK   10  A    between atoms: O_26  and  C_27
REMARK   11  A    between atoms: C_30  and  C_33
REMARK   12  A    between atoms: C_33  and  O_35
REMARK   13  A    between atoms: O_35  and  C_36
REMARK                            x       y       z     vdW  Elec       q    Type
REMARK                         _______ _______ _______ _____ _____    ______ ____
ROOT
ATOM      1  C   UNL     1       0.301   1.850   7.708  0.00  0.00    -0.050 C 
ATOM      2  C   UNL     1      -1.164   1.887   7.224  0.00  0.00    +0.091 C 
ATOM      3  C   UNL     1      -1.744   0.552   7.762  0.00  0.00    +0.019 C 
ATOM      4  C   UNL     1      -1.004   0.412   9.115  0.00  0.00    +0.022 C 
ATOM      5  N   UNL     1       0.357   0.912   8.844  0.00  0.00    +0.391 N 
ATOM      6  H   UNL     1       0.966   0.122   8.602  0.00  0.00    -0.080 HD
ENDROOT
BRANCH   2   7
ATOM      7  N   UNL     1      -1.225   1.926   5.761  0.00  0.00    -0.250 N 
ATOM      8  C   UNL     1      -0.370   1.331   4.905  0.00  0.00    +0.145 A 
ATOM      9  C   UNL     1      -0.801   1.631   3.643  0.00  0.00    +0.189 A 
ATOM     10  N   UNL     1      -1.906   2.390   3.740  0.00  0.00    -0.123 NA
ATOM     11  N   UNL     1      -2.187   2.585   4.982  0.00  0.00    -0.065 NA
BRANCH   9  12
ATOM     12  C   UNL     1      -0.164   1.193   2.388  0.00  0.00    +0.361 C 
ATOM     13  O   UNL     1       0.837   0.505   2.423  0.00  0.00    -0.243 OA
BRANCH  12  14
ATOM     14  O   UNL     1      -0.692   1.554   1.203  0.00  0.00    -0.463 OA
ATOM     15  C   UNL     1      -0.013   1.086   0.008  0.00  0.00    +0.280 C 
ENDBRANCH  12  14
ENDBRANCH   9  12
ENDBRANCH   2   7
BRANCH   4  16
ATOM     16  C   UNL     1      -0.947  -1.034   9.536  0.00  0.00    +0.200 C 
ATOM     17  O   UNL     1       0.122  -1.601   9.617  0.00  0.00    -0.278 OA
ATOM     18  N   UNL     1      -2.085  -1.698   9.821  0.00  0.00    -0.313 N 
ATOM     19  H   UNL     1      -2.940  -1.244   9.756  0.00  0.00    +0.149 HD
BRANCH  18  20
ATOM     20  C   UNL     1      -2.030  -3.103  10.230  0.00  0.00    +0.139 C 
BRANCH  20  21
ATOM     21  C   UNL     1      -3.427  -3.606  10.489  0.00  0.00    -0.030 A 
ATOM     22  C   UNL     1      -3.974  -3.505  11.755  0.00  0.00    +0.009 A 
ATOM     23  C   UNL     1      -5.256  -3.960  11.993  0.00  0.00    +0.046 A 
ATOM     24  C   UNL     1      -5.991  -4.529  10.964  0.00  0.00    +0.120 A 
ATOM     25  C   UNL     1      -5.439  -4.635   9.696  0.00  0.00    +0.046 A 
ATOM     26  C   UNL     1      -4.158  -4.173   9.461  0.00  0.00    +0.009 A 
BRANCH  24  27
ATOM     27  O   UNL     1      -7.251  -4.982  11.197  0.00  0.00    -0.495 OA
ATOM     28  C   UNL     1      -7.756  -4.840  12.527  0.00  0.00    +0.277 C 
ENDBRANCH  24  27
ENDBRANCH  20  21
ENDBRANCH  18  20
ENDBRANCH   4  16
BRANCH   5  29
ATOM     29  C   UNL     1       0.903   1.596  10.044  0.00  0.00    -0.042 C 
BRANCH  29  33
ATOM     30  C   UNL     1      -1.920   4.460  11.486  0.00  0.00    -0.048 A 
ATOM     31  C   UNL     1      -1.957   3.159  11.950  0.00  0.00    +0.004 A 
ATOM     32  C   UNL     1      -1.043   2.232  11.484  0.00  0.00    +0.002 A 
ATOM     33  C   UNL     1      -0.093   2.607  10.553  0.00  0.00    -0.064 A 
ATOM     34  C   UNL     1      -0.053   3.909  10.091  0.00  0.00    +0.002 A 
ATOM     35  C   UNL     1      -0.970   4.835  10.554  0.00  0.00    +0.004 A 
BRANCH  30  37
ATOM     36  C   UNL     1      -2.349   6.167  13.232  0.00  0.00    +0.009 C 
ATOM     37  C   UNL     1      -2.916   5.470  11.994  0.00  0.00    +0.032 C 
ENDBRANCH  30  37
ENDBRANCH  29  33
ENDBRANCH   5  29
TORSDOF 10
