REMARK  Name = ZINC36020345
REMARK  10 active torsions:
REMARK  status: ('A' for Active; 'I' for Inactive)
REMARK    1  A    between atoms: C_1  and  C_2
REMARK    2  A    between atoms: C_2  and  O_4
REMARK    3  A    between atoms: O_4  and  C_5
REMARK    4  A    between atoms: C_8  and  C_35
REMARK    5  A    between atoms: C_9  and  C_31
REMARK    6  A    between atoms: C_13  and  O_30
REMARK    7  A    between atoms: C_18  and  C_29
REMARK    8  A    between atoms: C_21  and  O_28
REMARK    9  A    between atoms: C_31  and  O_33
REMARK   10  A    between atoms: O_33  and  C_34
REMARK                            x       y       z     vdW  Elec       q    Type
REMARK                         _______ _______ _______ _____ _____    ______ ____
ROOT
ATOM      1  C   UNL     1      -0.121  -2.256  -1.374  0.00  0.00    +0.181 C 
ATOM      2  C   UNL     1       1.333  -2.692  -1.218  0.00  0.00    +0.055 C 
ATOM      3  C   UNL     1       1.435  -4.217  -1.137  0.00  0.00    +0.013 C 
ATOM      4  C   UNL     1       2.930  -4.575  -1.353  0.00  0.00    +0.107 C 
ATOM      5  C   UNL     1       3.109  -4.794  -2.867  0.00  0.00    +0.018 C 
ATOM      6  C   UNL     1       1.715  -4.602  -3.508  0.00  0.00    +0.036 C 
ATOM      7  C   UNL     1       0.744  -4.874  -2.344  0.00  0.00    +0.076 C 
ATOM      8  C   UNL     1      -0.644  -4.345  -2.610  0.00  0.00    +0.028 C 
ATOM      9  C   UNL     1      -0.667  -2.819  -2.690  0.00  0.00    +0.042 C 
ATOM     10  C   UNL     1      -2.105  -2.336  -2.889  0.00  0.00    -0.023 C 
ATOM     11  C   UNL     1      -2.125  -0.808  -2.969  0.00  0.00    +0.010 C 
ATOM     12  C   UNL     1      -1.278  -0.347  -4.156  0.00  0.00    +0.032 C 
ATOM     13  C   UNL     1      -1.848  -0.934  -5.449  0.00  0.00    +0.115 C 
ATOM     14  C   UNL     1      -1.822  -2.462  -5.369  0.00  0.00    +0.035 C 
ATOM     15  C   UNL     1      -2.670  -2.924  -4.182  0.00  0.00    -0.002 C 
ATOM     16  C   UNL     1      -2.648  -4.452  -4.102  0.00  0.00    +0.004 C 
ATOM     17  C   UNL     1      -1.202  -4.933  -3.908  0.00  0.00    +0.007 C 
ATOM     18  C   UNL     1      -2.962  -2.791  -1.706  0.00  0.00    +0.012 C 
ATOM     19  C   UNL     1       0.886  -4.749   0.188  0.00  0.00    +0.015 C 
ENDROOT
BRANCH  13  20
ATOM     20  O   UNL     1      -3.195  -0.489  -5.622  0.00  0.00    -0.392 OA
ATOM     21  H   UNL     1      -3.287   0.472  -5.680  0.00  0.00    +0.210 HD
ENDBRANCH  13  20
BRANCH   7  22
ATOM     22  O   UNL     1       0.660  -6.284  -2.126  0.00  0.00    -0.388 OA
ATOM     23  H   UNL     1       0.235  -6.769  -2.846  0.00  0.00    +0.210 HD
ENDBRANCH   7  22
BRANCH   4  24
ATOM     24  C   UNL     1       3.274  -5.836  -0.602  0.00  0.00    +0.311 C 
ATOM     25  O   UNL     1       3.099  -6.914  -1.120  0.00  0.00    -0.251 OA
BRANCH  24  26
ATOM     26  O   UNL     1       3.774  -5.762   0.641  0.00  0.00    -0.468 OA
ATOM     27  C   UNL     1       4.077  -6.997   1.293  0.00  0.00    +0.280 C 
ENDBRANCH  24  26
ENDBRANCH   4  24
BRANCH   1  28
ATOM     28  O   UNL     1      -0.194  -0.829  -1.396  0.00  0.00    -0.461 OA
BRANCH  28  30
ATOM     29  C   UNL     1      -0.442   1.295  -0.162  0.00  0.00    +0.136 C 
ATOM     30  C   UNL     1      -0.356  -0.208  -0.217  0.00  0.00    +0.304 C 
ATOM     31  O   UNL     1      -0.434  -0.856   0.801  0.00  0.00    -0.251 OA
ENDBRANCH  28  30
ENDBRANCH   1  28
TORSDOF 6
