REMARK  Name = ZINC04729882
REMARK  14 active torsions:
REMARK  status: ('A' for Active; 'I' for Inactive)
REMARK    1  A    between atoms: C_1  and  C_2
REMARK    2  A    between atoms: C_2  and  C_3
REMARK    3  A    between atoms: C_3  and  C_4
REMARK    4  A    between atoms: C_4  and  C_5
REMARK    5  A    between atoms: C_5  and  C_6
REMARK    6  A    between atoms: C_6  and  C_7
REMARK    7  A    between atoms: C_7  and  C_30
REMARK    8  A    between atoms: C_8  and  C_21
REMARK    9  A    between atoms: C_11  and  C_13
REMARK   10  A    between atoms: C_16  and  O_19
REMARK   11  A    between atoms: O_19  and  C_20
REMARK   12  A    between atoms: C_25  and  O_28
REMARK   13  A    between atoms: C_26  and  O_27
REMARK   14  A    between atoms: O_28  and  C_29
REMARK                            x       y       z     vdW  Elec       q    Type
REMARK                         _______ _______ _______ _____ _____    ______ ____
ROOT
ATOM      1  C   UNL     1       3.464   6.326  -0.625  0.00  0.00    +0.026 C 
ATOM      2  C   UNL     1       2.446   4.231   0.001  0.00  0.00    -0.028 C 
ATOM      3  C   UNL     1       3.023   4.288   1.419  0.00  0.00    +0.044 C 
ATOM      4  C   UNL     1       4.123   5.312   1.472  0.00  0.00    +0.040 C 
ATOM      5  N   UNL     1       4.295   6.200   0.566  0.00  0.00    -0.300 NA
ATOM      6  C   UNL     1       3.177   7.806  -0.886  0.00  0.00    +0.014 C 
ATOM      7  N   UNL     1       2.190   5.612  -0.451  0.00  0.00    +0.400 N 
ATOM      8  H   UNL     1       1.687   5.590  -1.345  0.00  0.00    -0.081 HD
ATOM      9  H   UNL     1       1.620   6.100   0.251  0.00  0.00    -0.081 HD
ENDROOT
BRANCH   4  10
ATOM     10  C   UNL     1       5.046   5.293   2.622  0.00  0.00    -0.004 A 
ATOM     11  C   UNL     1       4.886   4.342   3.633  0.00  0.00    +0.013 A 
ATOM     12  C   UNL     1       5.754   4.324   4.702  0.00  0.00    +0.046 A 
ATOM     13  C   UNL     1       6.781   5.256   4.782  0.00  0.00    +0.120 A 
ATOM     14  C   UNL     1       6.941   6.207   3.781  0.00  0.00    +0.046 A 
ATOM     15  C   UNL     1       6.080   6.229   2.705  0.00  0.00    +0.013 A 
BRANCH  13  16
ATOM     16  O   UNL     1       7.632   5.238   5.840  0.00  0.00    -0.495 OA
ATOM     17  C   UNL     1       7.411   4.234   6.832  0.00  0.00    +0.277 C 
ENDBRANCH  13  16
ENDBRANCH   4  10
BRANCH   2  18
ATOM     18  C   UNL     1       1.155   3.455   0.009  0.00  0.00    -0.016 A 
ATOM     19  C   UNL     1      -0.055   4.125   0.024  0.00  0.00    +0.006 A 
ATOM     20  C   UNL     1      -1.241   3.416   0.031  0.00  0.00    +0.004 A 
ATOM     21  C   UNL     1      -1.224   2.034   0.019  0.00  0.00    +0.049 A 
ATOM     22  C   UNL     1      -0.016   1.356   0.009  0.00  0.00    +0.161 A 
ATOM     23  C   UNL     1       1.179   2.070   0.002  0.00  0.00    +0.160 A 
BRANCH  23  24
ATOM     24  O   UNL     1       2.367   1.409  -0.013  0.00  0.00    -0.503 OA
ATOM     25  H   UNL     1       2.702   1.222  -0.901  0.00  0.00    +0.292 HD
ENDBRANCH  23  24
BRANCH  22  26
ATOM     26  O   UNL     1       0.002  -0.004   0.002  0.00  0.00    -0.491 OA
ATOM     27  C   UNL     1      -1.262  -0.670   0.011  0.00  0.00    +0.277 C 
ENDBRANCH  22  26
ENDBRANCH   2  18
BRANCH   1  28
ATOM     28  C   UNL     1       4.210   5.738  -1.825  0.00  0.00    +0.010 C 
BRANCH  28  29
ATOM     29  C   UNL     1       5.522   6.498  -2.032  0.00  0.00    +0.000 C 
BRANCH  29  30
ATOM     30  C   UNL     1       6.268   5.911  -3.231  0.00  0.00    -0.000 C 
BRANCH  30  31
ATOM     31  C   UNL     1       7.579   6.671  -3.438  0.00  0.00    -0.000 C 
BRANCH  31  33
ATOM     32  C   UNL     1       9.637   6.844  -4.845  0.00  0.00    +0.004 C 
ATOM     33  C   UNL     1       8.325   6.083  -4.638  0.00  0.00    -0.003 C 
ENDBRANCH  31  33
ENDBRANCH  30  31
ENDBRANCH  29  30
ENDBRANCH  28  29
ENDBRANCH   1  28
TORSDOF 10
