REMARK  Name = ZINC40013574
REMARK  10 active torsions:
REMARK  status: ('A' for Active; 'I' for Inactive)
REMARK    1  A    between atoms: C_1  and  C_2
REMARK    2  A    between atoms: C_7  and  N_8
REMARK    3  A    between atoms: C_9  and  C_26
REMARK    4  A    between atoms: C_16  and  C_25
REMARK    5  A    between atoms: C_17  and  C_24
REMARK    6  A    between atoms: C_29  and  O_34
REMARK    7  A    between atoms: C_30  and  O_32
REMARK    8  A    between atoms: O_32  and  C_33
REMARK    9  A    between atoms: O_34  and  C_35
REMARK   10  A    between atoms: C_35  and  C_36
REMARK                            x       y       z     vdW  Elec       q    Type
REMARK                         _______ _______ _______ _____ _____    ______ ____
ROOT
ATOM      1  N   UNL     1       0.017   0.150   2.298  0.00  0.00    -0.237 N 
ATOM      2  C   UNL     1       0.197  -0.345   3.673  0.00  0.00    +0.151 C 
ATOM      3  C   UNL     1       0.115   0.858   4.553  0.00  0.00    +0.072 A 
ATOM      4  C   UNL     1       0.210   0.998   6.010  0.00  0.00    +0.199 A 
ATOM      5  O   UNL     1       0.557   0.092   6.746  0.00  0.00    -0.287 OA
ATOM      6  C   UNL     1      -0.158   2.350   6.502  0.00  0.00    +0.065 A 
ATOM      7  C   UNL     1      -0.311   2.587   7.868  0.00  0.00    +0.019 A 
ATOM      8  C   UNL     1      -0.654   3.836   8.305  0.00  0.00    -0.047 A 
ATOM      9  C   UNL     1      -0.852   4.865   7.395  0.00  0.00    -0.044 A 
ATOM     10  C   UNL     1      -0.704   4.649   6.043  0.00  0.00    +0.050 A 
ATOM     11  C   UNL     1      -0.350   3.385   5.572  0.00  0.00    +0.140 A 
ATOM     12  O   UNL     1      -0.200   3.198   4.241  0.00  0.00    -0.450 OA
ATOM     13  C   UNL     1      -0.088   1.947   3.752  0.00  0.00    +0.199 A 
ATOM     14  C   UNL     1      -0.143   1.488   2.354  0.00  0.00    +0.288 C 
ATOM     15  O   UNL     1      -0.312   2.209   1.391  0.00  0.00    -0.266 OA
ATOM     16  C   UNL     1      -1.234   6.235   7.892  0.00  0.00    +0.044 C 
ATOM     17  C   UNL     1      -0.820   4.096   9.780  0.00  0.00    +0.044 C 
ENDROOT
BRANCH   1  24
ATOM     18  C   UNL     1      -2.482  -0.813   1.337  0.00  0.00    +0.047 C 
ATOM     19  C   UNL     1      -1.181  -1.116   0.639  0.00  0.00    -0.010 A 
ATOM     20  C   UNL     1      -1.165  -1.881  -0.514  0.00  0.00    +0.008 A 
ATOM     21  C   UNL     1       0.055  -2.135  -1.124  0.00  0.00    +0.020 A 
ATOM     22  C   UNL     1       1.210  -1.621  -0.566  0.00  0.00    +0.113 A 
ATOM     23  N   UNL     1       1.164  -0.895   0.534  0.00  0.00    -0.240 NA
ATOM     24  C   UNL     1       0.019  -0.626   1.142  0.00  0.00    +0.132 A 
ENDBRANCH   1  24
BRANCH   2  25
ATOM     25  C   UNL     1       1.544  -1.005   3.816  0.00  0.00    -0.018 A 
ATOM     26  C   UNL     1       2.653  -0.448   3.208  0.00  0.00    +0.009 A 
ATOM     27  C   UNL     1       3.891  -1.049   3.336  0.00  0.00    +0.050 A 
ATOM     28  C   UNL     1       4.022  -2.214   4.075  0.00  0.00    +0.162 A 
ATOM     29  C   UNL     1       2.906  -2.775   4.688  0.00  0.00    +0.162 A 
ATOM     30  C   UNL     1       1.669  -2.164   4.559  0.00  0.00    +0.055 A 
BRANCH  29  31
ATOM     31  O   UNL     1       3.029  -3.918   5.414  0.00  0.00    -0.491 OA
ATOM     32  C   UNL     1       1.841  -4.437   6.014  0.00  0.00    +0.277 C 
ENDBRANCH  29  31
BRANCH  28  33
ATOM     33  O   UNL     1       5.239  -2.807   4.202  0.00  0.00    -0.484 OA
BRANCH  33  34
ATOM     34  C   UNL     1       6.341  -2.175   3.546  0.00  0.00    +0.256 C 
BRANCH  34  35
ATOM     35  C   UNL     1       7.597  -2.969   3.796  0.00  0.00    +0.006 C 
ATOM     36  C   UNL     1       8.419  -3.223   2.809  0.00  0.00    +0.007 C 
ENDBRANCH  34  35
ENDBRANCH  33  34
ENDBRANCH  28  33
ENDBRANCH   2  25
TORSDOF 6
