REMARK  Name = ZINC15054238
REMARK  5 active torsions:
REMARK  status: ('A' for Active; 'I' for Inactive)
REMARK    1  A    between atoms: C_7  and  C_11
REMARK    2  A    between atoms: N_12  and  N_13
REMARK    3  A    between atoms: C_18  and  C_21
REMARK    4  A    between atoms: C_21  and  C_22
REMARK    5  A    between atoms: C_22  and  C_24
REMARK                            x       y       z     vdW  Elec       q    Type
REMARK                         _______ _______ _______ _____ _____    ______ ____
ROOT
ATOM      1  N   UNL     1      -0.017   1.397   0.010  0.00  0.00    -0.127 NA
ATOM      2  C   UNL     1       1.112   2.069   0.003  0.00  0.00    +0.183 C 
ATOM      3  N   UNL     1       1.289   3.439   0.009  0.00  0.00    -0.263 N 
ATOM      4  C   UNL     1       2.488   3.996   0.000  0.00  0.00    +0.232 C 
ATOM      5  O   UNL     1       2.639   5.199   0.006  0.00  0.00    -0.274 OA
ATOM      6  C   UNL     1       3.665   3.035  -0.017  0.00  0.00    +0.147 C 
ATOM      7  S   UNL     1       2.779   1.427  -0.010  0.00  0.00    -0.075 S 
ATOM      8  H   UNL     1       0.506   4.012   0.019  0.00  0.00    +0.157 HD
ENDROOT
BRANCH   1  10
ATOM      9  C   UNL     1      -1.120  -0.672   0.009  0.00  0.00    +0.145 C 
ATOM     10  N   UNL     1       0.002  -0.004   0.002  0.00  0.00    -0.155 NA
BRANCH   9  17
ATOM     11  C   UNL     1       2.347  -3.819  -0.041  0.00  0.00    +0.001 A 
ATOM     12  C   UNL     1       1.875  -5.124  -0.043  0.00  0.00    +0.002 A 
ATOM     13  C   UNL     1       0.522  -5.382  -0.032  0.00  0.00    +0.026 A 
ATOM     14  C   UNL     1      -0.385  -4.327  -0.018  0.00  0.00    +0.047 A 
ATOM     15  C   UNL     1       0.093  -3.007  -0.015  0.00  0.00    +0.008 A 
ATOM     16  C   UNL     1       1.465  -2.761  -0.027  0.00  0.00    +0.010 A 
ATOM     17  C   UNL     1      -1.100  -2.142   0.001  0.00  0.00    +0.020 A 
ATOM     18  C   UNL     1      -2.180  -2.971   0.013  0.00  0.00    +0.093 A 
ATOM     19  N   UNL     1      -1.763  -4.269  -0.004  0.00  0.00    -0.360 N 
ATOM     20  H   UNL     1      -2.351  -5.040  -0.003  0.00  0.00    +0.165 HD
ENDBRANCH   9  17
ENDBRANCH   1  10
BRANCH   6  21
ATOM     21  C   UNL     1       4.503   3.208  -1.285  0.00  0.00    +0.103 C 
BRANCH  21  22
ATOM     22  C   UNL     1       5.723   2.327  -1.205  0.00  0.00    +0.165 C 
ATOM     23  O   UNL     1       5.905   1.630  -0.230  0.00  0.00    -0.292 OA
BRANCH  22  24
ATOM     24  C   UNL     1       6.694   2.312  -2.311  0.00  0.00    +0.018 A 
ATOM     25  C   UNL     1       6.491   3.114  -3.439  0.00  0.00    +0.011 A 
ATOM     26  C   UNL     1       7.407   3.088  -4.465  0.00  0.00    +0.004 A 
ATOM     27  C   UNL     1       8.534   2.275  -4.393  0.00  0.00    -0.044 A 
ATOM     28  C   UNL     1       8.743   1.484  -3.283  0.00  0.00    -0.044 A 
ATOM     29  C   UNL     1       7.829   1.504  -2.241  0.00  0.00    +0.015 A 
ATOM     30  C   UNL     1       9.946   0.589  -3.140  0.00  0.00    +0.035 C 
ATOM     31  C   UNL     1      10.606   0.355  -4.497  0.00  0.00    +0.005 C 
ATOM     32  C   UNL     1      10.841   1.716  -5.161  0.00  0.00    +0.005 C 
ATOM     33  C   UNL     1       9.486   2.297  -5.561  0.00  0.00    +0.035 C 
ENDBRANCH  22  24
ENDBRANCH  21  22
ENDBRANCH   6  21
TORSDOF 5
