REMARK  Name = ZINC04574753
REMARK  5 active torsions:
REMARK  status: ('A' for Active; 'I' for Inactive)
REMARK    1  A    between atoms: C_1  and  C_2
REMARK    2  A    between atoms: C_3  and  C_22
REMARK    3  A    between atoms: C_4  and  C_10
REMARK    4  A    between atoms: C_19  and  O_20
REMARK    5  A    between atoms: O_20  and  C_21
REMARK                            x       y       z     vdW  Elec       q    Type
REMARK                         _______ _______ _______ _____ _____    ______ ____
ROOT
ATOM      1  C   UNL     1      -1.524   1.805  -0.422  0.00  0.00    +0.061 C 
ATOM      2  C   UNL     1      -0.155   1.211  -0.206  0.00  0.00    +0.017 C 
ATOM      3  C   UNL     1      -0.029  -0.122  -0.042  0.00  0.00    +0.055 C 
ATOM      4  C   UNL     1       1.365  -0.678   0.165  0.00  0.00    +0.143 C 
ATOM      5  N   UNL     1       2.476   0.289   0.170  0.00  0.00    -0.315 N 
ATOM      6  C   UNL     1       2.190   1.594  -0.008  0.00  0.00    +0.135 C 
ATOM      7  S   UNL     1       3.470   2.730  -0.005  0.00  0.00    -0.019 S 
ATOM      8  N   UNL     1       0.937   2.031  -0.187  0.00  0.00    -0.300 N 
ATOM      9  H   UNL     1       3.509  -0.060   0.316  0.00  0.00    +0.149 HD
ATOM     10  H   UNL     1       0.813   3.115  -0.323  0.00  0.00    +0.154 HD
ENDROOT
BRANCH   4  11
ATOM     11  C   UNL     1       1.382  -1.411   1.482  0.00  0.00    +0.027 A 
ATOM     12  C   UNL     1       1.375  -2.815   1.509  0.00  0.00    -0.009 A 
ATOM     13  C   UNL     1       1.353  -3.567   0.321  0.00  0.00    +0.009 A 
ATOM     14  C   UNL     1       1.347  -4.927   0.385  0.00  0.00    +0.001 A 
ATOM     15  C   UNL     1       1.363  -5.588   1.612  0.00  0.00    +0.001 A 
ATOM     16  C   UNL     1       1.385  -4.893   2.782  0.00  0.00    +0.008 A 
ATOM     17  C   UNL     1       1.392  -3.488   2.757  0.00  0.00    -0.017 A 
ATOM     18  C   UNL     1       1.415  -2.738   3.946  0.00  0.00    +0.012 A 
ATOM     19  C   UNL     1       1.421  -1.379   3.886  0.00  0.00    +0.046 A 
ATOM     20  C   UNL     1       1.410  -0.714   2.656  0.00  0.00    +0.126 A 
BRANCH  20  21
ATOM     21  O   UNL     1       1.423   0.645   2.628  0.00  0.00    -0.495 OA
ATOM     22  C   UNL     1       1.452   1.319   3.888  0.00  0.00    +0.277 C 
ENDBRANCH  20  21
ENDBRANCH   4  11
BRANCH   3  23
ATOM     23  C   UNL     1      -1.161  -0.973  -0.061  0.00  0.00    +0.241 C 
ATOM     24  O   UNL     1      -1.408  -1.636  -1.052  0.00  0.00    -0.271 OA
ATOM     25  N   UNL     1      -1.966  -1.049   1.017  0.00  0.00    -0.326 N 
ATOM     26  H   UNL     1      -2.845  -1.709   1.002  0.00  0.00    +0.145 HD
ATOM     27  H   UNL     1      -1.744  -0.450   1.913  0.00  0.00    +0.145 HD
ENDBRANCH   3  23
TORSDOF 3
