REMARK  Name = ZINC33071314
REMARK  4 active torsions:
REMARK  status: ('A' for Active; 'I' for Inactive)
REMARK    1  A    between atoms: C_16  and  C_19
REMARK    2  A    between atoms: N_21  and  C_22
REMARK    3  A    between atoms: C_22  and  C_23
REMARK    4  A    between atoms: C_23  and  C_24
REMARK                            x       y       z     vdW  Elec       q    Type
REMARK                         _______ _______ _______ _____ _____    ______ ____
ROOT
ATOM      1  C   UNL     1      -0.017   1.383   0.010  0.00  0.00    +0.017 A 
ATOM      2  C   UNL     1       1.164   2.098   0.002  0.00  0.00    +0.029 A 
ATOM      3  C   UNL     1       2.377   1.427  -0.013  0.00  0.00    +0.067 A 
ATOM      4  C   UNL     1       2.402   0.023  -0.021  0.00  0.00    +0.092 A 
ATOM      5  C   UNL     1       1.199  -0.687  -0.013  0.00  0.00    +0.045 A 
ATOM      6  C   UNL     1       0.002  -0.004   0.002  0.00  0.00    +0.020 A 
ATOM      7 BR   UNL     1      -1.627  -0.965   0.013  0.00  0.00    -0.050 Br
ATOM      8  N   UNL     1       3.708  -0.353  -0.036  0.00  0.00    -0.214 NA
ATOM      9  C   UNL     1       4.472   0.710  -0.038  0.00  0.00    +0.197 A 
ATOM     10  N   UNL     1       3.700   1.837  -0.024  0.00  0.00    -0.326 N 
ATOM     11  H   UNL     1       4.020   2.753  -0.022  0.00  0.00    +0.169 HD
ATOM     12  N   UNL     1       5.851   0.695  -0.051  0.00  0.00    -0.300 N 
ATOM     13  C   UNL     1       6.614   1.951  -0.045  0.00  0.00    +0.108 C 
ATOM     14  C   UNL     1       7.617   1.913   1.112  0.00  0.00    +0.020 C 
ATOM     15  C   UNL     1       8.479   0.654   0.994  0.00  0.00    +0.016 C 
ATOM     16  C   UNL     1       7.588  -0.587   1.086  0.00  0.00    +0.092 C 
ATOM     17  C   UNL     1       6.585  -0.578  -0.066  0.00  0.00    +0.120 C 
ENDROOT
BRANCH  16  18
ATOM     18  C   UNL     1       8.442  -1.826   1.002  0.00  0.00    +0.218 C 
ATOM     19  O   UNL     1       8.265  -2.625   0.107  0.00  0.00    -0.275 OA
ATOM     20  N   UNL     1       9.402  -2.046   1.922  0.00  0.00    -0.315 N 
ATOM     21  H   UNL     1       9.544  -1.407   2.638  0.00  0.00    +0.149 HD
BRANCH  20  22
ATOM     22  C   UNL     1      10.232  -3.250   1.841  0.00  0.00    +0.108 C 
BRANCH  22  23
ATOM     23  C   UNL     1      11.236  -3.257   2.995  0.00  0.00    +0.049 C 
BRANCH  23  24
ATOM     24  C   UNL     1      12.090  -4.496   2.912  0.00  0.00    -0.072 C 
ATOM     25  C   UNL     1      13.235  -4.405   2.316  0.00  0.00    -0.028 C 
ATOM     26  C   UNL     1      14.188  -5.551   2.145  0.00  0.00    +0.027 C 
ATOM     27  C   UNL     1      13.830  -6.682   3.112  0.00  0.00    +0.004 C 
ATOM     28  C   UNL     1      12.328  -6.968   2.989  0.00  0.00    +0.005 C 
ATOM     29  C   UNL     1      11.562  -5.757   3.531  0.00  0.00    +0.030 C 
ENDBRANCH  23  24
ENDBRANCH  22  23
ENDBRANCH  20  22
ENDBRANCH  16  18
TORSDOF 4
