REMARK  Name = ZINC49458245
REMARK  5 active torsions:
REMARK  status: ('A' for Active; 'I' for Inactive)
REMARK    1  A    between atoms: C_1  and  N_2
REMARK    2  A    between atoms: N_5  and  N_6
REMARK    3  A    between atoms: C_7  and  C_9
REMARK    4  A    between atoms: C_11  and  S_15
REMARK    5  A    between atoms: S_15  and  N_18
REMARK                            x       y       z     vdW  Elec       q    Type
REMARK                         _______ _______ _______ _____ _____    ______ ____
ROOT
ATOM      1  C   UNL     1       1.382  -4.788  -0.037  0.00  0.00    +0.078 A 
ATOM      2  C   UNL     1       1.619  -6.154  -0.052  0.00  0.00    +0.050 A 
ATOM      3  C   UNL     1       2.940  -6.531  -0.065  0.00  0.00    +0.127 A 
ATOM      4  C   UNL     1       3.899  -5.571  -0.062  0.00  0.00    +0.082 A 
ATOM      5  S   UNL     1       3.038  -4.128  -0.050  0.00  0.00    -0.075 S 
ATOM      6 BR   UNL     1       5.776  -5.803  -0.077  0.00  0.00    -0.041 Br
ENDROOT
BRANCH   1   8
ATOM      7  N   UNL     1       0.085  -2.725  -0.013  0.00  0.00    -0.229 N 
ATOM      8  C   UNL     1       0.103  -4.073  -0.021  0.00  0.00    +0.267 C 
ATOM      9  O   UNL     1      -0.942  -4.696  -0.014  0.00  0.00    -0.268 OA
ATOM     10  H   UNL     1       0.918  -2.229  -0.019  0.00  0.00    +0.173 HD
BRANCH   7  15
ATOM     11  C   UNL     1      -0.018   1.461   0.010  0.00  0.00    +0.129 C 
ATOM     12  N   UNL     1       0.002  -0.004   0.002  0.00  0.00    -0.301 N 
ATOM     13  C   UNL     1      -1.156  -0.694   0.009  0.00  0.00    +0.316 C 
ATOM     14  O   UNL     1      -2.217  -0.100   0.023  0.00  0.00    -0.251 OA
ATOM     15  N   UNL     1      -1.137  -2.041   0.002  0.00  0.00    -0.218 N 
ATOM     16  H   UNL     1       0.849  -0.478  -0.009  0.00  0.00    +0.150 HD
ATOM     17  H   UNL     1      -1.971  -2.538   0.007  0.00  0.00    +0.174 HD
ENDBRANCH   7  15
ENDBRANCH   1   8
BRANCH   3  18
ATOM     18  S   UNL     1       3.383  -8.236  -0.085  0.00  0.00    +0.058 S 
ATOM     19  O   UNL     1       4.359  -8.414   0.932  0.00  0.00    -0.153 OA
ATOM     20  O   UNL     1       2.167  -8.972  -0.110  0.00  0.00    -0.153 OA
BRANCH  18  21
ATOM     21  N   UNL     1       4.143  -8.529  -1.527  0.00  0.00    -0.203 NA
ATOM     22  H   UNL     1       4.823  -9.217  -1.585  0.00  0.00    +0.144 HD
ATOM     23  H   UNL     1       3.908  -8.011  -2.312  0.00  0.00    +0.144 HD
ENDBRANCH  18  21
ENDBRANCH   3  18
TORSDOF 4
