REMARK  Name = ZINC48310196
REMARK  11 active torsions:
REMARK  status: ('A' for Active; 'I' for Inactive)
REMARK    1  A    between atoms: C_1  and  C_2
REMARK    2  A    between atoms: C_2  and  C_3
REMARK    3  A    between atoms: C_3  and  C_4
REMARK    4  A    between atoms: C_4  and  N_5
REMARK    5  A    between atoms: N_5  and  C_6
REMARK    6  A    between atoms: C_9  and  S_28
REMARK    7  A    between atoms: C_11  and  N_12
REMARK    8  A    between atoms: N_12  and  S_13
REMARK    9  A    between atoms: S_13  and  C_16
REMARK   10  A    between atoms: C_19  and  C_22
REMARK   11  A    between atoms: S_28  and  N_31
REMARK                            x       y       z     vdW  Elec       q    Type
REMARK                         _______ _______ _______ _____ _____    ______ ____
ROOT
ATOM      1  C   UNL     1       1.833  -3.704   2.491  0.00  0.00    +0.050 A 
ATOM      2  C   UNL     1       1.429  -4.516   1.442  0.00  0.00    +0.027 A 
ATOM      3  C   UNL     1       1.593  -5.887   1.527  0.00  0.00    +0.030 A 
ATOM      4  C   UNL     1       2.159  -6.451   2.655  0.00  0.00    +0.107 A 
ATOM      5  C   UNL     1       2.564  -5.649   3.705  0.00  0.00    +0.054 A 
ATOM      6  C   UNL     1       2.409  -4.273   3.626  0.00  0.00    +0.071 A 
ENDROOT
BRANCH   4   7
ATOM      7  S   UNL     1       2.363  -8.198   2.755  0.00  0.00    +0.056 S 
ATOM      8  O   UNL     1       2.416  -8.523   4.137  0.00  0.00    -0.153 OA
ATOM      9  O   UNL     1       1.405  -8.770   1.874  0.00  0.00    -0.153 OA
BRANCH   7  10
ATOM     10  N   UNL     1       3.854  -8.554   2.128  0.00  0.00    -0.204 NA
ATOM     11  H   UNL     1       4.346  -9.323   2.454  0.00  0.00    +0.144 HD
ATOM     12  H   UNL     1       4.235  -7.992   1.434  0.00  0.00    +0.144 HD
ENDBRANCH   7  10
ENDBRANCH   4   7
BRANCH   1  13
ATOM     13  N   UNL     1       1.669  -2.316   2.407  0.00  0.00    -0.342 N 
ATOM     14  H   UNL     1       1.956  -1.748   3.139  0.00  0.00    +0.146 HD
BRANCH  13  15
ATOM     15  C   UNL     1       1.064  -1.720   1.213  0.00  0.00    +0.101 C 
BRANCH  15  16
ATOM     16  C   UNL     1       1.002  -0.201   1.377  0.00  0.00    +0.018 C 
BRANCH  16  18
ATOM     17  C   UNL     1       0.308   1.941   0.293  0.00  0.00    +0.004 C 
ATOM     18  C   UNL     1       0.370   0.421   0.130  0.00  0.00    -0.002 C 
ENDBRANCH  16  18
ENDBRANCH  15  16
ENDBRANCH  13  15
ENDBRANCH   1  13
BRANCH   6  19
ATOM     19  N   UNL     1       2.824  -3.458   4.686  0.00  0.00    -0.214 N 
ATOM     20  H   UNL     1       2.319  -2.660   4.912  0.00  0.00    +0.174 HD
BRANCH  19  21
ATOM     21  S   UNL     1       4.176  -3.855   5.556  0.00  0.00    +0.072 S 
ATOM     22  O   UNL     1       4.408  -2.782   6.459  0.00  0.00    -0.150 OA
ATOM     23  O   UNL     1       3.998  -5.195   5.994  0.00  0.00    -0.150 OA
BRANCH  21  24
ATOM     24  C   UNL     1       5.533  -3.869   4.431  0.00  0.00    +0.109 A 
ATOM     25  C   UNL     1       5.865  -5.032   3.763  0.00  0.00    +0.029 A 
ATOM     26  C   UNL     1       6.929  -5.043   2.881  0.00  0.00    +0.006 A 
ATOM     27  C   UNL     1       7.661  -3.890   2.667  0.00  0.00    -0.044 A 
ATOM     28  C   UNL     1       7.329  -2.727   3.335  0.00  0.00    +0.006 A 
ATOM     29  C   UNL     1       6.262  -2.715   4.214  0.00  0.00    +0.029 A 
BRANCH  27  30
ATOM     30  C   UNL     1       8.822  -3.902   1.706  0.00  0.00    +0.019 C 
ATOM     31  C   UNL     1      10.104  -3.524   2.450  0.00  0.00    +0.008 C 
ATOM     32  C   UNL     1      11.283  -3.536   1.475  0.00  0.00    +0.001 C 
ATOM     33  C   UNL     1      11.027  -2.527   0.354  0.00  0.00    +0.000 C 
ATOM     34  C   UNL     1       9.745  -2.906  -0.391  0.00  0.00    +0.001 C 
ATOM     35  C   UNL     1       8.567  -2.893   0.585  0.00  0.00    +0.008 C 
ENDBRANCH  27  30
ENDBRANCH  21  24
ENDBRANCH  19  21
ENDBRANCH   6  19
TORSDOF 10
