REMARK  Name = ZINC60127821
REMARK  8 active torsions:
REMARK  status: ('A' for Active; 'I' for Inactive)
REMARK    1  A    between atoms: C_1  and  C_2
REMARK    2  A    between atoms: C_2  and  C_3
REMARK    3  A    between atoms: C_2  and  C_4
REMARK    4  A    between atoms: C_2  and  N_5
REMARK    5  A    between atoms: N_14  and  C_15
REMARK    6  A    between atoms: C_15  and  C_17
REMARK    7  A    between atoms: C_17  and  N_18
REMARK    8  A    between atoms: C_19  and  C_21
REMARK                            x       y       z     vdW  Elec       q    Type
REMARK                         _______ _______ _______ _____ _____    ______ ____
ROOT
ATOM      1  N   UNL     1       0.700  -0.476  -1.196  0.00  0.00    -0.306 N 
ATOM      2  C   UNL     1       0.908  -1.806  -1.546  0.00  0.00    +0.068 A 
ATOM      3  C   UNL     1       0.580  -3.009  -0.936  0.00  0.00    +0.028 A 
ATOM      4  C   UNL     1       0.927  -4.202  -1.537  0.00  0.00    +0.002 A 
ATOM      5  C   UNL     1       1.603  -4.204  -2.746  0.00  0.00    +0.002 A 
ATOM      6  C   UNL     1       1.935  -3.013  -3.360  0.00  0.00    +0.028 A 
ATOM      7  C   UNL     1       1.590  -1.808  -2.765  0.00  0.00    +0.066 A 
ATOM      8  N   UNL     1       1.781  -0.480  -3.129  0.00  0.00    -0.326 N 
ATOM      9  C   UNL     1       1.231   0.309  -2.170  0.00  0.00    +0.202 A 
ATOM     10  N   UNL     1       1.216   1.639  -2.180  0.00  0.00    -0.145 NA
ATOM     11  H   UNL     1       2.228  -0.170  -3.933  0.00  0.00    +0.169 HD
ENDROOT
BRANCH   1  13
ATOM     12  C   UNL     1      -0.005   1.527   0.018  0.00  0.00    +0.034 C 
ATOM     13  C   UNL     1       0.020  -0.003   0.013  0.00  0.00    +0.040 C 
ATOM     14  C   UNL     1       0.769  -0.505   1.249  0.00  0.00    +0.034 C 
ATOM     15  C   UNL     1      -1.413  -0.537   0.034  0.00  0.00    +0.034 C 
ENDBRANCH   1  13
BRANCH  10  16
ATOM     16  C   UNL     1       1.863   2.304  -3.133  0.00  0.00    +0.256 C 
ATOM     17  O   UNL     1       2.386   1.698  -4.048  0.00  0.00    -0.272 OA
BRANCH  16  18
ATOM     18  C   UNL     1       1.946   3.807  -3.080  0.00  0.00    +0.202 C 
BRANCH  18  19
ATOM     19  N   UNL     1       2.704   4.296  -4.234  0.00  0.00    -0.300 N 
ATOM     20  C   UNL     1       2.908   5.618  -4.396  0.00  0.00    +0.280 C 
ATOM     21  O   UNL     1       2.462   6.407  -3.583  0.00  0.00    -0.267 OA
ATOM     22  H   UNL     1       3.059   3.667  -4.882  0.00  0.00    +0.150 HD
BRANCH  20  23
ATOM     23  C   UNL     1       3.667   6.107  -5.551  0.00  0.00    +0.191 A 
ATOM     24  C   UNL     1       3.949   7.413  -5.831  0.00  0.00    +0.056 A 
ATOM     25  C   UNL     1       4.690   7.420  -7.022  0.00  0.00    +0.058 A 
ATOM     26  C   UNL     1       4.826   6.132  -7.414  0.00  0.00    +0.171 A 
ATOM     27  O   UNL     1       4.213   5.344  -6.521  0.00  0.00    -0.444 OA
ATOM     28 BR   UNL     1       5.738   5.542  -8.962  0.00  0.00    -0.008 Br
ENDBRANCH  20  23
ENDBRANCH  18  19
ENDBRANCH  16  18
ENDBRANCH  10  16
TORSDOF 5
