REMARK  Name = ZINC08800184
REMARK  7 active torsions:
REMARK  status: ('A' for Active; 'I' for Inactive)
REMARK    1  A    between atoms: C_1  and  N_2
REMARK    2  A    between atoms: C_10  and  C_12
REMARK    3  A    between atoms: C_12  and  C_14
REMARK    4  A    between atoms: C_12  and  N_60
REMARK    5  A    between atoms: C_14  and  N_15
REMARK    6  A    between atoms: N_15  and  S_16
REMARK    7  A    between atoms: S_16  and  C_19
REMARK                            x       y       z     vdW  Elec       q    Type
REMARK                         _______ _______ _______ _____ _____    ______ ____
ROOT
ATOM      1  C   UNL     1      -0.635   1.895   2.576  0.00  0.00    -0.022 C 
ENDROOT
BRANCH   1  11
ATOM      2  C   UNL     1       4.296  -1.448   4.680  0.00  0.00    +0.129 C 
ATOM      3  N   UNL     1       2.909  -1.869   4.918  0.00  0.00    -0.333 N 
ATOM      4  C   UNL     1       2.679  -2.142   6.338  0.00  0.00    +0.105 C 
ATOM      5  C   UNL     1       1.213  -2.550   6.529  0.00  0.00    +0.024 C 
ATOM      6  C   UNL     1       0.343  -1.321   6.253  0.00  0.00    +0.038 C 
ATOM      7  C   UNL     1       0.788  -0.662   4.971  0.00  0.00    -0.026 A 
ATOM      8  C   UNL     1       2.008  -0.948   4.385  0.00  0.00    +0.033 A 
ATOM      9  C   UNL     1       2.370  -0.298   3.204  0.00  0.00    +0.023 A 
ATOM     10  C   UNL     1       1.516   0.613   2.619  0.00  0.00    +0.004 A 
ATOM     11  C   UNL     1       0.299   0.896   3.211  0.00  0.00    -0.059 A 
ATOM     12  C   UNL     1      -0.063   0.259   4.381  0.00  0.00    +0.007 A 
ENDBRANCH   1  11
BRANCH   1  18
ATOM     13  C   UNL     1       1.287   3.350   2.356  0.00  0.00    -0.078 C 
ATOM     14  C   UNL     1       1.751   4.806   2.450  0.00  0.00    -0.019 C 
ATOM     15  C   UNL     1       1.604   5.291   3.895  0.00  0.00    -0.004 C 
ATOM     16  C   UNL     1       0.145   5.133   4.332  0.00  0.00    -0.019 C 
ATOM     17  C   UNL     1      -0.272   3.668   4.183  0.00  0.00    -0.078 C 
ATOM     18  N   UNL     1      -0.131   3.271   2.766  0.00  0.00    +0.385 N 
ATOM     19  H   UNL     1      -0.683   3.912   2.184  0.00  0.00    -0.081 HD
ENDBRANCH   1  18
BRANCH   1  20
ATOM     20  C   UNL     1      -0.739   1.613   1.075  0.00  0.00    +0.095 C 
BRANCH  20  21
ATOM     21  N   UNL     1      -1.550   2.654   0.439  0.00  0.00    -0.191 NA
ATOM     22  H   UNL     1      -2.075   3.261   0.983  0.00  0.00    +0.148 HD
BRANCH  21  23
ATOM     23  S   UNL     1      -1.572   2.792  -1.212  0.00  0.00    +0.059 S 
ATOM     24  O   UNL     1      -2.528   3.797  -1.522  0.00  0.00    -0.153 OA
ATOM     25  O   UNL     1      -0.216   2.875  -1.630  0.00  0.00    -0.153 OA
BRANCH  23  26
ATOM     26  C   UNL     1      -2.206   1.279  -1.853  0.00  0.00    +0.119 A 
ATOM     27  C   UNL     1      -1.387   0.443  -2.590  0.00  0.00    +0.029 A 
ATOM     28  C   UNL     1      -1.883  -0.746  -3.090  0.00  0.00    +0.002 A 
ATOM     29  C   UNL     1      -3.201  -1.096  -2.862  0.00  0.00    +0.001 A 
ATOM     30  C   UNL     1      -4.022  -0.259  -2.130  0.00  0.00    +0.017 A 
ATOM     31  C   UNL     1      -3.525   0.929  -1.625  0.00  0.00    +0.044 A 
ATOM     32 BR   UNL     1      -4.647   2.075  -0.625  0.00  0.00    -0.048 Br
ENDBRANCH  23  26
ENDBRANCH  21  23
ENDBRANCH  20  21
ENDBRANCH   1  20
TORSDOF 6
