REMARK  Name = ZINC04978929
REMARK  9 active torsions:
REMARK  status: ('A' for Active; 'I' for Inactive)
REMARK    1  A    between atoms: C_1  and  C_2
REMARK    2  A    between atoms: C_4  and  C_8
REMARK    3  A    between atoms: C_5  and  C_7
REMARK    4  A    between atoms: C_15  and  N_31
REMARK    5  A    between atoms: C_16  and  C_29
REMARK    6  A    between atoms: C_17  and  C_19
REMARK    7  A    between atoms: C_22  and  C_25
REMARK    8  A    between atoms: C_25  and  O_27
REMARK    9  A    between atoms: O_27  and  C_28
REMARK                            x       y       z     vdW  Elec       q    Type
REMARK                         _______ _______ _______ _____ _____    ______ ____
ROOT
ATOM      1  C   UNL     1      -1.850  -3.152  -0.041  0.00  0.00    +0.101 A 
ATOM      2  C   UNL     1      -3.218  -2.893   0.078  0.00  0.00    +0.054 A 
ATOM      3  C   UNL     1      -3.879  -4.087   0.041  0.00  0.00    +0.223 A 
ATOM      4  N   UNL     1      -2.957  -5.062  -0.095  0.00  0.00    -0.246 N 
ATOM      5  H   UNL     1      -3.137  -6.014  -0.149  0.00  0.00    +0.192 HD
ATOM      6  N   UNL     1      -1.691  -4.457  -0.150  0.00  0.00    -0.171 NA
ATOM      7  O   UNL     1      -5.229  -4.180   0.130  0.00  0.00    -0.423 OA
ATOM      8  C   UNL     1      -5.944  -3.046  -0.017  0.00  0.00    +0.200 C 
ATOM      9  C   UNL     1      -5.405  -1.807   0.014  0.00  0.00    +0.098 C 
ATOM     10  C   UNL     1      -3.930  -1.573   0.226  0.00  0.00    +0.102 C 
ENDROOT
BRANCH   1  14
ATOM     11  C   UNL     1       0.269   1.197  -1.586  0.00  0.00    +0.051 C 
ATOM     12  C   UNL     1       0.143  -0.097  -0.824  0.00  0.00    -0.012 A 
ATOM     13  C   UNL     1      -0.864  -0.999  -0.844  0.00  0.00    +0.021 A 
ATOM     14  C   UNL     1      -0.766  -2.137  -0.049  0.00  0.00    +0.013 A 
ATOM     15  C   UNL     1       0.348  -2.299   0.724  0.00  0.00    -0.004 A 
ATOM     16  S   UNL     1       1.288  -0.834   0.330  0.00  0.00    -0.098 S 
ATOM     17  C   UNL     1       0.697  -3.426   1.662  0.00  0.00    +0.052 C 
ENDBRANCH   1  14
BRANCH  10  18
ATOM     18  C   UNL     1      -3.696  -1.021   1.608  0.00  0.00    -0.035 A 
ATOM     19  C   UNL     1      -4.038  -1.773   2.717  0.00  0.00    +0.005 A 
ATOM     20  C   UNL     1      -3.826  -1.274   3.986  0.00  0.00    +0.015 A 
ATOM     21  C   UNL     1      -3.265  -0.006   4.148  0.00  0.00    +0.059 A 
ATOM     22  C   UNL     1      -2.922   0.748   3.024  0.00  0.00    +0.015 A 
ATOM     23  C   UNL     1      -3.134   0.234   1.762  0.00  0.00    +0.005 A 
BRANCH  21  24
ATOM     24  C   UNL     1      -3.035   0.536   5.503  0.00  0.00    +0.339 C 
ATOM     25  O   UNL     1      -3.335  -0.122   6.479  0.00  0.00    -0.245 OA
BRANCH  24  26
ATOM     26  O   UNL     1      -2.494   1.760   5.657  0.00  0.00    -0.464 OA
ATOM     27  C   UNL     1      -2.300   2.220   6.996  0.00  0.00    +0.280 C 
ENDBRANCH  24  26
ENDBRANCH  21  24
ENDBRANCH  10  18
BRANCH   8  28
ATOM     28  N   UNL     1      -7.299  -3.157  -0.211  0.00  0.00    -0.328 N 
ATOM     29  H   UNL     1      -7.715  -4.033  -0.238  0.00  0.00    +0.145 HD
ATOM     30  H   UNL     1      -7.840  -2.359  -0.320  0.00  0.00    +0.145 HD
ENDBRANCH   8  28
BRANCH   9  31
ATOM     31  C   UNL     1      -6.265  -0.676  -0.160  0.00  0.00    +0.101 C 
ATOM     32  N   UNL     1      -6.948   0.222  -0.298  0.00  0.00    -0.191 NA
ENDBRANCH   9  31
TORSDOF 6
