REMARK  Name = ZINC33533360
REMARK  11 active torsions:
REMARK  status: ('A' for Active; 'I' for Inactive)
REMARK    1  A    between atoms: C_1  and  C_2
REMARK    2  A    between atoms: C_2  and  C_4
REMARK    3  A    between atoms: C_2  and  O_36
REMARK    4  A    between atoms: C_4  and  C_33
REMARK    5  A    between atoms: C_9  and  C_12
REMARK    6  A    between atoms: C_15  and  O_22
REMARK    7  A    between atoms: O_22  and  C_23
REMARK    8  A    between atoms: N_26  and  C_29
REMARK    9  A    between atoms: C_29  and  C_30
REMARK   10  A    between atoms: C_29  and  C_31
REMARK   11  A    between atoms: C_29  and  C_32
REMARK                            x       y       z     vdW  Elec       q    Type
REMARK                         _______ _______ _______ _____ _____    ______ ____
ROOT
ATOM      1  C   UNL     1      -7.199  -1.001  -0.140  0.00  0.00    +0.074 C 
ATOM      2  C   UNL     1      -6.918   0.442  -0.046  0.00  0.00    +0.088 C 
ATOM      3  C   UNL     1      -6.874   0.665   1.514  0.00  0.00    +0.077 C 
ATOM      4  C   UNL     1      -5.965  -0.496   1.882  0.00  0.00    -0.026 C 
ATOM      5  N   UNL     1      -6.278  -1.577   0.899  0.00  0.00    +0.397 N 
ATOM      6  C   UNL     1      -6.369   2.073   1.477  0.00  0.00    +0.225 C 
ATOM      7  O   UNL     1      -5.626   2.603   2.275  0.00  0.00    -0.275 OA
ATOM      8  N   UNL     1      -6.917   2.639   0.360  0.00  0.00    -0.236 N 
ATOM      9  C   UNL     1      -7.440   1.708  -0.495  0.00  0.00    +0.225 C 
ATOM     10  O   UNL     1      -8.183   1.909  -1.431  0.00  0.00    -0.275 OA
ATOM     11  H   UNL     1      -6.775  -2.419   1.404  0.00  0.00    -0.083 HD
ATOM     12  H   UNL     1      -5.356  -1.933   0.416  0.00  0.00    -0.083 HD
ENDROOT
BRANCH   4  13
ATOM     13  C   UNL     1      -4.520  -0.084   1.761  0.00  0.00    -0.053 A 
ATOM     14  C   UNL     1      -3.844  -0.297   0.598  0.00  0.00    +0.006 A 
ATOM     15  C   UNL     1      -2.509   0.074   0.466  0.00  0.00    +0.046 A 
ATOM     16  C   UNL     1      -1.838   0.664   1.500  0.00  0.00    +0.128 A 
ATOM     17  C   UNL     1      -2.506   0.895   2.719  0.00  0.00    +0.024 A 
ATOM     18  C   UNL     1      -3.866   0.521   2.848  0.00  0.00    -0.013 A 
ATOM     19  C   UNL     1      -4.534   0.755   4.062  0.00  0.00    +0.009 A 
ATOM     20  C   UNL     1      -3.863   1.329   5.099  0.00  0.00    +0.001 A 
ATOM     21  C   UNL     1      -2.527   1.702   4.970  0.00  0.00    +0.001 A 
ATOM     22  C   UNL     1      -1.850   1.494   3.807  0.00  0.00    +0.012 A 
BRANCH  16  23
ATOM     23  O   UNL     1      -0.536   1.021   1.355  0.00  0.00    -0.495 OA
ATOM     24  C   UNL     1       0.074   0.749   0.091  0.00  0.00    +0.277 C 
ENDBRANCH  16  23
ENDBRANCH   4  13
BRANCH   8  25
ATOM     25  C   UNL     1      -6.952   4.083   0.115  0.00  0.00    +0.036 C 
ATOM     26  C   UNL     1      -6.293   4.815   1.286  0.00  0.00    +0.031 C 
ATOM     27  C   UNL     1      -6.195   4.400  -1.176  0.00  0.00    +0.031 C 
ATOM     28  C   UNL     1      -8.405   4.542  -0.020  0.00  0.00    +0.031 C 
ENDBRANCH   8  25
BRANCH   1  29
ATOM     29  C   UNL     1      -6.858  -1.530  -1.510  0.00  0.00    +0.349 C 
ATOM     30  O   UNL     1      -6.953  -0.810  -2.476  0.00  0.00    -0.248 OA
ATOM     31  O   UNL     1      -6.450  -2.800  -1.656  0.00  0.00    -0.248 OA
ENDBRANCH   1  29
BRANCH   1  33
ATOM     32  C   UNL     1      -9.560  -0.819  -0.938  0.00  0.00    +0.037 C 
ATOM     33  C   UNL     1      -8.660  -1.294   0.205  0.00  0.00    +0.112 C 
BRANCH  33  34
ATOM     34  O   UNL     1      -8.832  -2.700   0.394  0.00  0.00    -0.393 OA
ATOM     35  H   UNL     1      -8.264  -3.224   1.177  0.00  0.00    +0.210 HD
ENDBRANCH  33  34
ENDBRANCH   1  33
TORSDOF 6
