REMARK  Name = ZINC12497340
REMARK  15 active torsions:
REMARK  status: ('A' for Active; 'I' for Inactive)
REMARK    1  A    between atoms: C_1  and  C_2
REMARK    2  A    between atoms: C_2  and  C_3
REMARK    3  A    between atoms: C_3  and  C_34
REMARK    4  A    between atoms: C_8  and  C_10
REMARK    5  A    between atoms: C_12  and  O_20
REMARK    6  A    between atoms: C_13  and  O_18
REMARK    7  A    between atoms: C_14  and  O_16
REMARK    8  A    between atoms: O_16  and  C_17
REMARK    9  A    between atoms: O_18  and  C_19
REMARK   10  A    between atoms: O_20  and  C_21
REMARK   11  A    between atoms: N_24  and  C_27
REMARK   12  A    between atoms: C_30  and  C_33
REMARK   13  A    between atoms: C_34  and  O_36
REMARK   14  A    between atoms: O_36  and  C_37
REMARK   15  A    between atoms: C_37  and  C_38
REMARK                            x       y       z     vdW  Elec       q    Type
REMARK                         _______ _______ _______ _____ _____    ______ ____
ROOT
ATOM      1  C   UNL     1      -1.728   0.679   1.547  0.00  0.00    +0.043 C 
ATOM      2  C   UNL     1      -0.414   1.456   1.491  0.00  0.00    +0.086 C 
ATOM      3  C   UNL     1      -0.013   1.086   0.008  0.00  0.00    +0.077 C 
ATOM      4  C   UNL     1      -1.260   1.393  -0.713  0.00  0.00    -0.026 C 
ATOM      5  C   UNL     1       1.390   1.418  -0.004  0.00  0.00    +0.229 C 
ATOM      6  O   UNL     1       2.035   1.876  -0.922  0.00  0.00    -0.275 OA
ATOM      7  N   UNL     1       1.836   1.100   1.256  0.00  0.00    -0.210 N 
ATOM      8  C   UNL     1       0.816   0.876   2.136  0.00  0.00    +0.229 C 
ATOM      9  O   UNL     1       0.886   0.325   3.213  0.00  0.00    -0.275 OA
ATOM     10  N   UNL     1      -2.287   0.770   0.173  0.00  0.00    +0.395 N 
ATOM     11  H   UNL     1      -3.135   1.348   0.181  0.00  0.00    -0.083 HD
ATOM     12  H   UNL     1      -2.517  -0.170  -0.170  0.00  0.00    -0.083 HD
ENDROOT
BRANCH   7  13
ATOM     13  C   UNL     1       3.192   1.014   1.601  0.00  0.00    +0.044 A 
ATOM     14  C   UNL     1       3.560   0.691   2.900  0.00  0.00    +0.024 A 
ATOM     15  C   UNL     1       4.897   0.603   3.236  0.00  0.00    +0.005 A 
ATOM     16  C   UNL     1       5.868   0.845   2.282  0.00  0.00    -0.050 A 
ATOM     17  C   UNL     1       5.505   1.171   0.988  0.00  0.00    +0.005 A 
ATOM     18  C   UNL     1       4.170   1.256   0.645  0.00  0.00    +0.024 A 
ATOM     19  C   UNL     1       7.326   0.753   2.653  0.00  0.00    +0.044 C 
ENDBRANCH   7  13
BRANCH   4  20
ATOM     20  C   UNL     1      -1.273   0.736  -2.069  0.00  0.00    -0.053 A 
ATOM     21  C   UNL     1      -1.591  -0.605  -2.183  0.00  0.00    +0.051 A 
ATOM     22  C   UNL     1      -1.609  -1.211  -3.430  0.00  0.00    +0.165 A 
ATOM     23  C   UNL     1      -1.296  -0.472  -4.565  0.00  0.00    +0.204 A 
ATOM     24  C   UNL     1      -0.970   0.874  -4.445  0.00  0.00    +0.165 A 
ATOM     25  C   UNL     1      -0.960   1.474  -3.195  0.00  0.00    +0.051 A 
BRANCH  24  26
ATOM     26  O   UNL     1      -0.662   1.601  -5.553  0.00  0.00    -0.491 OA
ATOM     27  C   UNL     1      -0.338   2.978  -5.354  0.00  0.00    +0.277 C 
ENDBRANCH  24  26
BRANCH  23  28
ATOM     28  O   UNL     1      -1.307  -1.065  -5.790  0.00  0.00    -0.488 OA
ATOM     29  C   UNL     1      -0.085  -1.657  -6.236  0.00  0.00    +0.277 C 
ENDBRANCH  23  28
BRANCH  22  30
ATOM     30  O   UNL     1      -1.929  -2.528  -3.542  0.00  0.00    -0.491 OA
ATOM     31  C   UNL     1      -2.240  -3.225  -2.334  0.00  0.00    +0.277 C 
ENDBRANCH  22  30
ENDBRANCH   4  20
BRANCH   1  33
ATOM     32  C   UNL     1      -2.774  -1.570   1.849  0.00  0.00    +0.003 C 
ATOM     33  C   UNL     1      -1.465  -0.781   1.920  0.00  0.00    -0.004 C 
ENDBRANCH   1  33
BRANCH   1  34
ATOM     34  C   UNL     1      -2.667   1.312   2.541  0.00  0.00    +0.297 C 
ATOM     35  O   UNL     1      -2.227   1.970   3.454  0.00  0.00    -0.252 OA
BRANCH  34  36
ATOM     36  O   UNL     1      -3.993   1.145   2.413  0.00  0.00    -0.466 OA
BRANCH  36  37
ATOM     37  C   UNL     1      -4.837   1.783   3.408  0.00  0.00    +0.228 C 
ATOM     38  C   UNL     1      -6.305   1.482   3.100  0.00  0.00    +0.048 C 
ENDBRANCH  36  37
ENDBRANCH  34  36
ENDBRANCH   1  34
TORSDOF 9
