REMARK  Name = ZINC60208097
REMARK  7 active torsions:
REMARK  status: ('A' for Active; 'I' for Inactive)
REMARK    1  A    between atoms: C_1  and  C_2
REMARK    2  A    between atoms: C_2  and  C_3
REMARK    3  A    between atoms: C_2  and  C_4
REMARK    4  A    between atoms: C_2  and  C_28
REMARK    5  A    between atoms: C_4  and  N_5
REMARK    6  A    between atoms: C_6  and  C_8
REMARK    7  A    between atoms: C_12  and  N_14
REMARK                            x       y       z     vdW  Elec       q    Type
REMARK                         _______ _______ _______ _____ _____    ______ ____
ROOT
ATOM      1  C   UNL     1      -4.240   0.510   2.507  0.00  0.00    +0.039 A 
ATOM      2  C   UNL     1      -3.420   0.876   3.576  0.00  0.00    +0.013 A 
ATOM      3  C   UNL     1      -3.923   0.883   4.861  0.00  0.00    +0.003 A 
ATOM      4  C   UNL     1      -5.239   0.529   5.095  0.00  0.00    +0.025 A 
ATOM      5  C   UNL     1      -6.063   0.162   4.038  0.00  0.00    +0.057 A 
ATOM      6  C   UNL     1      -5.569   0.158   2.743  0.00  0.00    +0.038 A 
ENDROOT
BRANCH   5   7
ATOM      7  N   UNL     1      -7.394  -0.196   4.280  0.00  0.00    -0.188 N 
ATOM      8  C   UNL     1      -8.174   0.591   5.051  0.00  0.00    +0.240 C 
ATOM      9  O   UNL     1      -7.741   1.634   5.492  0.00  0.00    -0.273 OA
ATOM     10  C   UNL     1      -9.584   0.166   5.360  0.00  0.00    +0.093 C 
ATOM     11  C   UNL     1     -10.051   0.788   6.678  0.00  0.00    +0.040 C 
ATOM     12  C   UNL     1     -11.349   0.161   7.101  0.00  0.00    -0.030 C 
ATOM     13  C   UNL     1     -11.799  -0.960   6.635  0.00  0.00    -0.030 C 
ATOM     14  C   UNL     1     -11.090  -1.790   5.602  0.00  0.00    +0.040 C 
ATOM     15  C   UNL     1      -9.627  -1.363   5.501  0.00  0.00    +0.092 C 
ATOM     16  C   UNL     1      -8.971  -1.984   4.296  0.00  0.00    +0.234 C 
ATOM     17  O   UNL     1      -9.390  -3.028   3.845  0.00  0.00    -0.274 OA
ATOM     18  N   UNL     1      -7.917  -1.368   3.717  0.00  0.00    -0.227 N 
ATOM     19  H   UNL     1      -7.519  -1.739   2.914  0.00  0.00    +0.173 HD
ENDBRANCH   5   7
BRANCH   1  21
ATOM     20  N   UNL     1      -2.419   0.842   0.905  0.00  0.00    -0.311 N 
ATOM     21  C   UNL     1      -3.704   0.501   1.130  0.00  0.00    +0.244 C 
ATOM     22  O   UNL     1      -4.421   0.187   0.200  0.00  0.00    -0.270 OA
ATOM     23  H   UNL     1      -1.847   1.093   1.647  0.00  0.00    +0.149 HD
BRANCH  20  24
ATOM     24  C   UNL     1      -1.887   0.833  -0.460  0.00  0.00    +0.115 C 
BRANCH  24  26
ATOM     25  C   UNL     1      -0.301   2.665   0.146  0.00  0.00    +0.017 C 
ATOM     26  C   UNL     1      -0.417   1.256  -0.438  0.00  0.00    +0.006 C 
ATOM     27  C   UNL     1       0.381   0.278   0.427  0.00  0.00    +0.017 C 
BRANCH  26  28
ATOM     28  C   UNL     1       0.130   1.247  -1.842  0.00  0.00    -0.039 A 
ATOM     29  C   UNL     1      -0.688   0.895  -2.900  0.00  0.00    +0.004 A 
ATOM     30  C   UNL     1      -0.187   0.887  -4.188  0.00  0.00    +0.002 A 
ATOM     31  C   UNL     1       1.132   1.230  -4.419  0.00  0.00    +0.020 A 
ATOM     32  C   UNL     1       1.950   1.582  -3.361  0.00  0.00    +0.041 A 
ATOM     33  C   UNL     1       1.447   1.596  -2.072  0.00  0.00    +0.024 A 
ATOM     34 CL   UNL     1       3.607   2.013  -3.651  0.00  0.00    -0.084 Cl
ENDBRANCH  26  28
ENDBRANCH  24  26
ENDBRANCH  20  24
ENDBRANCH   1  21
TORSDOF 5
