REMARK  Name = ZINC12574468
REMARK  13 active torsions:
REMARK  status: ('A' for Active; 'I' for Inactive)
REMARK    1  A    between atoms: C_1  and  C_2
REMARK    2  A    between atoms: C_2  and  O_3
REMARK    3  A    between atoms: O_3  and  C_4
REMARK    4  A    between atoms: C_7  and  C_10
REMARK    5  A    between atoms: C_10  and  N_71
REMARK    6  A    between atoms: C_16  and  C_18
REMARK    7  A    between atoms: C_18  and  C_19
REMARK    8  A    between atoms: N_21  and  C_22
REMARK    9  A    between atoms: N_21  and  C_26
REMARK   10  A    between atoms: C_22  and  C_23
REMARK   11  A    between atoms: C_23  and  N_73
REMARK   12  A    between atoms: C_24  and  N_73
REMARK   13  A    between atoms: C_25  and  N_73
REMARK                            x       y       z     vdW  Elec       q    Type
REMARK                         _______ _______ _______ _____ _____    ______ ____
ROOT
ATOM      1  C   UNL     1       0.036   0.417   0.212  0.00  0.00    -0.058 C 
ATOM      2  C   UNL     1       0.454  -0.108  -1.163  0.00  0.00    +0.085 C 
ATOM      3  N   UNL     1       1.910  -0.135  -1.267  0.00  0.00    -0.318 N 
ATOM      4  C   UNL     1       2.716  -0.092  -0.201  0.00  0.00    +0.200 C 
ATOM      5  O   UNL     1       3.914  -0.150  -0.376  0.00  0.00    -0.278 OA
ATOM      6  C   UNL     1       2.198   0.025   1.205  0.00  0.00    +0.028 C 
ATOM      7  H   UNL     1       2.310  -0.186  -2.149  0.00  0.00    +0.149 HD
ATOM      8  N   UNL     1       0.772  -0.349   1.238  0.00  0.00    +0.391 N 
ATOM      9  H   UNL     1       0.683  -1.352   1.035  0.00  0.00    -0.080 HD
ENDROOT
BRANCH   8  10
ATOM     10  C   UNL     1       0.207  -0.077   2.579  0.00  0.00    -0.042 C 
BRANCH  10  14
ATOM     11  C   UNL     1      -3.992  -0.868   2.515  0.00  0.00    +0.121 A 
ATOM     12  C   UNL     1      -3.099  -1.882   2.829  0.00  0.00    +0.046 A 
ATOM     13  C   UNL     1      -1.742  -1.624   2.849  0.00  0.00    +0.005 A 
ATOM     14  C   UNL     1      -1.274  -0.356   2.556  0.00  0.00    -0.064 A 
ATOM     15  C   UNL     1      -2.163   0.658   2.248  0.00  0.00    +0.005 A 
ATOM     16  C   UNL     1      -3.520   0.403   2.221  0.00  0.00    +0.046 A 
BRANCH  11  17
ATOM     17  O   UNL     1      -5.328  -1.119   2.495  0.00  0.00    -0.492 OA
BRANCH  17  19
ATOM     18  C   UNL     1      -7.644  -0.498   2.192  0.00  0.00    +0.048 C 
ATOM     19  C   UNL     1      -6.188  -0.027   2.163  0.00  0.00    +0.225 C 
ENDBRANCH  17  19
ENDBRANCH  11  17
ENDBRANCH  10  14
ENDBRANCH   8  10
BRANCH   6  20
ATOM     20  C   UNL     1       2.982  -0.923   2.115  0.00  0.00    +0.090 C 
BRANCH  20  21
ATOM     21  C   UNL     1       4.405  -0.442   2.234  0.00  0.00    +0.215 C 
ATOM     22  O   UNL     1       4.634   0.709   2.538  0.00  0.00    -0.276 OA
ATOM     23  N   UNL     1       5.425  -1.293   2.002  0.00  0.00    -0.300 N 
BRANCH  23  24
ATOM     24  C   UNL     1       5.154  -2.642   1.501  0.00  0.00    +0.076 C 
ATOM     25  C   UNL     1       4.409  -2.552   0.167  0.00  0.00    +0.022 C 
ATOM     26  C   UNL     1       4.126  -3.961  -0.356  0.00  0.00    +0.002 C 
ATOM     27  C   UNL     1       3.266  -4.718   0.658  0.00  0.00    +0.000 C 
ATOM     28  C   UNL     1       4.010  -4.809   1.992  0.00  0.00    +0.002 C 
ATOM     29  C   UNL     1       4.293  -3.399   2.515  0.00  0.00    +0.022 C 
ENDBRANCH  23  24
BRANCH  23  30
ATOM     30  C   UNL     1       6.805  -0.867   2.250  0.00  0.00    +0.089 C 
BRANCH  30  31
ATOM     31  C   UNL     1       7.191  -1.203   3.692  0.00  0.00    -0.060 C 
BRANCH  31  34
ATOM     32  C   UNL     1       8.693   0.687   3.878  0.00  0.00    -0.097 C 
ATOM     33  C   UNL     1       9.060  -1.289   5.228  0.00  0.00    -0.097 C 
ATOM     34  N   UNL     1       8.591  -0.787   3.920  0.00  0.00    +0.377 N 
ATOM     35  H   UNL     1       9.181  -1.183   3.179  0.00  0.00    -0.083 HD
ENDBRANCH  31  34
ENDBRANCH  30  31
ENDBRANCH  23  30
ENDBRANCH  20  21
ENDBRANCH   6  20
TORSDOF 10
