REMARK  Name = ZINC46327580
REMARK  11 active torsions:
REMARK  status: ('A' for Active; 'I' for Inactive)
REMARK    1  A    between atoms: C_1  and  C_2
REMARK    2  A    between atoms: C_2  and  C_4
REMARK    3  A    between atoms: C_2  and  N_22
REMARK    4  A    between atoms: N_6  and  C_7
REMARK    5  A    between atoms: C_9  and  C_19
REMARK    6  A    between atoms: C_12  and  N_13
REMARK    7  A    between atoms: C_23  and  O_25
REMARK    8  A    between atoms: O_25  and  C_26
REMARK    9  A    between atoms: C_26  and  C_27
REMARK   10  A    between atoms: C_26  and  C_28
REMARK   11  A    between atoms: C_26  and  C_29
REMARK                            x       y       z     vdW  Elec       q    Type
REMARK                         _______ _______ _______ _____ _____    ______ ____
ROOT
ATOM      1  C   UNL     1       0.936  -0.753   3.555  0.00  0.00    +0.055 A 
ATOM      2  C   UNL     1       2.072  -1.518   3.367  0.00  0.00    +0.038 A 
ATOM      3  C   UNL     1       2.725  -2.077   4.468  0.00  0.00    +0.038 A 
ATOM      4  C   UNL     1       2.227  -1.862   5.757  0.00  0.00    +0.015 A 
ATOM      5  C   UNL     1       1.095  -1.101   5.941  0.00  0.00    +0.026 A 
ATOM      6  C   UNL     1       0.447  -0.538   4.847  0.00  0.00    +0.051 A 
ENDROOT
BRANCH   6   7
ATOM      7  N   UNL     1      -0.694   0.237   5.037  0.00  0.00    -0.328 N 
ATOM      8  C   UNL     1      -2.027  -0.382   5.047  0.00  0.00    +0.105 C 
ATOM      9  C   UNL     1      -2.748   0.020   6.337  0.00  0.00    +0.019 C 
ATOM     10  C   UNL     1      -2.763   1.546   6.454  0.00  0.00    +0.003 C 
ATOM     11  C   UNL     1      -1.326   2.068   6.522  0.00  0.00    +0.019 C 
ATOM     12  C   UNL     1      -0.588   1.689   5.240  0.00  0.00    +0.105 C 
ENDBRANCH   6   7
BRANCH   3  13
ATOM     13  C   UNL     1       3.938  -2.894   4.272  0.00  0.00    +0.242 C 
ATOM     14  O   UNL     1       4.370  -3.081   3.151  0.00  0.00    -0.270 OA
ATOM     15  N   UNL     1       4.567  -3.433   5.335  0.00  0.00    -0.325 N 
ATOM     16  H   UNL     1       4.222  -3.284   6.229  0.00  0.00    +0.145 HD
ATOM     17  H   UNL     1       5.364  -3.970   5.205  0.00  0.00    +0.145 HD
ENDBRANCH   3  13
BRANCH   1  20
ATOM     18  C   UNL     1       0.957   0.052   1.315  0.00  0.00    +0.237 C 
ATOM     19  O   UNL     1       2.157  -0.123   1.275  0.00  0.00    -0.273 OA
ATOM     20  N   UNL     1       0.278  -0.191   2.453  0.00  0.00    -0.282 N 
ATOM     21  H   UNL     1      -0.666   0.025   2.510  0.00  0.00    +0.155 HD
BRANCH  18  23
ATOM     22  C   UNL     1      -0.459   1.871   0.402  0.00  0.00    +0.038 C 
ATOM     23  C   UNL     1       0.226   0.539   0.090  0.00  0.00    +0.159 C 
BRANCH  23  24
ATOM     24  N   UNL     1       1.180   0.726  -1.006  0.00  0.00    -0.270 N 
ATOM     25  C   UNL     1       0.758   0.661  -2.284  0.00  0.00    +0.401 C 
ATOM     26  O   UNL     1      -0.413   0.448  -2.528  0.00  0.00    -0.226 OA
ATOM     27  H   UNL     1       2.115   0.896  -0.812  0.00  0.00    +0.153 HD
BRANCH  25  28
ATOM     28  O   UNL     1       1.635   0.832  -3.292  0.00  0.00    -0.445 OA
BRANCH  28  29
ATOM     29  C   UNL     1       1.119   0.750  -4.622  0.00  0.00    +0.107 C 
ATOM     30  C   UNL     1       0.048   1.825  -4.821  0.00  0.00    +0.055 C 
ATOM     31  C   UNL     1       2.254   0.969  -5.624  0.00  0.00    +0.055 C 
ATOM     32  C   UNL     1       0.501  -0.632  -4.845  0.00  0.00    +0.055 C 
ENDBRANCH  28  29
ENDBRANCH  25  28
ENDBRANCH  23  24
ENDBRANCH  18  23
ENDBRANCH   1  20
TORSDOF 7
