REMARK  Name = ZINC46709689
REMARK  8 active torsions:
REMARK  status: ('A' for Active; 'I' for Inactive)
REMARK    1  A    between atoms: C_1  and  C_2
REMARK    2  A    between atoms: N_4  and  C_5
REMARK    3  A    between atoms: C_5  and  C_13
REMARK    4  A    between atoms: C_6  and  C_7
REMARK    5  A    between atoms: N_15  and  N_16
REMARK    6  A    between atoms: C_17  and  C_19
REMARK    7  A    between atoms: C_22  and  S_25
REMARK    8  A    between atoms: S_25  and  C_28
REMARK                            x       y       z     vdW  Elec       q    Type
REMARK                         _______ _______ _______ _____ _____    ______ ____
ROOT
ATOM      1  C   UNL     1       0.038  -2.840   0.040  0.00  0.00    +0.274 C 
ATOM      2  O   UNL     1       0.122  -4.053  -0.002  0.00  0.00    -0.267 OA
ATOM      3  N   UNL     1       0.015  -2.206   1.229  0.00  0.00    -0.229 N 
ATOM      4  H   UNL     1      -0.125  -1.246   1.264  0.00  0.00    +0.173 HD
ENDROOT
BRANCH   3   5
ATOM      5  N   UNL     1       0.191  -2.932   2.413  0.00  0.00    -0.230 N 
ATOM      6  C   UNL     1       0.167  -2.298   3.603  0.00  0.00    +0.260 C 
ATOM      7  O   UNL     1      -0.008  -1.096   3.647  0.00  0.00    -0.269 OA
ATOM      8  H   UNL     1       0.331  -3.891   2.378  0.00  0.00    +0.173 HD
BRANCH   6   9
ATOM      9  C   UNL     1       0.353  -3.065   4.853  0.00  0.00    +0.038 A 
ATOM     10  C   UNL     1       0.560  -4.444   4.805  0.00  0.00    +0.015 A 
ATOM     11  C   UNL     1       0.734  -5.154   5.975  0.00  0.00    +0.027 A 
ATOM     12  C   UNL     1       0.703  -4.501   7.195  0.00  0.00    +0.088 A 
ATOM     13  C   UNL     1       0.498  -3.134   7.249  0.00  0.00    +0.027 A 
ATOM     14  C   UNL     1       0.329  -2.412   6.086  0.00  0.00    +0.015 A 
BRANCH  12  15
ATOM     15  S   UNL     1       0.925  -5.415   8.685  0.00  0.00    -0.006 S 
ATOM     16  O   UNL     1       0.254  -4.654   9.680  0.00  0.00    -0.170 OA
ATOM     17  O   UNL     1       0.496  -6.732   8.369  0.00  0.00    -0.170 OA
ATOM     18  C   UNL     1       2.714  -5.394   8.982  0.00  0.00    +0.200 C 
ENDBRANCH  12  15
ENDBRANCH   6   9
ENDBRANCH   3   5
BRANCH   1  19
ATOM     19  C   UNL     1      -0.036  -2.065  -1.208  0.00  0.00    +0.098 C 
ATOM     20  C   UNL     1       0.998  -1.276  -1.577  0.00  0.00    +0.036 C 
BRANCH  20  21
ATOM     21  C   UNL     1       2.254  -1.303  -0.811  0.00  0.00    -0.023 A 
ATOM     22  C   UNL     1       2.666  -2.480  -0.178  0.00  0.00    +0.008 A 
ATOM     23  C   UNL     1       3.845  -2.498   0.537  0.00  0.00    +0.001 A 
ATOM     24  C   UNL     1       4.619  -1.354   0.631  0.00  0.00    +0.000 A 
ATOM     25  C   UNL     1       4.218  -0.185   0.007  0.00  0.00    +0.001 A 
ATOM     26  C   UNL     1       3.045  -0.153  -0.717  0.00  0.00    +0.008 A 
ENDBRANCH  20  21
BRANCH  19  30
ATOM     27  C   UNL     1      -3.514  -2.849  -2.413  0.00  0.00    +0.109 C 
ATOM     28  C   UNL     1      -2.247  -2.851  -1.598  0.00  0.00    +0.214 C 
ATOM     29  O   UNL     1      -2.190  -3.489  -0.568  0.00  0.00    -0.276 OA
ATOM     30  N   UNL     1      -1.177  -2.145  -2.013  0.00  0.00    -0.282 N 
ATOM     31  H   UNL     1      -1.198  -1.692  -2.871  0.00  0.00    +0.155 HD
ENDBRANCH  19  30
ENDBRANCH   1  19
TORSDOF 6
