REMARK  Name = ZINC40986887
REMARK  11 active torsions:
REMARK  status: ('A' for Active; 'I' for Inactive)
REMARK    1  A    between atoms: C_1  and  C_2
REMARK    2  A    between atoms: C_2  and  C_3
REMARK    3  A    between atoms: C_3  and  C_4
REMARK    4  A    between atoms: C_4  and  S_5
REMARK    5  A    between atoms: S_5  and  C_6
REMARK    6  A    between atoms: C_11  and  C_20
REMARK    7  A    between atoms: C_13  and  C_17
REMARK    8  A    between atoms: C_14  and  C_16
REMARK    9  A    between atoms: C_23  and  O_26
REMARK   10  A    between atoms: O_26  and  C_27
REMARK   11  A    between atoms: C_27  and  C_28
REMARK                            x       y       z     vdW  Elec       q    Type
REMARK                         _______ _______ _______ _____ _____    ______ ____
ROOT
ATOM      1  C   UNL     1      -2.912  -4.477   0.462  0.00  0.00    +0.210 A 
ATOM      2  N   UNL     1      -1.744  -5.134   0.401  0.00  0.00    -0.187 NA
ATOM      3  C   UNL     1      -1.968  -6.404   0.198  0.00  0.00    +0.219 A 
ATOM      4  N   UNL     1      -3.309  -6.588   0.119  0.00  0.00    -0.220 N 
ATOM      5  N   UNL     1      -3.895  -5.335   0.300  0.00  0.00    -0.141 NA
ATOM      6  C   UNL     1      -3.935  -7.887  -0.113  0.00  0.00    +0.177 C 
ATOM      7  C   UNL     1      -2.908  -8.974   0.052  0.00  0.00    +0.060 C 
ATOM      8  C   UNL     1      -1.591  -8.732   0.129  0.00  0.00    +0.018 C 
ATOM      9  N   UNL     1      -1.077  -7.460   0.073  0.00  0.00    -0.287 N 
ATOM     10  C   UNL     1      -0.644  -9.895   0.282  0.00  0.00    +0.061 C 
ATOM     11  H   UNL     1      -0.127  -7.306  -0.050  0.00  0.00    +0.155 HD
ENDROOT
BRANCH   6  12
ATOM     12  C   UNL     1      -4.494  -7.932  -1.512  0.00  0.00    -0.018 A 
ATOM     13  C   UNL     1      -3.653  -7.772  -2.597  0.00  0.00    +0.009 A 
ATOM     14  C   UNL     1      -4.163  -7.813  -3.880  0.00  0.00    +0.046 A 
ATOM     15  C   UNL     1      -5.521  -8.015  -4.079  0.00  0.00    +0.121 A 
ATOM     16  C   UNL     1      -6.363  -8.176  -2.988  0.00  0.00    +0.046 A 
ATOM     17  C   UNL     1      -5.847  -8.139  -1.707  0.00  0.00    +0.009 A 
BRANCH  15  18
ATOM     18  O   UNL     1      -6.026  -8.055  -5.340  0.00  0.00    -0.487 OA
BRANCH  18  19
ATOM     19  C   UNL     1      -7.433  -8.267  -5.470  0.00  0.00    +0.264 C 
BRANCH  19  20
ATOM     20  C   UNL     1      -7.807  -8.281  -6.929  0.00  0.00    -0.009 A 
ATOM     21  C   UNL     1      -8.154  -7.103  -7.565  0.00  0.00    +0.008 A 
ATOM     22  C   UNL     1      -8.497  -7.115  -8.904  0.00  0.00    +0.022 A 
ATOM     23  C   UNL     1      -8.493  -8.305  -9.609  0.00  0.00    +0.059 A 
ATOM     24  C   UNL     1      -8.146  -9.485  -8.972  0.00  0.00    +0.060 A 
ATOM     25  C   UNL     1      -7.797  -9.470  -7.633  0.00  0.00    +0.028 A 
ATOM     26 CL   UNL     1      -8.141 -10.979  -9.855  0.00  0.00    -0.082 Cl
ATOM     27 CL   UNL     1      -8.925  -8.321 -11.290  0.00  0.00    -0.082 Cl
ENDBRANCH  19  20
ENDBRANCH  18  19
ENDBRANCH  15  18
ENDBRANCH   6  12
BRANCH   7  28
ATOM     28  C   UNL     1      -3.352 -10.316   0.131  0.00  0.00    +0.241 C 
ATOM     29  O   UNL     1      -3.889 -10.721   1.147  0.00  0.00    -0.271 OA
ATOM     30  N   UNL     1      -3.182 -11.145  -0.918  0.00  0.00    -0.325 N 
ATOM     31  H   UNL     1      -2.755 -10.822  -1.727  0.00  0.00    +0.145 HD
ATOM     32  H   UNL     1      -3.487 -12.064  -0.864  0.00  0.00    +0.145 HD
ENDBRANCH   7  28
BRANCH   1  33
ATOM     33  S   UNL     1      -3.098  -2.745   0.724  0.00  0.00    -0.084 S 
BRANCH  33  34
ATOM     34  C   UNL     1      -1.395  -2.137   0.868  0.00  0.00    +0.077 C 
BRANCH  34  35
ATOM     35  C   UNL     1      -1.411  -0.625   1.101  0.00  0.00    +0.011 C 
BRANCH  35  37
ATOM     36  C   UNL     1       0.009   1.400   1.456  0.00  0.00    +0.004 C 
ATOM     37  C   UNL     1       0.025  -0.112   1.223  0.00  0.00    -0.003 C 
ENDBRANCH  35  37
ENDBRANCH  34  35
ENDBRANCH  33  34
ENDBRANCH   1  33
TORSDOF 9
