REMARK  Name = ZINC57838164
REMARK  8 active torsions:
REMARK  status: ('A' for Active; 'I' for Inactive)
REMARK    1  A    between atoms: C_1  and  O_2
REMARK    2  A    between atoms: O_2  and  C_3
REMARK    3  A    between atoms: C_5  and  C_18
REMARK    4  A    between atoms: C_8  and  O_9
REMARK    5  A    between atoms: O_9  and  C_10
REMARK    6  A    between atoms: C_10  and  C_11
REMARK    7  A    between atoms: N_19  and  N_20
REMARK    8  A    between atoms: C_22  and  C_26
REMARK                            x       y       z     vdW  Elec       q    Type
REMARK                         _______ _______ _______ _____ _____    ______ ____
ROOT
ATOM      1  C   UNL     1      -1.201  -0.638   0.010  0.00  0.00    +0.162 A 
ATOM      2  C   UNL     1      -2.370   0.099   0.019  0.00  0.00    +0.059 A 
ATOM      3  C   UNL     1      -3.605  -0.555   0.028  0.00  0.00    -0.002 A 
ATOM      4  C   UNL     1      -3.651  -1.952   0.026  0.00  0.00    +0.013 A 
ATOM      5  C   UNL     1      -2.481  -2.680   0.017  0.00  0.00    +0.050 A 
ATOM      6  C   UNL     1      -1.255  -2.030   0.003  0.00  0.00    +0.162 A 
ENDROOT
BRANCH   1   8
ATOM      7  C   UNL     1      -0.017   1.425   0.010  0.00  0.00    +0.277 C 
ATOM      8  O   UNL     1       0.002  -0.004   0.002  0.00  0.00    -0.491 OA
ENDBRANCH   1   8
BRANCH   3   9
ATOM      9  C   UNL     1      -4.855   0.225   0.038  0.00  0.00    +0.141 C 
ATOM     10  N   UNL     1      -6.001  -0.385   0.046  0.00  0.00    -0.172 NA
BRANCH  10  11
ATOM     11  N   UNL     1      -7.189   0.358   0.056  0.00  0.00    -0.209 N 
ATOM     12  C   UNL     1      -7.294   1.728   0.053  0.00  0.00    +0.142 A 
ATOM     13  C   UNL     1      -8.619   2.022   0.065  0.00  0.00    +0.067 A 
ATOM     14  N   UNL     1      -9.307   0.853   0.076  0.00  0.00    -0.326 N 
ATOM     15  C   UNL     1      -8.458  -0.146   0.065  0.00  0.00    +0.192 A 
ATOM     16  N   UNL     1      -8.792  -1.490   0.065  0.00  0.00    -0.329 N 
ATOM     17  H   UNL     1      -8.094  -2.163   0.059  0.00  0.00    +0.145 HD
ATOM     18  H   UNL     1      -9.725  -1.758   0.072  0.00  0.00    +0.145 HD
ATOM     19  H   UNL     1     -10.273   0.769   0.086  0.00  0.00    +0.169 HD
BRANCH  13  20
ATOM     20  C   UNL     1      -9.210   3.382   0.068  0.00  0.00    -0.000 A 
ATOM     21  C   UNL     1      -8.384   4.505   0.051  0.00  0.00    +0.010 A 
ATOM     22  C   UNL     1      -8.940   5.767   0.053  0.00  0.00    +0.001 A 
ATOM     23  C   UNL     1     -10.315   5.921   0.072  0.00  0.00    +0.000 A 
ATOM     24  C   UNL     1     -11.140   4.810   0.089  0.00  0.00    +0.001 A 
ATOM     25  C   UNL     1     -10.595   3.542   0.081  0.00  0.00    +0.010 A 
ENDBRANCH  13  20
ENDBRANCH  10  11
ENDBRANCH   3   9
BRANCH   6  26
ATOM     26  O   UNL     1      -0.104  -2.753  -0.012  0.00  0.00    -0.484 OA
BRANCH  26  27
ATOM     27  C   UNL     1      -0.232  -4.176  -0.018  0.00  0.00    +0.264 C 
BRANCH  27  28
ATOM     28  C   UNL     1       1.138  -4.804  -0.035  0.00  0.00    -0.010 A 
ATOM     29  C   UNL     1       1.757  -5.080  -1.239  0.00  0.00    +0.008 A 
ATOM     30  C   UNL     1       3.014  -5.655  -1.255  0.00  0.00    +0.020 A 
ATOM     31  C   UNL     1       3.652  -5.955  -0.065  0.00  0.00    +0.041 A 
ATOM     32  C   UNL     1       3.032  -5.678   1.141  0.00  0.00    +0.020 A 
ATOM     33  C   UNL     1       1.778  -5.098   1.155  0.00  0.00    +0.008 A 
ATOM     34 CL   UNL     1       5.230  -6.678  -0.084  0.00  0.00    -0.084 Cl
ENDBRANCH  27  28
ENDBRANCH  26  27
ENDBRANCH   6  26
TORSDOF 7
