REMARK  Name = ZINC64416617
REMARK  5 active torsions:
REMARK  status: ('A' for Active; 'I' for Inactive)
REMARK    1  A    between atoms: C_1  and  C_2
REMARK    2  A    between atoms: C_2  and  C_3
REMARK    3  A    between atoms: C_3  and  C_4
REMARK    4  A    between atoms: C_4  and  N_5
REMARK    5  A    between atoms: C_8  and  C_14
REMARK                            x       y       z     vdW  Elec       q    Type
REMARK                         _______ _______ _______ _____ _____    ______ ____
ROOT
ATOM      1  C   UNL     1      -5.436  -3.558   2.496  0.00  0.00    -0.003 C 
ATOM      2  C   UNL     1      -5.515  -2.268   3.315  0.00  0.00    +0.097 C 
ATOM      3  C   UNL     1      -4.079  -1.905   3.675  0.00  0.00    -0.041 C 
ATOM      4  C   UNL     1      -3.896  -0.656   3.273  0.00  0.00    +0.000 A 
ATOM      5  C   UNL     1      -2.758   0.267   3.420  0.00  0.00    +0.030 A 
ATOM      6  C   UNL     1      -2.907   1.498   2.860  0.00  0.00    +0.042 A 
ATOM      7  C   UNL     1      -4.060   1.897   2.176  0.00  0.00    +0.022 A 
ATOM      8  C   UNL     1      -5.155   1.117   1.998  0.00  0.00    +0.027 A 
ATOM      9  C   UNL     1      -5.121  -0.198   2.548  0.00  0.00    +0.043 A 
ATOM     10  N   UNL     1      -6.043  -1.141   2.547  0.00  0.00    -0.379 N 
ATOM     11 CL   UNL     1      -1.599   2.630   3.001  0.00  0.00    -0.084 Cl
ATOM     12  C   UNL     1      -3.137  -2.920   4.276  0.00  0.00    +0.014 C 
ATOM     13  C   UNL     1      -3.274  -4.191   3.417  0.00  0.00    -0.077 C 
ATOM     14  N   UNL     1      -4.686  -4.556   3.273  0.00  0.00    +0.386 N 
ATOM     15  H   UNL     1      -5.099  -4.636   4.191  0.00  0.00    -0.085 HD
ATOM     16  H   UNL     1      -6.910  -1.105   2.115  0.00  0.00    +0.160 HD
ATOM     17  H   UNL     1      -4.749  -5.450   2.808  0.00  0.00    -0.085 HD
ENDROOT
BRANCH   1  21
ATOM     18  N   UNL     1      -4.685  -3.357  -1.184  0.00  0.00    -0.288 N 
ATOM     19  C   UNL     1      -5.338  -3.606  -0.032  0.00  0.00    +0.260 A 
ATOM     20  O   UNL     1      -6.452  -4.100  -0.051  0.00  0.00    -0.267 OA
ATOM     21  C   UNL     1      -4.725  -3.290   1.194  0.00  0.00    +0.070 A 
ATOM     22  C   UNL     1      -3.478  -2.738   1.188  0.00  0.00    +0.257 A 
ATOM     23  N   UNL     1      -2.850  -2.502  -0.008  0.00  0.00    -0.302 N 
ATOM     24  C   UNL     1      -3.453  -2.817  -1.168  0.00  0.00    +0.163 A 
ATOM     25  S   UNL     1      -2.644  -2.519  -2.647  0.00  0.00    -0.013 S 
ATOM     26  O   UNL     1      -2.867  -2.425   2.351  0.00  0.00    -0.267 OA
ATOM     27  H   UNL     1      -1.963  -2.110  -0.017  0.00  0.00    +0.171 HD
BRANCH  18  28
ATOM     28  C   UNL     1      -5.319  -3.684  -2.464  0.00  0.00    +0.127 C 
BRANCH  28  29
ATOM     29  C   UNL     1      -4.962  -5.119  -2.859  0.00  0.00    +0.021 C 
BRANCH  29  31
ATOM     30  C   UNL     1      -5.267  -6.894  -4.590  0.00  0.00    +0.004 C 
ATOM     31  C   UNL     1      -5.624  -5.460  -4.195  0.00  0.00    -0.002 C 
ENDBRANCH  29  31
ENDBRANCH  28  29
ENDBRANCH  18  28
ENDBRANCH   1  21
TORSDOF 4
