REMARK  Name = ZINC14335658
REMARK  6 active torsions:
REMARK  status: ('A' for Active; 'I' for Inactive)
REMARK    1  A    between atoms: C_3  and  C_6
REMARK    2  A    between atoms: C_7  and  C_8
REMARK    3  A    between atoms: C_10  and  S_13
REMARK    4  A    between atoms: S_13  and  C_14
REMARK    5  A    between atoms: C_14  and  C_15
REMARK    6  A    between atoms: N_17  and  C_18
REMARK                            x       y       z     vdW  Elec       q    Type
REMARK                         _______ _______ _______ _____ _____    ______ ____
ROOT
ATOM      1  S   UNL     1       8.802   4.232  -0.028  0.00  0.00    -0.075 S 
ENDROOT
BRANCH   1   4
ATOM      2  C   UNL     1       6.141   1.412   0.005  0.00  0.00    +0.150 A 
ATOM      3  N   UNL     1       6.524   2.679   0.005  0.00  0.00    -0.202 NA
ATOM      4  C   UNL     1       7.855   2.745  -0.018  0.00  0.00    +0.209 A 
ATOM      5  N   UNL     1       8.350   1.529  -0.032  0.00  0.00    -0.145 NA
ATOM      6  N   UNL     1       7.263   0.641  -0.011  0.00  0.00    -0.258 N 
ATOM      7  H   UNL     1       7.303  -0.329  -0.011  0.00  0.00    +0.191 HD
BRANCH   2   9
ATOM      8  C   UNL     1       3.734   1.807   0.042  0.00  0.00    +0.018 C 
ATOM      9  C   UNL     1       4.759   0.927   0.027  0.00  0.00    +0.049 C 
BRANCH   8  12
ATOM     10  C   UNL     1      -0.016   1.360   0.100  0.00  0.00    +0.008 A 
ATOM     11  C   UNL     1       1.172   2.049   0.081  0.00  0.00    +0.015 A 
ATOM     12  C   UNL     1       2.353   1.323   0.064  0.00  0.00    +0.012 A 
ATOM     13  S   UNL     1       1.750  -0.358   0.073  0.00  0.00    -0.097 S 
ATOM     14  C   UNL     1       0.002   0.000   0.100  0.00  0.00    +0.046 A 
ENDBRANCH   8  12
ENDBRANCH   2   9
ENDBRANCH   1   4
BRANCH   1  15
ATOM     15  C   UNL     1      10.522   3.656  -0.059  0.00  0.00    +0.173 C 
BRANCH  15  16
ATOM     16  C   UNL     1      11.449   4.845  -0.070  0.00  0.00    +0.228 C 
ATOM     17  O   UNL     1      10.994   5.969  -0.058  0.00  0.00    -0.275 OA
ATOM     18  N   UNL     1      12.783   4.658  -0.094  0.00  0.00    -0.284 N 
ATOM     19  H   UNL     1      13.149   3.761  -0.038  0.00  0.00    +0.155 HD
BRANCH  18  20
ATOM     20  C   UNL     1      13.642   5.758  -0.199  0.00  0.00    +0.052 A 
ATOM     21  C   UNL     1      13.309   6.962   0.408  0.00  0.00    +0.026 A 
ATOM     22  C   UNL     1      14.158   8.046   0.303  0.00  0.00    +0.017 A 
ATOM     23  C   UNL     1      15.340   7.934  -0.406  0.00  0.00    +0.019 A 
ATOM     24  C   UNL     1      15.676   6.737  -1.013  0.00  0.00    +0.037 A 
ATOM     25  C   UNL     1      14.834   5.647  -0.906  0.00  0.00    +0.063 A 
ATOM     26 CL   UNL     1      15.259   4.142  -1.660  0.00  0.00    -0.082 Cl
ATOM     27 BR   UNL     1      16.500   9.422  -0.548  0.00  0.00    -0.050 Br
ENDBRANCH  18  20
ENDBRANCH  15  16
ENDBRANCH   1  15
TORSDOF 6
