REMARK  Name = ZINC12207094
REMARK  10 active torsions:
REMARK  status: ('A' for Active; 'I' for Inactive)
REMARK    1  A    between atoms: C_1  and  C_2
REMARK    2  A    between atoms: C_2  and  C_3
REMARK    3  A    between atoms: C_3  and  N_4
REMARK    4  A    between atoms: C_13  and  S_14
REMARK    5  A    between atoms: S_14  and  C_15
REMARK    6  A    between atoms: C_15  and  C_16
REMARK    7  A    between atoms: C_23  and  C_27
REMARK    8  A    between atoms: C_27  and  C_28
REMARK    9  A    between atoms: C_27  and  C_29
REMARK   10  A    between atoms: C_27  and  C_30
REMARK                            x       y       z     vdW  Elec       q    Type
REMARK                         _______ _______ _______ _____ _____    ______ ____
ROOT
ATOM      1  N   UNL     1       0.002  -0.004   0.002  0.00  0.00    -0.287 N 
ATOM      2  C   UNL     1       1.162  -0.687  -0.013  0.00  0.00    +0.263 A 
ATOM      3  O   UNL     1       1.161  -1.906  -0.020  0.00  0.00    -0.267 OA
ATOM      4  C   UNL     1       2.395   0.038  -0.021  0.00  0.00    +0.076 A 
ATOM      5  C   UNL     1       3.760  -0.493  -0.036  0.00  0.00    -0.023 A 
ATOM      6  C   UNL     1       4.766   0.405  -0.041  0.00  0.00    -0.004 A 
ATOM      7  S   UNL     1       3.970   1.989  -0.025  0.00  0.00    -0.073 S 
ATOM      8  C   UNL     1       2.282   1.439  -0.012  0.00  0.00    +0.117 A 
ATOM      9  N   UNL     1       1.105   2.053   0.003  0.00  0.00    -0.216 NA
ATOM     10  C   UNL     1      -0.016   1.361   0.009  0.00  0.00    +0.173 A 
ATOM     11  C   UNL     1       6.237   0.119  -0.056  0.00  0.00    +0.046 C 
ATOM     12  C   UNL     1       6.441  -1.353  -0.441  0.00  0.00    -0.000 C 
ATOM     13  C   UNL     1       5.496  -2.216   0.400  0.00  0.00    +0.009 C 
ATOM     14  C   UNL     1       4.051  -1.991  -0.046  0.00  0.00    +0.037 C 
ENDROOT
BRANCH  12  15
ATOM     15  C   UNL     1       7.889  -1.760  -0.165  0.00  0.00    -0.035 C 
ATOM     16  C   UNL     1       8.196  -1.576   1.323  0.00  0.00    +0.011 C 
ATOM     17  C   UNL     1       8.089  -3.227  -0.549  0.00  0.00    +0.011 C 
ATOM     18  C   UNL     1       8.832  -0.883  -0.992  0.00  0.00    +0.011 C 
ENDBRANCH  12  15
BRANCH   1  19
ATOM     19  C   UNL     1      -1.265  -0.740   0.010  0.00  0.00    +0.127 C 
BRANCH  19  21
ATOM     20  C   UNL     1      -3.042  -1.757  -1.422  0.00  0.00    +0.005 C 
ATOM     21  C   UNL     1      -1.719  -0.988  -1.430  0.00  0.00    +0.018 C 
ENDBRANCH  19  21
ENDBRANCH   1  19
BRANCH  10  22
ATOM     22  S   UNL     1      -1.561   2.209   0.021  0.00  0.00    -0.078 S 
BRANCH  22  23
ATOM     23  C   UNL     1      -0.978   3.922   0.028  0.00  0.00    +0.173 C 
BRANCH  23  24
ATOM     24  C   UNL     1      -2.162   4.855   0.039  0.00  0.00    +0.231 C 
ATOM     25  O   UNL     1      -3.288   4.406   0.042  0.00  0.00    -0.274 OA
ATOM     26  N   UNL     1      -1.968   6.189   0.045  0.00  0.00    -0.240 N 
ATOM     27  C   UNL     1      -3.027   7.024   0.054  0.00  0.00    +0.303 C 
ATOM     28  O   UNL     1      -4.156   6.573   0.057  0.00  0.00    -0.253 OA
ATOM     29  N   UNL     1      -2.833   8.357   0.061  0.00  0.00    -0.313 N 
ATOM     30  H   UNL     1      -1.067   6.549   0.043  0.00  0.00    +0.159 HD
ATOM     31  H   UNL     1      -1.933   8.717   0.059  0.00  0.00    +0.146 HD
ATOM     32  H   UNL     1      -3.595   8.958   0.068  0.00  0.00    +0.146 HD
ENDBRANCH  23  24
ENDBRANCH  22  23
ENDBRANCH  10  22
TORSDOF 6
