REMARK  Name = ZINC13174463
REMARK  8 active torsions:
REMARK  status: ('A' for Active; 'I' for Inactive)
REMARK    1  A    between atoms: C_1  and  C_2
REMARK    2  A    between atoms: C_5  and  N_9
REMARK    3  A    between atoms: C_6  and  C_8
REMARK    4  A    between atoms: C_10  and  C_12
REMARK    5  A    between atoms: C_12  and  S_13
REMARK    6  A    between atoms: S_13  and  C_14
REMARK    7  A    between atoms: C_15  and  C_31
REMARK    8  A    between atoms: C_16  and  C_26
REMARK                            x       y       z     vdW  Elec       q    Type
REMARK                         _______ _______ _______ _____ _____    ______ ____
ROOT
ATOM      1  C   UNL     1       2.020  -0.916   1.144  0.00  0.00    +0.080 C 
ATOM      2  C   UNL     1       0.741  -0.459   1.225  0.00  0.00    +0.069 C 
ATOM      3  C   UNL     1       0.019   0.041   0.009  0.00  0.00    +0.103 C 
ATOM      4  C   UNL     1       0.691  -0.432  -1.256  0.00  0.00    +0.025 C 
ATOM      5  C   UNL     1       1.961  -0.889  -1.238  0.00  0.00    +0.016 C 
ATOM      6  N   UNL     1       2.670  -0.934  -0.068  0.00  0.00    -0.311 N 
ATOM      7  C   UNL     1       2.633  -1.367  -2.502  0.00  0.00    +0.051 C 
ATOM      8  C   UNL     1       2.077  -0.598  -3.702  0.00  0.00    +0.014 C 
ATOM      9  C   UNL     1       0.561  -0.816  -3.759  0.00  0.00    +0.080 C 
ATOM     10  C   UNL     1      -0.044  -0.381  -2.453  0.00  0.00    +0.162 C 
ATOM     11  O   UNL     1      -1.191   0.022  -2.432  0.00  0.00    -0.292 OA
ATOM     12  H   UNL     1       3.768  -0.986  -0.103  0.00  0.00    +0.152 HD
ENDROOT
BRANCH   3  13
ATOM     13  C   UNL     1       0.005   1.547   0.027  0.00  0.00    +0.002 A 
ATOM     14  C   UNL     1      -1.056   2.391   0.039  0.00  0.00    +0.012 A 
ATOM     15  C   UNL     1      -0.829   3.754   0.059  0.00  0.00    +0.008 A 
ATOM     16  C   UNL     1       0.449   4.207   0.055  0.00  0.00    +0.045 A 
ATOM     17  S   UNL     1       1.381   2.685   0.030  0.00  0.00    -0.101 S 
ENDBRANCH   3  13
BRANCH   2  18
ATOM     18  C   UNL     1       0.074  -0.455   2.492  0.00  0.00    +0.098 C 
ATOM     19  N   UNL     1      -0.456  -0.452   3.497  0.00  0.00    -0.191 NA
ENDBRANCH   2  18
BRANCH   1  20
ATOM     20  S   UNL     1       2.844  -1.486   2.593  0.00  0.00    -0.100 S 
BRANCH  20  21
ATOM     21  C   UNL     1       4.444  -1.946   1.884  0.00  0.00    +0.171 C 
BRANCH  21  23
ATOM     22  N   UNL     1       6.592  -2.884   2.675  0.00  0.00    -0.285 N 
ATOM     23  C   UNL     1       5.342  -2.477   2.972  0.00  0.00    +0.227 C 
ATOM     24  O   UNL     1       4.940  -2.538   4.114  0.00  0.00    -0.275 OA
ATOM     25  H   UNL     1       6.927  -2.914   1.628  0.00  0.00    +0.155 HD
BRANCH  22  30
ATOM     26  C   UNL     1      10.129  -4.439   6.830  0.00  0.00    +0.044 C 
ATOM     27  C   UNL     1       9.190  -4.026   5.726  0.00  0.00    -0.050 A 
ATOM     28  C   UNL     1       8.146  -3.159   5.996  0.00  0.00    +0.005 A 
ATOM     29  C   UNL     1       7.287  -2.774   4.986  0.00  0.00    +0.024 A 
ATOM     30  C   UNL     1       7.465  -3.267   3.700  0.00  0.00    +0.036 A 
ATOM     31  C   UNL     1       8.514  -4.137   3.432  0.00  0.00    -0.029 A 
ATOM     32  C   UNL     1       9.373  -4.513   4.445  0.00  0.00    +0.008 A 
ATOM     33  C   UNL     1       8.713  -4.670   2.036  0.00  0.00    +0.045 C 
ENDBRANCH  22  30
ENDBRANCH  21  23
ENDBRANCH  20  21
ENDBRANCH   1  20
TORSDOF 6
