REMARK  Name = ZINC63671405
REMARK  7 active torsions:
REMARK  status: ('A' for Active; 'I' for Inactive)
REMARK    1  A    between atoms: C_1  and  N_2
REMARK    2  A    between atoms: C_9  and  S_11
REMARK    3  A    between atoms: S_11  and  N_14
REMARK    4  A    between atoms: C_17  and  C_20
REMARK    5  A    between atoms: N_22  and  C_23
REMARK    6  A    between atoms: C_23  and  C_24
REMARK    7  A    between atoms: C_24  and  C_25
REMARK                            x       y       z     vdW  Elec       q    Type
REMARK                         _______ _______ _______ _____ _____    ______ ____
ROOT
ATOM      1  N   UNL     1      -1.476  -4.590   4.468  0.00  0.00    -0.177 NA
ATOM      2  C   UNL     1      -2.192  -3.918   5.561  0.00  0.00    +0.110 C 
ATOM      3  C   UNL     1      -3.498  -3.336   5.010  0.00  0.00    +0.030 C 
ATOM      4  C   UNL     1      -4.297  -4.447   4.325  0.00  0.00    +0.077 C 
ATOM      5  C   UNL     1      -3.489  -5.012   3.155  0.00  0.00    +0.030 C 
ATOM      6  C   UNL     1      -2.185  -5.608   3.680  0.00  0.00    +0.110 C 
ENDROOT
BRANCH   4   7
ATOM      7  C   UNL     1      -5.598  -3.885   3.812  0.00  0.00    +0.216 C 
ATOM      8  O   UNL     1      -5.860  -2.713   3.978  0.00  0.00    -0.276 OA
ATOM      9  N   UNL     1      -6.471  -4.686   3.169  0.00  0.00    -0.315 N 
ATOM     10  H   UNL     1      -6.261  -5.624   3.036  0.00  0.00    +0.149 HD
BRANCH   9  11
ATOM     11  C   UNL     1      -7.736  -4.140   2.670  0.00  0.00    +0.108 C 
BRANCH  11  12
ATOM     12  C   UNL     1      -8.535  -5.250   1.985  0.00  0.00    +0.052 C 
BRANCH  12  13
ATOM     13  C   UNL     1      -9.836  -4.689   1.472  0.00  0.00    -0.040 C 
ATOM     14  C   UNL     1     -10.090  -4.238   0.222  0.00  0.00    +0.000 A 
ATOM     15  C   UNL     1      -9.263  -4.138  -0.986  0.00  0.00    +0.030 A 
ATOM     16  C   UNL     1      -9.810  -3.629  -2.115  0.00  0.00    +0.042 A 
ATOM     17  C   UNL     1     -11.144  -3.197  -2.159  0.00  0.00    +0.022 A 
ATOM     18  C   UNL     1     -11.965  -3.257  -1.089  0.00  0.00    +0.027 A 
ATOM     19  C   UNL     1     -11.495  -3.775   0.150  0.00  0.00    +0.043 A 
ATOM     20  N   UNL     1     -12.085  -3.934   1.309  0.00  0.00    -0.380 N 
ATOM     21  C   UNL     1     -11.123  -4.522   2.248  0.00  0.00    +0.144 C 
ATOM     22 CL   UNL     1      -8.835  -3.509  -3.547  0.00  0.00    -0.084 Cl
ATOM     23  H   UNL     1     -13.006  -3.704   1.512  0.00  0.00    +0.160 HD
ENDBRANCH  12  13
ENDBRANCH  11  12
ENDBRANCH   9  11
ENDBRANCH   4   7
BRANCH   1  24
ATOM     24  S   UNL     1       0.098  -4.204   4.127  0.00  0.00    +0.061 S 
ATOM     25  O   UNL     1       0.657  -5.329   3.464  0.00  0.00    -0.153 OA
ATOM     26  O   UNL     1       0.652  -3.669   5.321  0.00  0.00    -0.153 OA
BRANCH  24  35
ATOM     27  C   UNL     1      -0.018   1.461   0.010  0.00  0.00    +0.149 C 
ATOM     28  N   UNL     1       0.002  -0.004   0.002  0.00  0.00    -0.350 N 
ATOM     29  C   UNL     1       0.008  -0.784  -1.122  0.00  0.00    +0.086 A 
ATOM     30  C   UNL     1       0.027  -2.082  -0.779  0.00  0.00    +0.027 A 
ATOM     31  C   UNL     1       0.034  -2.138   0.685  0.00  0.00    +0.002 A 
ATOM     32  C   UNL     1       0.024  -0.801   1.125  0.00  0.00    +0.049 A 
ATOM     33  C   UNL     1       0.032  -0.533   2.489  0.00  0.00    +0.028 A 
ATOM     34  C   UNL     1       0.055  -1.574   3.391  0.00  0.00    +0.030 A 
ATOM     35  C   UNL     1       0.069  -2.891   2.952  0.00  0.00    +0.106 A 
ATOM     36  C   UNL     1       0.051  -3.177   1.616  0.00  0.00    +0.038 A 
ENDBRANCH  24  35
ENDBRANCH   1  24
TORSDOF 6
