REMARK  Name = ZINC13095988
REMARK  8 active torsions:
REMARK  status: ('A' for Active; 'I' for Inactive)
REMARK    1  A    between atoms: C_4  and  O_28
REMARK    2  A    between atoms: C_5  and  C_7
REMARK    3  A    between atoms: N_8  and  N_9
REMARK    4  A    between atoms: C_10  and  C_18
REMARK    5  A    between atoms: N_14  and  C_15
REMARK    6  A    between atoms: C_21  and  O_27
REMARK    7  A    between atoms: C_22  and  C_24
REMARK    8  A    between atoms: O_28  and  C_29
REMARK                            x       y       z     vdW  Elec       q    Type
REMARK                         _______ _______ _______ _____ _____    ______ ____
ROOT
ATOM      1  N   UNL     1       0.911   3.099  -0.172  0.00  0.00    -0.208 N 
ATOM      2  C   UNL     1       1.042   1.742  -0.293  0.00  0.00    +0.082 A 
ATOM      3  C   UNL     1      -0.042   0.952  -0.162  0.00  0.00    +0.077 A 
ATOM      4  S   UNL     1      -1.340   2.139   0.142  0.00  0.00    -0.056 S 
ATOM      5  C   UNL     1      -0.342   3.619   0.083  0.00  0.00    +0.190 A 
ATOM      6  N   UNL     1      -0.704   4.868   0.237  0.00  0.00    -0.256 NA
ENDROOT
BRANCH   2   7
ATOM      7  C   UNL     1       2.368   1.144  -0.566  0.00  0.00    +0.002 A 
ATOM      8  C   UNL     1       3.305   1.843  -1.333  0.00  0.00    +0.013 A 
ATOM      9  C   UNL     1       4.543   1.294  -1.585  0.00  0.00    +0.047 A 
ATOM     10  C   UNL     1       4.866   0.038  -1.090  0.00  0.00    +0.129 A 
ATOM     11  C   UNL     1       3.932  -0.674  -0.324  0.00  0.00    +0.078 A 
ATOM     12  C   UNL     1       2.680  -0.115  -0.064  0.00  0.00    +0.026 A 
BRANCH  11  13
ATOM     13  C   UNL     1       4.271  -2.009   0.204  0.00  0.00    +0.245 C 
ATOM     14  O   UNL     1       5.363  -2.494  -0.025  0.00  0.00    -0.270 OA
ATOM     15  N   UNL     1       3.371  -2.692   0.939  0.00  0.00    -0.325 N 
ATOM     16  H   UNL     1       2.500  -2.305   1.121  0.00  0.00    +0.145 HD
ATOM     17  H   UNL     1       3.594  -3.570   1.286  0.00  0.00    +0.145 HD
ENDBRANCH  11  13
BRANCH  10  18
ATOM     18  O   UNL     1       6.084  -0.500  -1.346  0.00  0.00    -0.506 OA
ATOM     19  H   UNL     1       6.119  -1.028  -2.156  0.00  0.00    +0.292 HD
ENDBRANCH  10  18
ENDBRANCH   2   7
BRANCH   6  20
ATOM     20  C   UNL     1      -2.107   5.197   0.504  0.00  0.00    +0.108 C 
ATOM     21  C   UNL     1      -2.505   6.673   0.470  0.00  0.00    +0.029 C 
ATOM     22  C   UNL     1      -2.424   5.932   1.807  0.00  0.00    +0.029 C 
ENDBRANCH   6  20
BRANCH   1  24
ATOM     23  C   UNL     1       1.865   5.167  -0.704  0.00  0.00    +0.145 C 
ATOM     24  N   UNL     1       2.023   3.941  -0.305  0.00  0.00    -0.172 NA
BRANCH  23  29
ATOM     25  C   UNL     1       3.947   8.243  -1.233  0.00  0.00    +0.001 A 
ATOM     26  C   UNL     1       5.167   7.838  -0.718  0.00  0.00    +0.004 A 
ATOM     27  C   UNL     1       5.319   6.566  -0.198  0.00  0.00    +0.046 A 
ATOM     28  C   UNL     1       4.248   5.688  -0.189  0.00  0.00    +0.135 A 
ATOM     29  C   UNL     1       3.011   6.093  -0.709  0.00  0.00    +0.037 A 
ATOM     30  C   UNL     1       2.873   7.379  -1.236  0.00  0.00    +0.013 A 
BRANCH  28  31
ATOM     31  O   UNL     1       4.396   4.438   0.321  0.00  0.00    -0.434 OA
BRANCH  31  32
ATOM     32  C   UNL     1       5.669   4.113   0.884  0.00  0.00    +0.541 C 
ATOM     33  F   UNL     1       6.652   4.194  -0.109  0.00  0.00    -0.166 F 
ATOM     34  F   UNL     1       5.969   5.015   1.911  0.00  0.00    -0.166 F 
ENDBRANCH  31  32
ENDBRANCH  28  31
ENDBRANCH  23  29
ENDBRANCH   1  24
TORSDOF 8
