REMARK  Name = ZINC39467306
REMARK  5 active torsions:
REMARK  status: ('A' for Active; 'I' for Inactive)
REMARK    1  A    between atoms: C_4  and  O_33
REMARK    2  A    between atoms: C_5  and  C_7
REMARK    3  A    between atoms: C_19  and  O_20
REMARK    4  A    between atoms: P_23  and  C_26
REMARK    5  A    between atoms: C_31  and  O_32
REMARK                            x       y       z     vdW  Elec       q    Type
REMARK                         _______ _______ _______ _____ _____    ______ ____
ROOT
ATOM      1  C   UNL     1       1.245  -2.165  -0.022  0.00  0.00    +0.023 C 
ATOM      2  C   UNL     1       0.951  -2.843  -1.144  0.00  0.00    -0.013 C 
ATOM      3  C   UNL     1       0.974  -4.348  -1.125  0.00  0.00    +0.005 C 
ATOM      4  C   UNL     1       0.104  -4.911  -2.240  0.00  0.00    -0.046 C 
ATOM      5  N   UNL     1      -1.302  -4.512  -2.070  0.00  0.00    +0.398 N 
ATOM      6  C   UNL     1      -1.827  -5.021  -0.801  0.00  0.00    -0.020 C 
ATOM      7  C   UNL     1      -1.009  -4.463   0.370  0.00  0.00    -0.002 C 
ATOM      8  C   UNL     1       0.443  -4.853   0.220  0.00  0.00    +0.019 C 
ATOM      9  C   UNL     1       1.216  -4.187   1.333  0.00  0.00    +0.023 C 
ATOM     10  C   UNL     1       1.601  -2.916   1.205  0.00  0.00    +0.121 C 
ATOM     11  C   UNL     1      -3.280  -4.586  -0.576  0.00  0.00    +0.157 C 
ATOM     12  O   UNL     1      -4.110  -5.123  -1.622  0.00  0.00    -0.316 OA
ATOM     13  P   UNL     1      -3.631  -4.891  -3.159  0.00  0.00    +0.291 P 
ATOM     14  O   UNL     1      -3.998  -3.530  -3.611  0.00  0.00    -0.269 OA
ATOM     15  N   UNL     1      -1.985  -5.066  -3.132  0.00  0.00    -0.288 NA
ATOM     16  H   UNL     1      -1.515  -5.537  -3.838  0.00  0.00    +0.111 HD
ATOM     17  H   UNL     1      -1.377  -3.506  -2.105  0.00  0.00    -0.055 HD
ENDROOT
BRANCH   1  22
ATOM     18  C   UNL     1      -0.017   1.376   0.010  0.00  0.00    +0.001 A 
ATOM     19  C   UNL     1       1.169   2.089   0.002  0.00  0.00    +0.004 A 
ATOM     20  C   UNL     1       2.382   1.426  -0.013  0.00  0.00    +0.046 A 
ATOM     21  C   UNL     1       2.416   0.041  -0.021  0.00  0.00    +0.125 A 
ATOM     22  C   UNL     1       1.219  -0.683  -0.013  0.00  0.00    +0.027 A 
ATOM     23  C   UNL     1       0.002  -0.004   0.002  0.00  0.00    +0.012 A 
BRANCH  21  24
ATOM     24  O   UNL     1       3.607  -0.612  -0.036  0.00  0.00    -0.506 OA
ATOM     25  H   UNL     1       3.960  -0.806   0.843  0.00  0.00    +0.292 HD
ENDBRANCH  21  24
ENDBRANCH   1  22
BRANCH  13  26
ATOM     26  C   UNL     1      -4.378  -6.136  -4.246  0.00  0.00    +0.091 A 
ATOM     27  C   UNL     1      -3.729  -7.334  -4.474  0.00  0.00    +0.018 A 
ATOM     28  C   UNL     1      -4.298  -8.284  -5.302  0.00  0.00    +0.001 A 
ATOM     29  C   UNL     1      -5.518  -8.037  -5.905  0.00  0.00    +0.004 A 
ATOM     30  C   UNL     1      -6.171  -6.840  -5.681  0.00  0.00    +0.046 A 
ATOM     31  C   UNL     1      -5.604  -5.888  -4.846  0.00  0.00    +0.131 A 
BRANCH  31  32
ATOM     32  O   UNL     1      -6.248  -4.713  -4.619  0.00  0.00    -0.506 OA
ATOM     33  H   UNL     1      -6.022  -4.013  -5.247  0.00  0.00    +0.292 HD
ENDBRANCH  31  32
ENDBRANCH  13  26
BRANCH  10  34
ATOM     34  O   UNL     1       2.310  -2.311   2.194  0.00  0.00    -0.506 OA
ATOM     35  H   UNL     1       2.492  -2.882   2.953  0.00  0.00    +0.292 HD
ENDBRANCH  10  34
TORSDOF 5
