REMARK  Name = ZINC36500665
REMARK  13 active torsions:
REMARK  status: ('A' for Active; 'I' for Inactive)
REMARK    1  A    between atoms: C_1  and  C_2
REMARK    2  A    between atoms: C_5  and  C_8
REMARK    3  A    between atoms: C_8  and  C_10
REMARK    4  A    between atoms: C_8  and  N_17
REMARK    5  A    between atoms: N_12  and  C_13
REMARK    6  A    between atoms: C_13  and  C_14
REMARK    7  A    between atoms: C_13  and  C_15
REMARK    8  A    between atoms: C_13  and  C_16
REMARK    9  A    between atoms: N_17  and  C_18
REMARK   10  A    between atoms: C_18  and  C_19
REMARK   11  A    between atoms: C_24  and  C_26
REMARK   12  A    between atoms: C_27  and  O_33
REMARK   13  A    between atoms: C_31  and  O_32
REMARK                            x       y       z     vdW  Elec       q    Type
REMARK                         _______ _______ _______ _____ _____    ______ ____
ROOT
ATOM      1  N   UNL     1      -0.359  -5.553  -3.003  0.00  0.00    -0.274 N 
ATOM      2  C   UNL     1      -1.005  -5.091  -4.093  0.00  0.00    +0.255 C 
ATOM      3  O   UNL     1      -2.078  -4.532  -3.972  0.00  0.00    -0.270 OA
ENDROOT
BRANCH   2   4
ATOM      4  C   UNL     1      -0.411  -5.264  -5.429  0.00  0.00    +0.119 A 
ATOM      5  C   UNL     1      -0.698  -6.409  -6.187  0.00  0.00    +0.133 A 
ATOM      6  C   UNL     1      -0.135  -6.561  -7.443  0.00  0.00    +0.046 A 
ATOM      7  C   UNL     1       0.708  -5.590  -7.950  0.00  0.00    +0.007 A 
ATOM      8  C   UNL     1       0.999  -4.458  -7.212  0.00  0.00    +0.046 A 
ATOM      9  C   UNL     1       0.441  -4.282  -5.955  0.00  0.00    +0.133 A 
BRANCH   9  10
ATOM     10  O   UNL     1       0.723  -3.168  -5.235  0.00  0.00    -0.506 OA
ATOM     11  H   UNL     1       1.499  -3.254  -4.665  0.00  0.00    +0.292 HD
ENDBRANCH   9  10
BRANCH   5  12
ATOM     12  O   UNL     1      -1.525  -7.363  -5.691  0.00  0.00    -0.506 OA
ATOM     13  H   UNL     1      -2.457  -7.228  -5.908  0.00  0.00    +0.292 HD
ENDBRANCH   5  12
ENDBRANCH   2   4
BRANCH   1  14
ATOM     14  C   UNL     1      -0.950  -5.380  -1.674  0.00  0.00    +0.193 C 
BRANCH  14  19
ATOM     15  C   UNL     1       1.556  -0.903   0.985  0.00  0.00    +0.044 C 
ATOM     16  C   UNL     1       0.902  -2.071   0.291  0.00  0.00    -0.050 A 
ATOM     17  C   UNL     1      -0.463  -2.261   0.396  0.00  0.00    +0.004 A 
ATOM     18  C   UNL     1      -1.062  -3.332  -0.240  0.00  0.00    +0.006 A 
ATOM     19  C   UNL     1      -0.297  -4.212  -0.981  0.00  0.00    -0.018 A 
ATOM     20  C   UNL     1       1.069  -4.022  -1.087  0.00  0.00    +0.006 A 
ATOM     21  C   UNL     1       1.667  -2.948  -0.454  0.00  0.00    +0.004 A 
ENDBRANCH  14  19
BRANCH  14  22
ATOM     22  C   UNL     1      -0.733  -6.631  -0.862  0.00  0.00    +0.239 C 
ATOM     23  O   UNL     1       0.361  -7.154  -0.835  0.00  0.00    -0.273 OA
ATOM     24  N   UNL     1      -1.754  -7.169  -0.166  0.00  0.00    -0.309 N 
ATOM     25  H   UNL     1      -2.629  -6.751  -0.188  0.00  0.00    +0.149 HD
BRANCH  24  26
ATOM     26  C   UNL     1      -1.543  -8.385   0.623  0.00  0.00    +0.026 C 
ATOM     27  C   UNL     1      -0.470  -8.126   1.682  0.00  0.00    +0.031 C 
ATOM     28  C   UNL     1      -2.852  -8.781   1.309  0.00  0.00    +0.031 C 
ATOM     29  C   UNL     1      -1.087  -9.518  -0.298  0.00  0.00    +0.031 C 
ENDBRANCH  24  26
ENDBRANCH  14  22
ENDBRANCH   1  14
BRANCH   1  30
ATOM     30  C   UNL     1       0.934  -6.226  -3.149  0.00  0.00    +0.183 C 
BRANCH  30  31
ATOM     31  C   UNL     1       0.710  -7.658  -3.562  0.00  0.00    +0.122 A 
ATOM     32  C   UNL     1       1.424  -8.332  -4.481  0.00  0.00    +0.046 A 
ATOM     33  C   UNL     1       0.877  -9.634  -4.551  0.00  0.00    +0.041 A 
ATOM     34  C   UNL     1      -0.139  -9.677  -3.670  0.00  0.00    +0.195 A 
ATOM     35  O   UNL     1      -0.232  -8.479  -3.070  0.00  0.00    -0.466 OA
ENDBRANCH  30  31
ENDBRANCH   1  30
TORSDOF 9
