REMARK  Name = ZINC14885933
REMARK  9 active torsions:
REMARK  status: ('A' for Active; 'I' for Inactive)
REMARK    1  A    between atoms: C_1  and  C_2
REMARK    2  A    between atoms: C_3  and  C_22
REMARK    3  A    between atoms: C_5  and  C_7
REMARK    4  A    between atoms: C_12  and  N_13
REMARK    5  A    between atoms: C_14  and  C_16
REMARK    6  A    between atoms: C_22  and  N_23
REMARK    7  A    between atoms: C_24  and  C_26
REMARK    8  A    between atoms: C_26  and  C_27
REMARK    9  A    between atoms: C_27  and  C_28
REMARK                            x       y       z     vdW  Elec       q    Type
REMARK                         _______ _______ _______ _____ _____    ______ ____
ROOT
ATOM      1  C   UNL     1       1.682   2.997  -4.912  0.00  0.00    +0.088 C 
ATOM      2  C   UNL     1       1.022   1.705  -5.319  0.00  0.00    +0.127 A 
ATOM      3  C   UNL     1       0.077   1.041  -4.629  0.00  0.00    +0.100 A 
ATOM      4  N   UNL     1      -0.250  -0.056  -5.331  0.00  0.00    -0.212 NA
ATOM      5  C   UNL     1       0.472  -0.083  -6.427  0.00  0.00    +0.229 A 
ATOM      6  O   UNL     1       1.271   0.998  -6.440  0.00  0.00    -0.440 OA
ENDROOT
BRANCH   5   7
ATOM      7  C   UNL     1       0.416  -1.127  -7.470  0.00  0.00    +0.058 A 
ATOM      8  C   UNL     1      -0.375  -2.261  -7.286  0.00  0.00    +0.015 A 
ATOM      9  C   UNL     1      -0.423  -3.232  -8.264  0.00  0.00    +0.001 A 
ATOM     10  C   UNL     1       0.311  -3.087  -9.430  0.00  0.00    +0.002 A 
ATOM     11  C   UNL     1       1.098  -1.970  -9.624  0.00  0.00    +0.024 A 
ATOM     12  C   UNL     1       1.153  -0.980  -8.653  0.00  0.00    +0.046 A 
BRANCH  12  13
ATOM     13  N   UNL     1       1.944   0.153  -8.851  0.00  0.00    -0.283 N 
ATOM     14  C   UNL     1       3.075   0.067  -9.580  0.00  0.00    +0.246 C 
ATOM     15  O   UNL     1       3.363  -0.974 -10.132  0.00  0.00    -0.273 OA
ATOM     16  H   UNL     1       1.679   1.002  -8.465  0.00  0.00    +0.155 HD
BRANCH  14  17
ATOM     17  C   UNL     1       3.981   1.264  -9.708  0.00  0.00    +0.204 C 
ATOM     18  C   UNL     1       3.279   2.387 -10.505  0.00  0.00    +0.043 C 
ATOM     19  C   UNL     1       4.412   3.013 -11.349  0.00  0.00    +0.031 C 
ATOM     20  C   UNL     1       5.664   2.194 -10.964  0.00  0.00    +0.161 C 
ATOM     21  O   UNL     1       5.149   0.929 -10.489  0.00  0.00    -0.367 OA
ENDBRANCH  14  17
ENDBRANCH  12  13
ENDBRANCH   5   7
BRANCH   3  22
ATOM     22  C   UNL     1      -0.514   1.458  -3.307  0.00  0.00    +0.163 C 
BRANCH  22  23
ATOM     23  N   UNL     1       0.272   0.878  -2.216  0.00  0.00    -0.310 N 
ATOM     24  C   UNL     1      -0.073   1.117  -0.935  0.00  0.00    +0.214 C 
ATOM     25  O   UNL     1      -1.035   1.812  -0.687  0.00  0.00    -0.276 OA
ATOM     26  H   UNL     1       1.042   0.322  -2.415  0.00  0.00    +0.149 HD
BRANCH  24  27
ATOM     27  C   UNL     1       0.736   0.520   0.187  0.00  0.00    +0.100 C 
BRANCH  27  28
ATOM     28  C   UNL     1       0.136   0.944   1.529  0.00  0.00    +0.046 C 
BRANCH  28  29
ATOM     29  C   UNL     1       0.945   0.347   2.652  0.00  0.00    -0.022 A 
ATOM     30  C   UNL     1       0.682  -0.796   3.306  0.00  0.00    +0.087 A 
ATOM     31  N   UNL     1       1.638  -1.017   4.260  0.00  0.00    -0.360 N 
ATOM     32  H   UNL     1       1.661  -1.781   4.858  0.00  0.00    +0.165 HD
ATOM     33  C   UNL     1       2.557   0.008   4.249  0.00  0.00    +0.047 A 
ATOM     34  C   UNL     1       2.163   0.907   3.241  0.00  0.00    +0.003 A 
ATOM     35  C   UNL     1       2.918   2.056   2.999  0.00  0.00    +0.010 A 
ATOM     36  C   UNL     1       4.038   2.301   3.744  0.00  0.00    +0.001 A 
ATOM     37  C   UNL     1       4.430   1.417   4.739  0.00  0.00    +0.002 A 
ATOM     38  C   UNL     1       3.700   0.278   4.995  0.00  0.00    +0.026 A 
ENDBRANCH  28  29
ENDBRANCH  27  28
ENDBRANCH  24  27
ENDBRANCH  22  23
ENDBRANCH   3  22
TORSDOF 8
