REMARK  Name = ZINC31161993
REMARK  8 active torsions:
REMARK  status: ('A' for Active; 'I' for Inactive)
REMARK    1  A    between atoms: C_1  and  C_2
REMARK    2  A    between atoms: C_2  and  C_30
REMARK    3  A    between atoms: C_6  and  C_29
REMARK    4  A    between atoms: C_9  and  O_20
REMARK    5  A    between atoms: C_14  and  O_19
REMARK    6  A    between atoms: O_20  and  C_21
REMARK    7  A    between atoms: C_21  and  C_23
REMARK    8  A    between atoms: C_30  and  O_31
REMARK                            x       y       z     vdW  Elec       q    Type
REMARK                         _______ _______ _______ _____ _____    ______ ____
ROOT
ATOM      1  C   UNL     1       5.702   0.339   2.843  0.00  0.00    +0.014 C 
ATOM      2  C   UNL     1       5.771   1.739   2.230  0.00  0.00    -0.002 C 
ATOM      3  C   UNL     1       4.441   2.459   2.456  0.00  0.00    +0.009 C 
ATOM      4  C   UNL     1       4.514   3.857   1.837  0.00  0.00    +0.001 C 
ATOM      5  C   UNL     1       4.767   3.733   0.335  0.00  0.00    +0.010 C 
ATOM      6  C   UNL     1       6.096   3.010   0.094  0.00  0.00    +0.007 C 
ATOM      7  C   UNL     1       6.051   1.624   0.734  0.00  0.00    +0.047 C 
ATOM      8  C   UNL     1       4.932   0.829   0.051  0.00  0.00    +0.182 C 
ATOM      9  C   UNL     1       5.325   0.616  -1.407  0.00  0.00    +0.062 C 
ATOM     10  C   UNL     1       5.471   1.945  -2.149  0.00  0.00    +0.137 C 
ATOM     11  C   UNL     1       6.381   2.925  -1.383  0.00  0.00    +0.119 C 
ATOM     12  C   UNL     1       7.769   2.334  -1.701  0.00  0.00    +0.268 C 
ATOM     13  O   UNL     1       7.622   1.861  -3.079  0.00  0.00    -0.461 OA
ATOM     14  C   UNL     1       6.329   1.650  -3.381  0.00  0.00    +0.313 C 
ATOM     15  O   UNL     1       5.912   1.285  -4.455  0.00  0.00    -0.250 OA
ATOM     16  C   UNL     1       7.205   3.825   0.763  0.00  0.00    +0.014 C 
ENDROOT
BRANCH  11  17
ATOM     17  O   UNL     1       6.283   4.226  -1.967  0.00  0.00    -0.384 OA
ATOM     18  H   UNL     1       6.460   4.360  -3.044  0.00  0.00    +0.210 HD
ENDBRANCH  11  17
BRANCH   8  19
ATOM     19  O   UNL     1       3.688   1.575   0.120  0.00  0.00    -0.458 OA
BRANCH  19  20
ATOM     20  C   UNL     1       2.546   0.860   0.133  0.00  0.00    +0.339 C 
ATOM     21  O   UNL     1       2.589  -0.353   0.088  0.00  0.00    -0.245 OA
BRANCH  20  22
ATOM     22  C   UNL     1       1.242   1.551   0.202  0.00  0.00    +0.059 A 
ATOM     23  C   UNL     1       0.057   0.814   0.215  0.00  0.00    +0.015 A 
ATOM     24  C   UNL     1      -1.157   1.466   0.275  0.00  0.00    +0.001 A 
ATOM     25  C   UNL     1      -1.201   2.848   0.332  0.00  0.00    +0.000 A 
ATOM     26  C   UNL     1      -0.030   3.585   0.319  0.00  0.00    +0.001 A 
ATOM     27  C   UNL     1       1.190   2.946   0.254  0.00  0.00    +0.015 A 
ENDBRANCH  20  22
ENDBRANCH  19  20
ENDBRANCH   8  19
BRANCH   2  28
ATOM     28  C   UNL     1       6.897   2.531   2.898  0.00  0.00    +0.162 C 
BRANCH  28  29
ATOM     29  O   UNL     1       6.740   2.478   4.317  0.00  0.00    -0.394 OA
ATOM     30  H   UNL     1       7.460   2.993   4.970  0.00  0.00    +0.209 HD
ENDBRANCH  28  29
ENDBRANCH   2  28
TORSDOF 6
