REMARK  Name = ZINC21788366
REMARK  7 active torsions:
REMARK  status: ('A' for Active; 'I' for Inactive)
REMARK    1  A    between atoms: C_1  and  C_2
REMARK    2  A    between atoms: C_13  and  C_15
REMARK    3  A    between atoms: C_19  and  O_30
REMARK    4  A    between atoms: C_20  and  O_21
REMARK    5  A    between atoms: O_21  and  C_22
REMARK    6  A    between atoms: C_22  and  C_23
REMARK    7  A    between atoms: O_30  and  C_31
REMARK                            x       y       z     vdW  Elec       q    Type
REMARK                         _______ _______ _______ _____ _____    ______ ____
ROOT
ATOM      1  C   UNL     1      -1.260   2.085  -0.079  0.00  0.00    +0.015 A 
ATOM      2  C   UNL     1      -0.056   1.420   0.055  0.00  0.00    +0.009 A 
ATOM      3  C   UNL     1       1.135   2.116  -0.028  0.00  0.00    +0.004 A 
ATOM      4  C   UNL     1       1.127   3.483  -0.240  0.00  0.00    +0.049 A 
ATOM      5  C   UNL     1      -0.076   4.157  -0.370  0.00  0.00    +0.162 A 
ATOM      6  C   UNL     1      -1.276   3.455  -0.286  0.00  0.00    +0.167 A 
ENDROOT
BRANCH   1  19
ATOM      7  C   UNL     1      -0.732   1.274  -2.478  0.00  0.00    +0.068 C 
ATOM      8  C   UNL     1      -2.227   1.088  -2.505  0.00  0.00    +0.066 A 
ATOM      9  C   UNL     1      -3.079   1.105  -1.380  0.00  0.00    +0.032 A 
ATOM     10  C   UNL     1      -4.341   0.902  -1.815  0.00  0.00    +0.125 A 
ATOM     11  N   UNL     1      -4.280   0.765  -3.177  0.00  0.00    -0.263 N 
ATOM     12  H   UNL     1      -5.201   0.593  -3.754  0.00  0.00    +0.190 HD
ATOM     13  N   UNL     1      -2.948   0.886  -3.571  0.00  0.00    -0.177 NA
ATOM     14  N   UNL     1      -5.539   0.819  -1.147  0.00  0.00    -0.270 N 
ATOM     15  C   UNL     1      -5.910   0.951   0.091  0.00  0.00    +0.228 C 
ATOM     16  O   UNL     1      -7.109   0.906   0.271  0.00  0.00    -0.275 OA
ATOM     17  C   UNL     1      -5.105   1.147   1.315  0.00  0.00    +0.166 C 
ATOM     18  S   UNL     1      -3.692   2.230   1.058  0.00  0.00    -0.138 S 
ATOM     19  C   UNL     1      -2.557   1.322   0.006  0.00  0.00    +0.115 C 
ATOM     20  H   UNL     1      -6.463   0.592  -1.700  0.00  0.00    +0.156 HD
ENDBRANCH   1  19
BRANCH   5  21
ATOM     21  O   UNL     1      -0.086   5.500  -0.579  0.00  0.00    -0.491 OA
ATOM     22  C   UNL     1       1.183   6.154  -0.654  0.00  0.00    +0.277 C 
ENDBRANCH   5  21
BRANCH   6  23
ATOM     23  O   UNL     1      -2.459   4.112  -0.412  0.00  0.00    -0.483 OA
BRANCH  23  24
ATOM     24  C   UNL     1      -2.998   4.231  -1.731  0.00  0.00    +0.264 C 
BRANCH  24  25
ATOM     25  C   UNL     1      -4.303   4.982  -1.675  0.00  0.00    -0.010 A 
ATOM     26  C   UNL     1      -5.490   4.294  -1.507  0.00  0.00    +0.010 A 
ATOM     27  C   UNL     1      -6.687   4.983  -1.450  0.00  0.00    +0.039 A 
ATOM     28  C   UNL     1      -6.697   6.362  -1.572  0.00  0.00    +0.123 A 
ATOM     29  C   UNL     1      -5.508   7.050  -1.746  0.00  0.00    +0.039 A 
ATOM     30  C   UNL     1      -4.312   6.359  -1.797  0.00  0.00    +0.010 A 
ATOM     31  F   UNL     1      -7.867   7.037  -1.522  0.00  0.00    -0.205 F 
ENDBRANCH  24  25
ENDBRANCH  23  24
ENDBRANCH   6  23
TORSDOF 5
