REMARK  Name = ZINC21548828
REMARK  8 active torsions:
REMARK  status: ('A' for Active; 'I' for Inactive)
REMARK    1  A    between atoms: C_1  and  C_2
REMARK    2  A    between atoms: C_2  and  O_3
REMARK    3  A    between atoms: O_3  and  C_4
REMARK    4  A    between atoms: C_4  and  C_6
REMARK    5  A    between atoms: C_7  and  C_32
REMARK    6  A    between atoms: C_12  and  C_30
REMARK    7  A    between atoms: C_12  and  C_31
REMARK    8  A    between atoms: C_18  and  C_20
REMARK                            x       y       z     vdW  Elec       q    Type
REMARK                         _______ _______ _______ _____ _____    ______ ____
ROOT
ATOM      1  C   UNL     1       0.656   5.939  -1.158  0.00  0.00    +0.061 C 
ATOM      2  C   UNL     1       1.391   7.062  -1.083  0.00  0.00    +0.012 C 
ATOM      3  N   UNL     1       1.477   7.796   0.062  0.00  0.00    -0.343 N 
ATOM      4  C   UNL     1       0.800   7.389   1.296  0.00  0.00    +0.082 C 
ATOM      5  C   UNL     1       1.588   7.843   2.517  0.00  0.00    +0.029 C 
ATOM      6  C   UNL     1       2.931   7.155   2.706  0.00  0.00    -0.027 C 
ATOM      7  C   UNL     1       2.820   5.632   2.628  0.00  0.00    +0.081 C 
ATOM      8  C   UNL     1       2.017   5.266   1.393  0.00  0.00    +0.140 C 
ATOM      9  O   UNL     1       2.487   4.555   0.546  0.00  0.00    -0.297 OA
ATOM     10  C   UNL     1       0.633   5.861   1.308  0.00  0.00    +0.087 C 
ATOM     11  C   UNL     1      -0.100   5.439   0.041  0.00  0.00    +0.070 C 
ATOM     12  C   UNL     1       3.947   7.648   1.673  0.00  0.00    +0.011 C 
ATOM     13  C   UNL     1       3.467   7.520   4.104  0.00  0.00    +0.011 C 
ATOM     14  C   UNL     1       2.140   7.525  -2.306  0.00  0.00    +0.061 C 
ATOM     15  H   UNL     1       2.076   8.719   0.042  0.00  0.00    +0.146 HD
ENDROOT
BRANCH  11  16
ATOM     16  C   UNL     1      -0.260   3.948  -0.018  0.00  0.00    -0.031 A 
ATOM     17  C   UNL     1       0.741   3.172  -0.515  0.00  0.00    +0.005 A 
ATOM     18  C   UNL     1       0.610   1.786  -0.579  0.00  0.00    +0.001 A 
ATOM     19  C   UNL     1      -0.523   1.169  -0.146  0.00  0.00    +0.008 A 
ATOM     20  C   UNL     1      -1.581   1.938   0.368  0.00  0.00    -0.018 A 
ATOM     21  C   UNL     1      -1.445   3.347   0.438  0.00  0.00    -0.014 A 
ATOM     22  C   UNL     1      -2.501   4.115   0.958  0.00  0.00    +0.009 A 
ATOM     23  C   UNL     1      -3.634   3.498   1.390  0.00  0.00    +0.001 A 
ATOM     24  C   UNL     1      -3.765   2.112   1.327  0.00  0.00    +0.001 A 
ATOM     25  C   UNL     1      -2.764   1.335   0.830  0.00  0.00    +0.008 A 
ENDBRANCH  11  16
BRANCH   1  26
ATOM     26  C   UNL     1       0.591   5.226  -2.370  0.00  0.00    +0.337 C 
ATOM     27  O   UNL     1       1.299   5.549  -3.305  0.00  0.00    -0.245 OA
BRANCH  26  28
ATOM     28  O   UNL     1      -0.257   4.182  -2.494  0.00  0.00    -0.462 OA
BRANCH  28  30
ATOM     29  C   UNL     1      -1.285   2.360  -3.703  0.00  0.00    +0.048 C 
ATOM     30  C   UNL     1      -0.270   3.504  -3.752  0.00  0.00    +0.229 C 
ENDBRANCH  28  30
ENDBRANCH  26  28
ENDBRANCH   1  26
TORSDOF 4
