REMARK  Name = ZINC32055430
REMARK  11 active torsions:
REMARK  status: ('A' for Active; 'I' for Inactive)
REMARK    1  A    between atoms: C_1  and  C_2
REMARK    2  A    between atoms: C_2  and  N_3
REMARK    3  A    between atoms: N_3  and  C_4
REMARK    4  A    between atoms: N_3  and  C_19
REMARK    5  A    between atoms: C_4  and  C_6
REMARK    6  A    between atoms: C_4  and  C_8
REMARK    7  A    between atoms: C_6  and  N_7
REMARK    8  A    between atoms: C_17  and  O_18
REMARK    9  A    between atoms: C_19  and  C_20
REMARK   10  A    between atoms: C_19  and  C_21
REMARK   11  A    between atoms: C_19  and  C_22
REMARK                            x       y       z     vdW  Elec       q    Type
REMARK                         _______ _______ _______ _____ _____    ______ ____
ROOT
ATOM      1  C   UNL     1       1.934  -1.766  -1.433  0.00  0.00    +0.074 C 
ENDROOT
BRANCH   1   2
ATOM      2  C   UNL     1       3.095  -2.090  -0.529  0.00  0.00    +0.017 A 
ATOM      3  C   UNL     1       4.261  -2.668  -1.057  0.00  0.00    -0.010 A 
ATOM      4  C   UNL     1       4.376  -2.958  -2.428  0.00  0.00    +0.009 A 
ATOM      5  C   UNL     1       5.521  -3.518  -2.904  0.00  0.00    +0.001 A 
ATOM      6  C   UNL     1       6.585  -3.811  -2.053  0.00  0.00    +0.001 A 
ATOM      7  C   UNL     1       6.510  -3.545  -0.721  0.00  0.00    +0.008 A 
ATOM      8  C   UNL     1       5.344  -2.966  -0.191  0.00  0.00    -0.017 A 
ATOM      9  C   UNL     1       5.232  -2.676   1.180  0.00  0.00    +0.012 A 
ATOM     10  C   UNL     1       4.089  -2.116   1.660  0.00  0.00    +0.046 A 
ATOM     11  C   UNL     1       3.022  -1.817   0.807  0.00  0.00    +0.122 A 
BRANCH  11  12
ATOM     12  O   UNL     1       1.895  -1.252   1.315  0.00  0.00    -0.506 OA
ATOM     13  H   UNL     1       1.269  -1.889   1.687  0.00  0.00    +0.292 HD
ENDBRANCH  11  12
ENDBRANCH   1   2
BRANCH   1  14
ATOM     14  N   UNL     1       1.391  -0.447  -1.081  0.00  0.00    -0.293 NA
BRANCH  14  15
ATOM     15  C   UNL     1       1.186   0.376  -2.280  0.00  0.00    +0.014 C 
ATOM     16  C   UNL     1       0.281   1.560  -1.937  0.00  0.00    +0.027 C 
ATOM     17  C   UNL     1       2.536   0.893  -2.780  0.00  0.00    +0.027 C 
ATOM     18  C   UNL     1       0.528  -0.470  -3.372  0.00  0.00    +0.027 C 
ENDBRANCH  14  15
BRANCH  14  20
ATOM     19  C   UNL     1       0.032   0.582   0.677  0.00  0.00    +0.020 C 
ATOM     20  C   UNL     1       0.146  -0.579  -0.313  0.00  0.00    +0.082 C 
ENDBRANCH  14  20
ENDBRANCH   1  14
BRANCH   1  21
ATOM     21  C   UNL     1       0.845  -2.827  -1.265  0.00  0.00    -0.062 C 
BRANCH  21  22
ATOM     22  N   UNL     1      -0.230  -2.585  -2.236  0.00  0.00    +0.379 N 
ATOM     23  H   UNL     1      -0.947  -3.286  -2.126  0.00  0.00    -0.090 HD
ATOM     24  H   UNL     1      -0.626  -1.671  -2.079  0.00  0.00    -0.090 HD
ATOM     25  H   UNL     1       0.146  -2.632  -3.172  0.00  0.00    -0.090 HD
ENDBRANCH  21  22
ENDBRANCH   1  21
TORSDOF 7
