REMARK  Name = ZINC45773775
REMARK  9 active torsions:
REMARK  status: ('A' for Active; 'I' for Inactive)
REMARK    1  A    between atoms: C_1  and  C_2
REMARK    2  A    between atoms: C_2  and  C_4
REMARK    3  A    between atoms: C_2  and  N_14
REMARK    4  A    between atoms: C_15  and  C_17
REMARK    5  A    between atoms: C_17  and  O_18
REMARK    6  A    between atoms: O_18  and  C_19
REMARK    7  A    between atoms: C_19  and  C_21
REMARK    8  A    between atoms: C_24  and  N_26
REMARK    9  A    between atoms: C_27  and  C_29
REMARK                            x       y       z     vdW  Elec       q    Type
REMARK                         _______ _______ _______ _____ _____    ______ ____
ROOT
ATOM      1  C   UNL     1       2.880  -1.154  -2.245  0.00  0.00    +0.328 C 
ENDROOT
BRANCH   1   3
ATOM      2  N   UNL     1       0.764  -0.483  -1.154  0.00  0.00    -0.306 N 
ATOM      3  C   UNL     1       2.096  -0.661  -1.056  0.00  0.00    +0.251 C 
ATOM      4  O   UNL     1       2.665  -0.424  -0.011  0.00  0.00    -0.272 OA
ATOM      5  H   UNL     1       0.309  -0.673  -1.990  0.00  0.00    +0.149 HD
BRANCH   2   7
ATOM      6  C   UNL     1       0.007   1.526   0.017  0.00  0.00    +0.033 C 
ATOM      7  C   UNL     1       0.002  -0.004   0.002  0.00  0.00    +0.101 C 
BRANCH   7   8
ATOM      8  C   UNL     1      -1.418  -0.500  -0.091  0.00  0.00    -0.020 A 
ATOM      9  C   UNL     1      -1.970  -0.769  -1.306  0.00  0.00    +0.006 A 
ATOM     10  C   UNL     1      -3.281  -1.229  -1.412  0.00  0.00    +0.001 A 
ATOM     11  C   UNL     1      -4.048  -1.422  -0.304  0.00  0.00    +0.008 A 
ATOM     12  C   UNL     1      -3.512  -1.155   0.967  0.00  0.00    -0.018 A 
ATOM     13  C   UNL     1      -2.176  -0.694   1.075  0.00  0.00    -0.013 A 
ATOM     14  C   UNL     1      -1.639  -0.432   2.348  0.00  0.00    +0.009 A 
ATOM     15  C   UNL     1      -2.404  -0.631   3.455  0.00  0.00    +0.001 A 
ATOM     16  C   UNL     1      -3.715  -1.091   3.349  0.00  0.00    +0.001 A 
ATOM     17  C   UNL     1      -4.273  -1.342   2.134  0.00  0.00    +0.008 A 
ENDBRANCH   7   8
ENDBRANCH   2   7
ENDBRANCH   1   3
BRANCH   1  18
ATOM     18  O   UNL     1       4.261  -1.260  -1.894  0.00  0.00    -0.451 OA
BRANCH  18  19
ATOM     19  C   UNL     1       5.106  -1.692  -2.855  0.00  0.00    +0.346 C 
ATOM     20  O   UNL     1       4.679  -1.970  -3.960  0.00  0.00    -0.244 OA
BRANCH  19  21
ATOM     21  C   UNL     1       6.488  -1.821  -2.576  0.00  0.00    +0.098 A 
ATOM     22  C   UNL     1       7.514  -2.237  -3.417  0.00  0.00    +0.024 A 
ATOM     23  C   UNL     1       8.767  -2.262  -2.865  0.00  0.00    +0.032 A 
ATOM     24  C   UNL     1       8.918  -1.883  -1.550  0.00  0.00    +0.073 A 
ATOM     25  S   UNL     1       7.362  -1.483  -1.059  0.00  0.00    -0.067 S 
BRANCH  24  26
ATOM     26  N   UNL     1      10.087  -1.835  -0.804  0.00  0.00    -0.273 N 
ATOM     27  C   UNL     1      10.049  -1.436   0.482  0.00  0.00    +0.284 C 
ATOM     28  O   UNL     1       8.990  -1.116   0.990  0.00  0.00    -0.266 OA
ATOM     29  H   UNL     1      10.931  -2.090  -1.209  0.00  0.00    +0.156 HD
BRANCH  27  30
ATOM     30  C   UNL     1      11.284  -1.386   1.270  0.00  0.00    +0.189 A 
ATOM     31  C   UNL     1      11.387  -1.007   2.579  0.00  0.00    +0.054 A 
ATOM     32  C   UNL     1      12.744  -1.109   2.923  0.00  0.00    +0.042 A 
ATOM     33  C   UNL     1      13.402  -1.540   1.824  0.00  0.00    +0.196 A 
ATOM     34  O   UNL     1      12.518  -1.711   0.832  0.00  0.00    -0.458 OA
ENDBRANCH  27  30
ENDBRANCH  24  26
ENDBRANCH  19  21
ENDBRANCH  18  19
ENDBRANCH   1  18
TORSDOF 8
