REMARK  Name = ZINC25782676
REMARK  9 active torsions:
REMARK  status: ('A' for Active; 'I' for Inactive)
REMARK    1  A    between atoms: C_1  and  C_2
REMARK    2  A    between atoms: C_4  and  C_8
REMARK    3  A    between atoms: C_5  and  C_7
REMARK    4  A    between atoms: C_8  and  C_33
REMARK    5  A    between atoms: N_9  and  N_10
REMARK    6  A    between atoms: C_11  and  C_13
REMARK    7  A    between atoms: C_14  and  C_24
REMARK    8  A    between atoms: C_24  and  N_25
REMARK    9  A    between atoms: C_30  and  C_32
REMARK                            x       y       z     vdW  Elec       q    Type
REMARK                         _______ _______ _______ _____ _____    ______ ____
ROOT
ATOM      1  C   UNL     1       0.183   0.267   0.117  0.00  0.00    +0.170 A 
ATOM      2  C   UNL     1       0.082   1.593   0.433  0.00  0.00    +0.063 A 
ATOM      3  N   UNL     1       1.344   2.063   0.550  0.00  0.00    -0.194 N 
ATOM      4  N   UNL     1       2.203   0.985   0.296  0.00  0.00    -0.058 NA
ATOM      5  N   UNL     1       1.486  -0.055   0.045  0.00  0.00    -0.124 NA
ATOM      6  C   UNL     1       1.720   3.374   0.865  0.00  0.00    +0.240 A 
ATOM      7  C   UNL     1       3.095   3.864   0.993  0.00  0.00    +0.206 A 
ATOM      8  N   UNL     1       3.052   5.134   1.289  0.00  0.00    -0.032 NA
ATOM      9  O   UNL     1       1.689   5.513   1.375  0.00  0.00    -0.239 OA
ATOM     10  N   UNL     1       0.907   4.365   1.098  0.00  0.00    -0.027 NA
ATOM     11  N   UNL     1       4.248   3.107   0.824  0.00  0.00    -0.337 N 
ATOM     12  H   UNL     1       5.237   3.575   0.943  0.00  0.00    +0.144 HD
ATOM     13  H   UNL     1       4.173   2.039   0.570  0.00  0.00    +0.144 HD
ENDROOT
BRANCH   1  15
ATOM     14  N   UNL     1      -0.712  -1.945  -0.414  0.00  0.00    -0.201 N 
ATOM     15  C   UNL     1      -0.947  -0.654  -0.107  0.00  0.00    +0.285 C 
ATOM     16  O   UNL     1      -2.090  -0.249  -0.014  0.00  0.00    -0.267 OA
ATOM     17  H   UNL     1       0.321  -2.312  -0.498  0.00  0.00    +0.178 HD
BRANCH  14  19
ATOM     18  C   UNL     1      -1.562  -4.038  -1.018  0.00  0.00    +0.064 C 
ATOM     19  N   UNL     1      -1.785  -2.821  -0.627  0.00  0.00    -0.184 NA
ATOM     20  C   UNL     1      -2.718  -4.958  -1.315  0.00  0.00    +0.068 C 
BRANCH  18  24
ATOM     21  C   UNL     1       3.057  -4.047  -3.199  0.00  0.00    +0.051 C 
ATOM     22  C   UNL     1       1.955  -4.452  -2.254  0.00  0.00    -0.012 A 
ATOM     23  C   UNL     1       0.698  -3.970  -2.171  0.00  0.00    +0.021 A 
ATOM     24  C   UNL     1      -0.178  -4.521  -1.171  0.00  0.00    +0.008 A 
ATOM     25  C   UNL     1       0.320  -5.515  -0.371  0.00  0.00    -0.004 A 
ATOM     26  S   UNL     1       1.988  -5.694  -0.976  0.00  0.00    -0.098 S 
ATOM     27  C   UNL     1      -0.367  -6.267   0.739  0.00  0.00    +0.052 C 
ENDBRANCH  18  24
ENDBRANCH  14  19
ENDBRANCH   1  15
BRANCH   2  28
ATOM     28  C   UNL     1      -1.191   2.379   0.611  0.00  0.00    -0.019 C 
BRANCH  28  29
ATOM     29  N   UNL     1      -1.593   2.957  -0.678  0.00  0.00    +0.385 N 
ATOM     30  C   UNL     1      -0.570   3.881  -1.184  0.00  0.00    -0.078 C 
ATOM     31  C   UNL     1      -0.953   4.349  -2.589  0.00  0.00    -0.019 C 
ATOM     32  C   UNL     1      -2.316   5.046  -2.536  0.00  0.00    -0.003 C 
ATOM     33  C   UNL     1      -3.353   4.078  -1.961  0.00  0.00    -0.016 C 
ATOM     34  C   UNL     1      -2.901   3.618  -0.574  0.00  0.00    -0.071 C 
ATOM     35  C   UNL     1      -3.925   2.634  -0.004  0.00  0.00    -0.013 C 
ATOM     36  H   UNL     1      -1.690   2.135  -1.403  0.00  0.00    -0.081 HD
ENDBRANCH  28  29
ENDBRANCH   2  28
TORSDOF 5
