REMARK  Name = ZINC40462948
REMARK  9 active torsions:
REMARK  status: ('A' for Active; 'I' for Inactive)
REMARK    1  A    between atoms: C_1  and  C_2
REMARK    2  A    between atoms: C_2  and  C_3
REMARK    3  A    between atoms: C_2  and  C_4
REMARK    4  A    between atoms: C_2  and  C_5
REMARK    5  A    between atoms: C_5  and  C_7
REMARK    6  A    between atoms: C_5  and  N_22
REMARK    7  A    between atoms: N_9  and  C_10
REMARK    8  A    between atoms: C_15  and  O_16
REMARK    9  A    between atoms: O_16  and  C_17
REMARK                            x       y       z     vdW  Elec       q    Type
REMARK                         _______ _______ _______ _____ _____    ______ ____
ROOT
ATOM      1  C   UNL     1       2.131   0.025  -1.264  0.00  0.00    +0.203 C 
ATOM      2  O   UNL     1       3.046  -0.695  -0.923  0.00  0.00    -0.277 OA
ATOM      3  N   UNL     1       2.381   1.288  -1.662  0.00  0.00    -0.284 N 
ATOM      4  H   UNL     1       1.662   1.838  -2.011  0.00  0.00    +0.155 HD
ENDROOT
BRANCH   3   5
ATOM      5  C   UNL     1       3.679   1.808  -1.573  0.00  0.00    +0.078 A 
ATOM      6  C   UNL     1       4.575   1.285  -0.652  0.00  0.00    +0.047 A 
ATOM      7  C   UNL     1       5.856   1.799  -0.566  0.00  0.00    +0.044 A 
ATOM      8  C   UNL     1       6.247   2.834  -1.397  0.00  0.00    +0.039 A 
ATOM      9  C   UNL     1       5.359   3.359  -2.317  0.00  0.00    +0.063 A 
ATOM     10  C   UNL     1       4.075   2.845  -2.413  0.00  0.00    +0.162 A 
ATOM     11 BR   UNL     1       5.898   4.774  -3.451  0.00  0.00    -0.046 Br
ATOM     12 CL   UNL     1       6.976   1.144   0.588  0.00  0.00    -0.083 Cl
BRANCH  10  13
ATOM     13  O   UNL     1       3.202   3.357  -3.322  0.00  0.00    -0.431 OA
BRANCH  13  14
ATOM     14  C   UNL     1       2.388   4.450  -2.895  0.00  0.00    +0.541 C 
ATOM     15  F   UNL     1       1.605   4.051  -1.806  0.00  0.00    -0.166 F 
ATOM     16  F   UNL     1       3.205   5.520  -2.514  0.00  0.00    -0.166 F 
ENDBRANCH  13  14
ENDBRANCH  10  13
ENDBRANCH   3   5
BRANCH   1  17
ATOM     17  C   UNL     1       0.716  -0.492  -1.241  0.00  0.00    +0.019 C 
BRANCH  17  19
ATOM     18  C   UNL     1      -0.005   1.536   0.029  0.00  0.00    +0.009 C 
ATOM     19  C   UNL     1       0.011   0.006   0.022  0.00  0.00    -0.042 C 
ATOM     20  C   UNL     1       0.759  -0.502   1.257  0.00  0.00    +0.009 C 
ATOM     21  C   UNL     1      -1.426  -0.519   0.045  0.00  0.00    +0.009 C 
ENDBRANCH  17  19
BRANCH  17  22
ATOM     22  N   UNL     1       0.731  -1.961  -1.247  0.00  0.00    +0.386 N 
ATOM     23  H   UNL     1      -0.216  -2.307  -1.232  0.00  0.00    -0.089 HD
ATOM     24  H   UNL     1       1.196  -2.289  -2.081  0.00  0.00    -0.089 HD
ATOM     25  H   UNL     1       1.225  -2.295  -0.433  0.00  0.00    -0.089 HD
ENDBRANCH  17  22
ENDBRANCH   1  17
TORSDOF 6
