REMARK  Name = ZINC38705480
REMARK  8 active torsions:
REMARK  status: ('A' for Active; 'I' for Inactive)
REMARK    1  A    between atoms: C_1  and  C_2
REMARK    2  A    between atoms: C_4  and  C_34
REMARK    3  A    between atoms: C_5  and  C_9
REMARK    4  A    between atoms: C_6  and  O_8
REMARK    5  A    between atoms: N_17  and  C_27
REMARK    6  A    between atoms: C_18  and  C_20
REMARK    7  A    between atoms: C_24  and  O_26
REMARK    8  A    between atoms: C_27  and  C_28
REMARK                            x       y       z     vdW  Elec       q    Type
REMARK                         _______ _______ _______ _____ _____    ______ ____
ROOT
ATOM      1  C   UNL     1       0.223  -4.533  -0.150  0.00  0.00    +0.102 A 
ATOM      2  C   UNL     1       0.244  -5.255   1.048  0.00  0.00    +0.035 A 
ATOM      3  C   UNL     1       0.188  -6.587   0.685  0.00  0.00    +0.126 A 
ATOM      4  N   UNL     1       0.137  -6.607  -0.680  0.00  0.00    -0.272 N 
ATOM      5  H   UNL     1       0.090  -7.409  -1.224  0.00  0.00    +0.189 HD
ATOM      6  N   UNL     1       0.153  -5.405  -1.136  0.00  0.00    -0.173 NA
ATOM      7  C   UNL     1       0.206  -7.404   1.903  0.00  0.00    +0.266 C 
ATOM      8  O   UNL     1       0.168  -8.620   1.925  0.00  0.00    -0.268 OA
ATOM      9  N   UNL     1       0.272  -6.618   2.993  0.00  0.00    -0.281 N 
ATOM     10  C   UNL     1       0.301  -5.218   2.550  0.00  0.00    +0.142 C 
ENDROOT
BRANCH   1  15
ATOM     11  C   UNL     1       0.392   1.203  -0.681  0.00  0.00    +0.044 C 
ATOM     12  C   UNL     1       0.345  -0.296  -0.540  0.00  0.00    -0.047 A 
ATOM     13  C   UNL     1       1.212  -1.084  -1.277  0.00  0.00    +0.007 A 
ATOM     14  C   UNL     1       1.176  -2.459  -1.154  0.00  0.00    -0.037 A 
ATOM     15  C   UNL     1       0.266  -3.055  -0.285  0.00  0.00    +0.047 A 
ATOM     16  C   UNL     1      -0.608  -2.257   0.458  0.00  0.00    +0.127 A 
ATOM     17  C   UNL     1      -0.558  -0.878   0.329  0.00  0.00    +0.049 A 
ATOM     18  C   UNL     1       2.122  -3.313  -1.959  0.00  0.00    +0.044 C 
BRANCH  16  19
ATOM     19  O   UNL     1      -1.500  -2.830   1.307  0.00  0.00    -0.506 OA
ATOM     20  H   UNL     1      -1.195  -2.879   2.224  0.00  0.00    +0.292 HD
ENDBRANCH  16  19
ENDBRANCH   1  15
BRANCH  10  21
ATOM     21  C   UNL     1       1.577  -4.557   3.005  0.00  0.00    -0.019 A 
ATOM     22  C   UNL     1       2.793  -5.176   2.783  0.00  0.00    +0.006 A 
ATOM     23  C   UNL     1       3.965  -4.571   3.199  0.00  0.00    +0.004 A 
ATOM     24  C   UNL     1       3.923  -3.347   3.837  0.00  0.00    +0.045 A 
ATOM     25  C   UNL     1       2.704  -2.724   4.061  0.00  0.00    +0.117 A 
ATOM     26  C   UNL     1       1.530  -3.330   3.638  0.00  0.00    +0.051 A 
BRANCH  25  27
ATOM     27  O   UNL     1       2.660  -1.520   4.690  0.00  0.00    -0.507 OA
ATOM     28  H   UNL     1       2.713  -0.762   4.091  0.00  0.00    +0.292 HD
ENDBRANCH  25  27
ENDBRANCH  10  21
BRANCH   9  29
ATOM     29  C   UNL     1       0.306  -7.080   4.383  0.00  0.00    +0.144 C 
BRANCH  29  30
ATOM     30  C   UNL     1       1.738  -7.284   4.809  0.00  0.00    -0.030 A 
ATOM     31  C   UNL     1       2.345  -8.512   4.623  0.00  0.00    +0.005 A 
ATOM     32  C   UNL     1       3.658  -8.700   5.013  0.00  0.00    +0.000 A 
ATOM     33  C   UNL     1       4.363  -7.660   5.589  0.00  0.00    +0.000 A 
ATOM     34  C   UNL     1       3.756  -6.431   5.774  0.00  0.00    +0.000 A 
ATOM     35  C   UNL     1       2.445  -6.243   5.379  0.00  0.00    +0.005 A 
ENDBRANCH  29  30
ENDBRANCH   9  29
TORSDOF 6
