REMARK  Name = ZINC64197638
REMARK  10 active torsions:
REMARK  status: ('A' for Active; 'I' for Inactive)
REMARK    1  A    between atoms: C_1  and  C_2
REMARK    2  A    between atoms: C_7  and  N_8
REMARK    3  A    between atoms: C_9  and  S_14
REMARK    4  A    between atoms: S_14  and  C_15
REMARK    5  A    between atoms: C_15  and  C_16
REMARK    6  A    between atoms: N_18  and  C_19
REMARK    7  A    between atoms: C_19  and  C_20
REMARK    8  A    between atoms: C_20  and  C_21
REMARK    9  A    between atoms: C_25  and  O_30
REMARK   10  A    between atoms: O_30  and  C_31
REMARK                            x       y       z     vdW  Elec       q    Type
REMARK                         _______ _______ _______ _____ _____    ______ ____
ROOT
ATOM      1  C   UNL     1      -2.843   1.432   2.518  0.00  0.00    +0.167 C 
ENDROOT
BRANCH   1   2
ATOM      2  C   UNL     1      -4.209   1.713   1.949  0.00  0.00    +0.223 C 
ATOM      3  O   UNL     1      -5.046   0.836   1.919  0.00  0.00    -0.275 OA
ATOM      4  N   UNL     1      -4.501   2.939   1.472  0.00  0.00    -0.314 N 
ATOM      5  H   UNL     1      -3.832   3.641   1.496  0.00  0.00    +0.149 HD
BRANCH   4   6
ATOM      6  C   UNL     1      -5.830   3.213   0.918  0.00  0.00    +0.108 C 
BRANCH   6   7
ATOM      7  C   UNL     1      -5.898   4.668   0.451  0.00  0.00    +0.052 C 
BRANCH   7   8
ATOM      8  C   UNL     1      -7.264   4.949  -0.118  0.00  0.00    -0.040 C 
ATOM      9  C   UNL     1      -8.319   5.491   0.530  0.00  0.00    -0.001 A 
ATOM     10  C   UNL     1      -8.500   5.963   1.909  0.00  0.00    +0.013 A 
ATOM     11  C   UNL     1      -9.696   6.468   2.279  0.00  0.00    +0.046 A 
ATOM     12  C   UNL     1     -10.772   6.553   1.375  0.00  0.00    +0.122 A 
ATOM     13  C   UNL     1     -10.678   6.137   0.086  0.00  0.00    +0.071 A 
ATOM     14  C   UNL     1      -9.464   5.591  -0.403  0.00  0.00    +0.046 A 
ATOM     15  N   UNL     1      -9.129   5.128  -1.585  0.00  0.00    -0.380 N 
ATOM     16  C   UNL     1      -7.730   4.688  -1.533  0.00  0.00    +0.144 C 
ATOM     17  H   UNL     1      -9.708   5.086  -2.362  0.00  0.00    +0.160 HD
BRANCH  12  18
ATOM     18  O   UNL     1     -11.949   7.070   1.808  0.00  0.00    -0.495 OA
ATOM     19  C   UNL     1     -12.008   7.496   3.171  0.00  0.00    +0.277 C 
ENDBRANCH  12  18
ENDBRANCH   7   8
ENDBRANCH   6   7
ENDBRANCH   4   6
ENDBRANCH   1   2
BRANCH   1  20
ATOM     20  S   UNL     1      -2.762  -0.294   3.072  0.00  0.00    -0.114 S 
BRANCH  20  22
ATOM     21  N   UNL     1      -0.136  -0.276   2.434  0.00  0.00    -0.254 N 
ATOM     22  C   UNL     1      -1.033  -0.512   3.577  0.00  0.00    +0.203 C 
ATOM     23  N   UNL     1      -0.664   0.502   4.596  0.00  0.00    -0.320 NA
ATOM     24  N   UNL     1       0.709   0.867   4.204  0.00  0.00    +0.411 N 
ATOM     25  N   UNL     1       0.661   0.802   2.740  0.00  0.00    -0.265 NA
ATOM     26  H   UNL     1      -1.278   1.301   4.550  0.00  0.00    +0.106 HD
ATOM     27  H   UNL     1       0.932   1.801   4.515  0.00  0.00    -0.031 HD
ATOM     28  H   UNL     1       0.281   1.654   2.355  0.00  0.00    +0.125 HD
ATOM     29  H   UNL     1       1.373   0.200   4.567  0.00  0.00    -0.031 HD
BRANCH  21  36
ATOM     30  C   UNL     1       1.744  -2.402   2.247  0.00  0.00    +0.046 C 
ATOM     31  C   UNL     1       0.805  -2.066   1.117  0.00  0.00    -0.028 A 
ATOM     32  C   UNL     1       0.838  -2.802  -0.051  0.00  0.00    +0.006 A 
ATOM     33  C   UNL     1      -0.023  -2.494  -1.088  0.00  0.00    +0.020 A 
ATOM     34  C   UNL     1      -0.920  -1.448  -0.960  0.00  0.00    +0.043 A 
ATOM     35  C   UNL     1      -0.957  -0.707   0.206  0.00  0.00    +0.044 A 
ATOM     36  C   UNL     1      -0.097  -1.018   1.252  0.00  0.00    +0.050 A 
ATOM     37 CL   UNL     1      -1.999  -1.065  -2.265  0.00  0.00    -0.083 Cl
ENDBRANCH  21  36
ENDBRANCH  20  22
ENDBRANCH   1  20
TORSDOF 8
