REMARK  Name = ZINC33810625
REMARK  7 active torsions:
REMARK  status: ('A' for Active; 'I' for Inactive)
REMARK    1  A    between atoms: C_1  and  C_2
REMARK    2  A    between atoms: C_5  and  C_8
REMARK    3  A    between atoms: C_8  and  S_9
REMARK    4  A    between atoms: S_9  and  C_10
REMARK    5  A    between atoms: C_17  and  C_29
REMARK    6  A    between atoms: C_23  and  C_27
REMARK    7  A    between atoms: C_23  and  C_28
REMARK                            x       y       z     vdW  Elec       q    Type
REMARK                         _______ _______ _______ _____ _____    ______ ____
ROOT
ATOM      1  C   UNL     1       5.804   3.431  -1.187  0.00  0.00    +0.171 A 
ATOM      2  N   UNL     1       4.659   4.059  -0.799  0.00  0.00    -0.208 NA
ATOM      3  C   UNL     1       3.571   3.322  -0.410  0.00  0.00    +0.135 A 
ATOM      4  C   UNL     1       3.649   1.964  -0.414  0.00  0.00    +0.069 A 
ATOM      5  C   UNL     1       4.854   1.353  -0.825  0.00  0.00    +0.258 A 
ATOM      6  O   UNL     1       4.950   0.135  -0.843  0.00  0.00    -0.267 OA
ATOM      7  N   UNL     1       5.892   2.117  -1.197  0.00  0.00    -0.302 N 
ATOM      8  C   UNL     1       2.482   1.123   0.011  0.00  0.00    +0.093 C 
ATOM      9  C   UNL     1       1.201   1.917   0.001  0.00  0.00    +0.024 C 
ATOM     10  C   UNL     1       1.221   3.267  -0.013  0.00  0.00    +0.017 C 
ATOM     11  N   UNL     1       2.409   3.947  -0.021  0.00  0.00    -0.302 N 
ATOM     12  C   UNL     1      -0.061   4.064  -0.023  0.00  0.00    +0.058 C 
ATOM     13  C   UNL     1      -1.154   3.287   0.715  0.00  0.00    -0.023 C 
ATOM     14  C   UNL     1      -1.335   1.931   0.019  0.00  0.00    +0.086 C 
ATOM     15  C   UNL     1      -0.014   1.211   0.009  0.00  0.00    +0.162 C 
ATOM     16  O   UNL     1       0.002  -0.004   0.002  0.00  0.00    -0.292 OA
ATOM     17  C   UNL     1      -0.738   3.072   2.171  0.00  0.00    +0.011 C 
ATOM     18  C   UNL     1      -2.466   4.074   0.665  0.00  0.00    +0.011 C 
ATOM     19  H   UNL     1       2.429   5.003   0.287  0.00  0.00    +0.153 HD
ATOM     20  H   UNL     1       6.826   1.631  -1.514  0.00  0.00    +0.171 HD
ENDROOT
BRANCH   8  21
ATOM     21  C   UNL     1       2.730   0.604   1.404  0.00  0.00    -0.032 A 
ATOM     22  C   UNL     1       2.877   1.490   2.455  0.00  0.00    +0.008 A 
ATOM     23  C   UNL     1       3.098   1.018   3.735  0.00  0.00    +0.050 A 
ATOM     24  C   UNL     1       3.186  -0.345   3.966  0.00  0.00    +0.166 A 
ATOM     25  C   UNL     1       3.043  -1.238   2.907  0.00  0.00    +0.167 A 
ATOM     26  C   UNL     1       2.816  -0.758   1.627  0.00  0.00    +0.054 A 
ATOM     27  O   UNL     1       3.169  -2.509   3.388  0.00  0.00    -0.453 OA
ATOM     28  C   UNL     1       3.794  -2.372   4.678  0.00  0.00    +0.466 C 
ATOM     29  O   UNL     1       3.400  -1.057   5.111  0.00  0.00    -0.453 OA
ENDBRANCH   8  21
BRANCH   1  30
ATOM     30  S   UNL     1       7.193   4.395  -1.683  0.00  0.00    -0.083 S 
BRANCH  30  31
ATOM     31  C   UNL     1       8.370   3.075  -2.071  0.00  0.00    +0.112 C 
BRANCH  31  36
ATOM     32  C   UNL     1      13.359   5.397  -3.835  0.00  0.00    +0.044 C 
ATOM     33  C   UNL     1      12.058   4.791  -3.375  0.00  0.00    -0.050 A 
ATOM     34  C   UNL     1      11.853   4.532  -2.033  0.00  0.00    +0.003 A 
ATOM     35  C   UNL     1      10.659   3.976  -1.611  0.00  0.00    +0.005 A 
ATOM     36  C   UNL     1       9.671   3.681  -2.531  0.00  0.00    -0.037 A 
ATOM     37  C   UNL     1       9.877   3.936  -3.874  0.00  0.00    +0.005 A 
ATOM     38  C   UNL     1      11.069   4.496  -4.295  0.00  0.00    +0.003 A 
ENDBRANCH  31  36
ENDBRANCH  30  31
ENDBRANCH   1  30
TORSDOF 4
