REMARK  Name = ZINC13403226
REMARK  5 active torsions:
REMARK  status: ('A' for Active; 'I' for Inactive)
REMARK    1  A    between atoms: C_4  and  C_7
REMARK    2  A    between atoms: C_7  and  C_10
REMARK    3  A    between atoms: N_8  and  N_9
REMARK    4  A    between atoms: C_10  and  C_13
REMARK    5  A    between atoms: N_11  and  N_12
REMARK                            x       y       z     vdW  Elec       q    Type
REMARK                         _______ _______ _______ _____ _____    ______ ____
ROOT
ATOM      1  C   UNL     1       3.907  -2.073  -0.038  0.00  0.00    +0.116 C 
ATOM      2  N   UNL     1       2.866  -2.699  -0.522  0.00  0.00    -0.187 NA
ENDROOT
BRANCH   1   3
ATOM      3  C   UNL     1       5.252  -2.682  -0.144  0.00  0.00    +0.005 A 
ATOM      4  C   UNL     1       5.602  -3.401  -1.300  0.00  0.00    +0.011 A 
ATOM      5  C   UNL     1       6.830  -3.969  -1.421  0.00  0.00    +0.009 A 
ATOM      6  C   UNL     1       7.770  -3.841  -0.383  0.00  0.00    -0.018 A 
ATOM      7  C   UNL     1       9.046  -4.419  -0.485  0.00  0.00    +0.008 A 
ATOM      8  C   UNL     1       9.935  -4.278   0.536  0.00  0.00    +0.001 A 
ATOM      9  C   UNL     1       9.599  -3.567   1.687  0.00  0.00    +0.001 A 
ATOM     10  C   UNL     1       8.373  -2.993   1.822  0.00  0.00    +0.008 A 
ATOM     11  C   UNL     1       7.428  -3.117   0.788  0.00  0.00    -0.017 A 
ATOM     12  C   UNL     1       6.157  -2.533   0.892  0.00  0.00    +0.018 A 
ENDBRANCH   1   3
BRANCH   2  13
ATOM     13  N   UNL     1       2.997  -4.008  -1.004  0.00  0.00    -0.282 N 
ATOM     14  H   UNL     1       3.831  -4.487  -0.885  0.00  0.00    +0.164 HD
ATOM     15  H   UNL     1       2.252  -4.434  -1.457  0.00  0.00    +0.164 HD
ENDBRANCH   2  13
BRANCH   1  16
ATOM     16  C   UNL     1       3.741  -0.758   0.614  0.00  0.00    +0.116 C 
ATOM     17  N   UNL     1       4.177   0.324   0.025  0.00  0.00    -0.187 NA
BRANCH  16  21
ATOM     18  C   UNL     1       1.844  -0.494   4.408  0.00  0.00    +0.000 A 
ATOM     19  C   UNL     1       2.414   0.633   3.843  0.00  0.00    +0.001 A 
ATOM     20  C   UNL     1       3.032   0.553   2.612  0.00  0.00    +0.010 A 
ATOM     21  C   UNL     1       3.080  -0.666   1.937  0.00  0.00    +0.004 A 
ATOM     22  C   UNL     1       2.504  -1.799   2.512  0.00  0.00    +0.010 A 
ATOM     23  C   UNL     1       1.889  -1.706   3.744  0.00  0.00    +0.001 A 
ENDBRANCH  16  21
BRANCH  17  24
ATOM     24  N   UNL     1       4.694   0.254  -1.276  0.00  0.00    -0.282 N 
ATOM     25  H   UNL     1       4.788  -0.606  -1.714  0.00  0.00    +0.164 HD
ATOM     26  H   UNL     1       4.958   1.065  -1.737  0.00  0.00    +0.164 HD
ENDBRANCH  17  24
ENDBRANCH   1  16
TORSDOF 5
