REMARK  Name = ZINC14545361
REMARK  6 active torsions:
REMARK  status: ('A' for Active; 'I' for Inactive)
REMARK    1  A    between atoms: C_1  and  C_2
REMARK    2  A    between atoms: C_2  and  O_3
REMARK    3  A    between atoms: O_3  and  C_4
REMARK    4  A    between atoms: C_9  and  C_10
REMARK    5  A    between atoms: C_21  and  N_27
REMARK    6  A    between atoms: C_23  and  C_26
REMARK                            x       y       z     vdW  Elec       q    Type
REMARK                         _______ _______ _______ _____ _____    ______ ____
ROOT
ATOM      1  C   UNL     1      -1.292  -0.776   0.010  0.00  0.00    +0.108 C 
ATOM      2  C   UNL     1      -1.783  -0.976  -1.409  0.00  0.00    +0.029 C 
ATOM      3  C   UNL     1      -2.002   0.270  -2.276  0.00  0.00    +0.033 C 
ATOM      4  C   UNL     1      -1.727  -0.281  -3.677  0.00  0.00    -0.030 C 
ATOM      5  C   UNL     1      -0.909  -1.325  -3.600  0.00  0.00    -0.023 C 
ATOM      6  C   UNL     1      -0.545  -1.536  -2.178  0.00  0.00    +0.049 C 
ATOM      7  C   UNL     1      -0.262  -2.873  -1.614  0.00  0.00    -0.017 A 
ATOM      8  C   UNL     1       0.263  -3.889  -2.384  0.00  0.00    +0.038 A 
ATOM      9  C   UNL     1       0.555  -5.117  -1.821  0.00  0.00    +0.127 A 
ATOM     10  C   UNL     1       0.318  -5.325  -0.474  0.00  0.00    +0.038 A 
ATOM     11  C   UNL     1      -0.215  -4.319   0.300  0.00  0.00    -0.027 A 
ATOM     12  C   UNL     1      -0.522  -3.076  -0.256  0.00  0.00    +0.034 A 
ATOM     13  N   UNL     1      -1.075  -2.113   0.585  0.00  0.00    -0.336 N 
ATOM     14  C   UNL     1      -0.469  -4.563   1.765  0.00  0.00    +0.046 C 
ATOM     15  H   UNL     1      -1.915  -2.457   1.026  0.00  0.00    +0.147 HD
ENDROOT
BRANCH   1  21
ATOM     16  C   UNL     1      -0.017   1.383   0.010  0.00  0.00    +0.125 A 
ATOM     17  C   UNL     1       1.177   2.091   0.002  0.00  0.00    +0.046 A 
ATOM     18  C   UNL     1       2.380   1.413  -0.013  0.00  0.00    +0.004 A 
ATOM     19  C   UNL     1       2.396   0.030  -0.021  0.00  0.00    +0.001 A 
ATOM     20  C   UNL     1       1.208  -0.677  -0.013  0.00  0.00    +0.009 A 
ATOM     21  C   UNL     1       0.002  -0.004   0.002  0.00  0.00    +0.015 A 
BRANCH  16  22
ATOM     22  O   UNL     1      -1.202   2.047   0.019  0.00  0.00    -0.492 OA
BRANCH  22  24
ATOM     23  C   UNL     1      -2.566   4.042   0.036  0.00  0.00    +0.048 C 
ATOM     24  C   UNL     1      -1.145   3.475   0.026  0.00  0.00    +0.225 C 
ENDBRANCH  22  24
ENDBRANCH  16  22
ENDBRANCH   1  21
BRANCH   9  25
ATOM     25  N   UNL     1       1.120  -6.202  -2.654  0.00  0.00    +0.056 N 
ATOM     26  O   UNL     1       1.327  -6.015  -3.839  0.00  0.00    -0.126 OA
ATOM     27  O   UNL     1       1.376  -7.283  -2.154  0.00  0.00    -0.126 OA
ENDBRANCH   9  25
TORSDOF 4
