REMARK  Name = ZINC02989101
REMARK  4 active torsions:
REMARK  status: ('A' for Active; 'I' for Inactive)
REMARK    1  A    between atoms: C_6  and  C_11
REMARK    2  A    between atoms: C_11  and  O_12
REMARK    3  A    between atoms: O_12  and  C_13
REMARK    4  A    between atoms: C_16  and  C_19
REMARK                            x       y       z     vdW  Elec       q    Type
REMARK                         _______ _______ _______ _____ _____    ______ ____
ROOT
ATOM      1  C   UNL     1       6.302   5.156  -1.479  0.00  0.00    +0.121 A 
ATOM      2  C   UNL     1       7.057   5.592  -0.396  0.00  0.00    +0.046 A 
ATOM      3  C   UNL     1       8.252   6.243  -0.604  0.00  0.00    +0.011 A 
ATOM      4  C   UNL     1       8.702   6.475  -1.910  0.00  0.00    -0.023 A 
ATOM      5  C   UNL     1       7.935   6.038  -2.997  0.00  0.00    +0.011 A 
ATOM      6  C   UNL     1       6.744   5.384  -2.778  0.00  0.00    +0.046 A 
ENDROOT
BRANCH   4   7
ATOM      7  C   UNL     1       9.973   7.173  -2.138  0.00  0.00    +0.036 C 
ATOM      8  C   UNL     1      10.934   7.163  -1.181  0.00  0.00    +0.098 C 
ATOM      9  C   UNL     1      12.191   7.928  -1.167  0.00  0.00    +0.266 C 
ATOM     10  O   UNL     1      12.584   8.703  -2.019  0.00  0.00    -0.268 OA
ATOM     11  N   UNL     1      12.819   7.599  -0.020  0.00  0.00    -0.235 N 
ATOM     12  C   UNL     1      12.083   6.708   0.662  0.00  0.00    +0.311 C 
ATOM     13  O   UNL     1      12.403   6.227   1.733  0.00  0.00    -0.252 OA
ATOM     14  N   UNL     1      10.946   6.417   0.006  0.00  0.00    -0.265 N 
ATOM     15  H   UNL     1      13.676   7.950   0.267  0.00  0.00    +0.159 HD
ATOM     16  H   UNL     1      10.257   5.801   0.301  0.00  0.00    +0.157 HD
ENDBRANCH   4   7
BRANCH   1  17
ATOM     17  O   UNL     1       5.127   4.510  -1.268  0.00  0.00    -0.487 OA
BRANCH  17  18
ATOM     18  C   UNL     1       4.732   4.309   0.090  0.00  0.00    +0.264 C 
BRANCH  18  24
ATOM     19  C   UNL     1      -1.385   2.242   0.228  0.00  0.00    +0.001 A 
ATOM     20  C   UNL     1      -1.370   3.636   0.205  0.00  0.00    +0.001 A 
ATOM     21  C   UNL     1      -0.196   4.323   0.171  0.00  0.00    +0.008 A 
ATOM     22  C   UNL     1       1.022   3.620   0.166  0.00  0.00    -0.018 A 
ATOM     23  C   UNL     1       2.254   4.295   0.131  0.00  0.00    +0.015 A 
ATOM     24  C   UNL     1       3.413   3.582   0.127  0.00  0.00    -0.010 A 
ATOM     25  C   UNL     1       3.397   2.188   0.157  0.00  0.00    +0.007 A 
ATOM     26  C   UNL     1       2.223   1.501   0.191  0.00  0.00    +0.009 A 
ATOM     27  C   UNL     1       1.006   2.204   0.196  0.00  0.00    -0.018 A 
ATOM     28  C   UNL     1      -0.226   1.529   0.230  0.00  0.00    +0.008 A 
ENDBRANCH  18  24
ENDBRANCH  17  18
ENDBRANCH   1  17
TORSDOF 4
