REMARK  Name = ZINC08337732
REMARK  5 active torsions:
REMARK  status: ('A' for Active; 'I' for Inactive)
REMARK    1  A    between atoms: C_3  and  N_25
REMARK    2  A    between atoms: C_4  and  C_10
REMARK    3  A    between atoms: C_6  and  N_7
REMARK    4  A    between atoms: N_12  and  C_13
REMARK    5  A    between atoms: C_14  and  C_22
REMARK                            x       y       z     vdW  Elec       q    Type
REMARK                         _______ _______ _______ _____ _____    ______ ____
ROOT
ATOM      1  C   UNL     1      -0.039   1.189   0.269  0.00  0.00    +0.250 C 
ATOM      2  O   UNL     1      -0.033  -0.027   0.270  0.00  0.00    -0.270 OA
ATOM      3  N   UNL     1       1.121   1.869   0.376  0.00  0.00    -0.275 N 
ATOM      4  H   UNL     1       1.116   2.839   0.375  0.00  0.00    +0.156 HD
ENDROOT
BRANCH   3   5
ATOM      5  C   UNL     1       2.318   1.181   0.486  0.00  0.00    +0.085 A 
ATOM      6  C   UNL     1       3.602   1.698   0.599  0.00  0.00    +0.068 A 
ATOM      7  C   UNL     1       4.699   0.752   0.706  0.00  0.00    -0.023 A 
ATOM      8  C   UNL     1       4.342  -0.550   0.673  0.00  0.00    -0.004 A 
ATOM      9  S   UNL     1       2.579  -0.531   0.510  0.00  0.00    -0.077 S 
ATOM     10  C   UNL     1       5.249  -1.739   0.755  0.00  0.00    +0.043 C 
ATOM     11  C   UNL     1       6.689  -1.266   0.509  0.00  0.00    +0.005 C 
ATOM     12  C   UNL     1       6.958  -0.032   1.374  0.00  0.00    +0.005 C 
ATOM     13  C   UNL     1       6.161   1.161   0.842  0.00  0.00    +0.037 C 
BRANCH   6  14
ATOM     14  C   UNL     1       3.841   3.144   0.613  0.00  0.00    +0.244 C 
ATOM     15  O   UNL     1       3.846   3.750   1.669  0.00  0.00    -0.270 OA
ATOM     16  N   UNL     1       4.054   3.803  -0.543  0.00  0.00    -0.325 N 
ATOM     17  H   UNL     1       4.050   3.321  -1.385  0.00  0.00    +0.145 HD
ATOM     18  H   UNL     1       4.212   4.760  -0.534  0.00  0.00    +0.145 HD
ENDBRANCH   6  14
ENDBRANCH   3   5
BRANCH   1  22
ATOM     19  C   UNL     1      -3.710   3.298  -0.089  0.00  0.00    +0.034 A 
ATOM     20  C   UNL     1      -3.702   1.923  -0.201  0.00  0.00    +0.026 A 
ATOM     21  C   UNL     1      -2.508   1.222  -0.091  0.00  0.00    +0.042 A 
ATOM     22  C   UNL     1      -1.312   1.920   0.145  0.00  0.00    +0.060 A 
ATOM     23  C   UNL     1      -1.337   3.313   0.257  0.00  0.00    +0.047 A 
ATOM     24  C   UNL     1      -2.532   3.990   0.140  0.00  0.00    +0.127 A 
BRANCH  21  25
ATOM     25  N   UNL     1      -2.496  -0.161  -0.210  0.00  0.00    -0.329 N 
ATOM     26  C   UNL     1      -3.467  -0.784   0.726  0.00  0.00    +0.105 C 
ATOM     27  C   UNL     1      -3.703  -2.186   0.111  0.00  0.00    +0.020 C 
ATOM     28  C   UNL     1      -3.688  -1.904  -1.409  0.00  0.00    +0.020 C 
ATOM     29  C   UNL     1      -2.916  -0.581  -1.564  0.00  0.00    +0.105 C 
ENDBRANCH  21  25
BRANCH  24  30
ATOM     30  N   UNL     1      -2.555   5.466   0.258  0.00  0.00    +0.056 N 
ATOM     31  O   UNL     1      -1.522   6.077   0.459  0.00  0.00    -0.126 OA
ATOM     32  O   UNL     1      -3.609   6.068   0.155  0.00  0.00    -0.126 OA
ENDBRANCH  24  30
ENDBRANCH   1  22
TORSDOF 5
