REMARK  Name = ZINC38546967
REMARK  7 active torsions:
REMARK  status: ('A' for Active; 'I' for Inactive)
REMARK    1  A    between atoms: C_1  and  C_2
REMARK    2  A    between atoms: N_8  and  C_9
REMARK    3  A    between atoms: C_9  and  C_11
REMARK    4  A    between atoms: C_9  and  C_18
REMARK    5  A    between atoms: C_20  and  C_31
REMARK    6  A    between atoms: C_22  and  N_23
REMARK    7  A    between atoms: C_24  and  C_26
REMARK                            x       y       z     vdW  Elec       q    Type
REMARK                         _______ _______ _______ _____ _____    ______ ____
ROOT
ATOM      1  C   UNL     1       0.048  -2.142   3.611  0.00  0.00    +0.135 C 
ENDROOT
BRANCH   1   9
ATOM      2  C   UNL     1      -0.018   1.503   0.010  0.00  0.00    +0.044 C 
ATOM      3  C   UNL     1       0.002  -0.004   0.002  0.00  0.00    -0.046 A 
ATOM      4  C   UNL     1       0.006  -0.708  -1.196  0.00  0.00    +0.021 A 
ATOM      5  C   UNL     1       0.025  -2.087  -1.169  0.00  0.00    +0.084 A 
ATOM      6  N   UNL     1       0.040  -2.742  -0.023  0.00  0.00    -0.350 N 
ATOM      7  C   UNL     1       0.036  -2.108   1.139  0.00  0.00    +0.097 A 
ATOM      8  C   UNL     1       0.023  -0.717   1.187  0.00  0.00    +0.045 A 
ATOM      9  N   UNL     1       0.052  -2.838   2.322  0.00  0.00    -0.320 N 
ATOM     10  H   UNL     1       0.065  -3.807   2.294  0.00  0.00    +0.148 HD
ATOM     11  H   UNL     1       0.054  -3.712  -0.033  0.00  0.00    +0.166 HD
ENDBRANCH   1   9
BRANCH   1  12
ATOM     12  C   UNL     1       1.460  -1.775   3.989  0.00  0.00    -0.023 A 
ATOM     13  C   UNL     1       2.493  -2.662   3.745  0.00  0.00    +0.008 A 
ATOM     14  C   UNL     1       3.788  -2.326   4.090  0.00  0.00    +0.038 A 
ATOM     15  C   UNL     1       4.051  -1.101   4.680  0.00  0.00    +0.123 A 
ATOM     16  C   UNL     1       3.016  -0.215   4.924  0.00  0.00    +0.038 A 
ATOM     17  C   UNL     1       1.722  -0.550   4.573  0.00  0.00    +0.008 A 
ATOM     18  F   UNL     1       5.317  -0.772   5.018  0.00  0.00    -0.205 F 
ENDBRANCH   1  12
BRANCH   1  19
ATOM     19  C   UNL     1      -0.535  -3.046   4.667  0.00  0.00    +0.006 A 
ATOM     20  C   UNL     1      -0.488  -4.420   4.522  0.00  0.00    +0.018 A 
ATOM     21  C   UNL     1      -1.022  -5.203   5.490  0.00  0.00    -0.011 A 
ATOM     22  S   UNL     1      -1.619  -3.995   6.661  0.00  0.00    -0.078 S 
ATOM     23  C   UNL     1      -1.114  -2.523   5.785  0.00  0.00    +0.078 A 
ATOM     24  C   UNL     1      -1.093  -6.707   5.561  0.00  0.00    +0.051 C 
BRANCH  23  25
ATOM     25  N   UNL     1      -1.272  -1.185   6.150  0.00  0.00    -0.273 N 
ATOM     26  C   UNL     1      -1.879  -0.870   7.311  0.00  0.00    +0.284 C 
ATOM     27  O   UNL     1      -2.289  -1.752   8.042  0.00  0.00    -0.266 OA
ATOM     28  H   UNL     1      -0.945  -0.481   5.567  0.00  0.00    +0.156 HD
BRANCH  26  29
ATOM     29  C   UNL     1      -2.045   0.536   7.694  0.00  0.00    +0.189 A 
ATOM     30  C   UNL     1      -2.634   0.991   8.839  0.00  0.00    +0.054 A 
ATOM     31  C   UNL     1      -2.574   2.393   8.793  0.00  0.00    +0.042 A 
ATOM     32  C   UNL     1      -1.960   2.727   7.637  0.00  0.00    +0.196 A 
ATOM     33  O   UNL     1      -1.638   1.605   6.980  0.00  0.00    -0.458 OA
ENDBRANCH  26  29
ENDBRANCH  23  25
ENDBRANCH   1  19
TORSDOF 5
