REMARK  Name = ZINC06077488
REMARK  14 active torsions:
REMARK  status: ('A' for Active; 'I' for Inactive)
REMARK    1  A    between atoms: C_1  and  C_2
REMARK    2  A    between atoms: C_2  and  C_3
REMARK    3  A    between atoms: C_3  and  C_4
REMARK    4  A    between atoms: C_3  and  C_5
REMARK    5  A    between atoms: C_3  and  N_6
REMARK    6  A    between atoms: C_7  and  C_11
REMARK    7  A    between atoms: C_11  and  C_13
REMARK    8  A    between atoms: C_11  and  N_74
REMARK    9  A    between atoms: C_16  and  C_26
REMARK   10  A    between atoms: C_19  and  C_25
REMARK   11  A    between atoms: C_27  and  C_28
REMARK   12  A    between atoms: C_27  and  N_74
REMARK   13  A    between atoms: C_34  and  C_35
REMARK   14  A    between atoms: C_34  and  N_74
REMARK                            x       y       z     vdW  Elec       q    Type
REMARK                         _______ _______ _______ _____ _____    ______ ____
ROOT
ATOM      1  C   UNL     1       4.409   0.608  -0.332  0.00  0.00    +0.040 C 
ENDROOT
BRANCH   1   2
ATOM      2  C   UNL     1       5.511   0.836  -1.334  0.00  0.00    +0.011 A 
ATOM      3  C   UNL     1       6.108  -0.224  -1.934  0.00  0.00    +0.018 A 
ATOM      4  C   UNL     1       7.173   0.031  -2.906  0.00  0.00    +0.002 A 
ATOM      5  C   UNL     1       7.823  -1.021  -3.560  0.00  0.00    -0.041 A 
ATOM      6  C   UNL     1       8.815  -0.749  -4.459  0.00  0.00    +0.004 A 
ATOM      7  C   UNL     1       9.185   0.561  -4.728  0.00  0.00    +0.005 A 
ATOM      8  C   UNL     1       8.559   1.613  -4.095  0.00  0.00    -0.026 A 
ATOM      9  C   UNL     1       7.545   1.361  -3.176  0.00  0.00    +0.052 A 
ATOM     10  N   UNL     1       6.902   2.394  -2.529  0.00  0.00    -0.322 N 
ATOM     11  H   UNL     1       7.168   3.339  -2.722  0.00  0.00    +0.169 HD
ATOM     12  C   UNL     1       5.922   2.151  -1.641  0.00  0.00    +0.251 A 
ATOM     13  O   UNL     1       5.375   3.089  -1.087  0.00  0.00    -0.268 OA
ATOM     14  C   UNL     1       8.972   3.031  -4.396  0.00  0.00    +0.046 C 
ATOM     15  C   UNL     1       7.430  -2.447  -3.275  0.00  0.00    +0.044 C 
ENDBRANCH   1   2
BRANCH   1  17
ATOM     16  N   UNL     1       2.118   0.632  -1.454  0.00  0.00    -0.225 N 
ATOM     17  C   UNL     1       3.138   1.249  -0.829  0.00  0.00    +0.143 A 
ATOM     18  N   UNL     1       2.812   2.515  -0.735  0.00  0.00    -0.115 NA
ATOM     19  N   UNL     1       1.652   2.668  -1.275  0.00  0.00    -0.023 NA
ATOM     20  N   UNL     1       1.230   1.533  -1.710  0.00  0.00    -0.043 NA
BRANCH  16  21
ATOM     21  C   UNL     1       2.033  -0.793  -1.782  0.00  0.00    +0.061 C 
ATOM     22  C   UNL     1       3.245  -1.196  -2.623  0.00  0.00    +0.036 C 
ATOM     23  C   UNL     1       2.012  -1.613  -0.490  0.00  0.00    +0.036 C 
BRANCH  21  25
ATOM     24  C   UNL     1       0.662  -2.546  -2.917  0.00  0.00    +0.006 C 
ATOM     25  C   UNL     1       0.751  -1.058  -2.575  0.00  0.00    +0.026 C 
ENDBRANCH  21  25
ENDBRANCH  16  21
ENDBRANCH   1  17
BRANCH   1  26
ATOM     26  N   UNL     1       4.786   1.233   0.953  0.00  0.00    +0.395 N 
ATOM     27  H   UNL     1       4.738   2.254   0.854  0.00  0.00    -0.079 HD
BRANCH  26  28
ATOM     28  C   UNL     1       6.167   0.850   1.315  0.00  0.00    -0.041 C 
BRANCH  28  29
ATOM     29  C   UNL     1       6.628   1.719   2.456  0.00  0.00    -0.064 A 
ATOM     30  C   UNL     1       7.158   2.970   2.201  0.00  0.00    +0.002 A 
ATOM     31  C   UNL     1       7.576   3.770   3.248  0.00  0.00    +0.000 A 
ATOM     32  C   UNL     1       7.475   3.315   4.549  0.00  0.00    +0.000 A 
ATOM     33  C   UNL     1       6.950   2.062   4.804  0.00  0.00    +0.000 A 
ATOM     34  C   UNL     1       6.527   1.264   3.757  0.00  0.00    +0.002 A 
ENDBRANCH  28  29
ENDBRANCH  26  28
BRANCH  26  35
ATOM     35  C   UNL     1       3.849   0.810   2.015  0.00  0.00    -0.040 C 
BRANCH  35  36
ATOM     36  C   UNL     1       2.583   1.619   1.892  0.00  0.00    -0.046 A 
ATOM     37  C   UNL     1       2.550   2.939   2.317  0.00  0.00    +0.005 A 
ATOM     38  C   UNL     1       1.366   3.646   2.181  0.00  0.00    +0.020 A 
ATOM     39  C   UNL     1       0.263   3.015   1.639  0.00  0.00    +0.111 A 
ATOM     40  N   UNL     1       0.329   1.756   1.250  0.00  0.00    -0.263 NA
ATOM     41  C   UNL     1       1.440   1.054   1.360  0.00  0.00    +0.112 A 
ENDBRANCH  35  36
ENDBRANCH  26  35
ENDBRANCH   1  26
TORSDOF 9
