REMARK  Name = ZINC14134661
REMARK  8 active torsions:
REMARK  status: ('A' for Active; 'I' for Inactive)
REMARK    1  A    between atoms: C_4  and  C_7
REMARK    2  A    between atoms: C_7  and  C_9
REMARK    3  A    between atoms: C_7  and  O_29
REMARK    4  A    between atoms: N_11  and  N_12
REMARK    5  A    between atoms: C_13  and  C_14
REMARK    6  A    between atoms: C_17  and  O_20
REMARK    7  A    between atoms: O_20  and  C_21
REMARK    8  A    between atoms: C_21  and  C_22
REMARK                            x       y       z     vdW  Elec       q    Type
REMARK                         _______ _______ _______ _____ _____    ______ ____
ROOT
ATOM      1  N   UNL     1       4.673  -0.395  -3.667  0.00  0.00    -0.188 NA
ATOM      2  C   UNL     1       4.925   0.550  -4.521  0.00  0.00    +0.138 C 
ENDROOT
BRANCH   2   3
ATOM      3  C   UNL     1       5.280   0.211  -5.911  0.00  0.00    -0.005 A 
ATOM      4  C   UNL     1       5.341  -1.126  -6.313  0.00  0.00    +0.013 A 
ATOM      5  C   UNL     1       5.673  -1.438  -7.613  0.00  0.00    +0.046 A 
ATOM      6  C   UNL     1       5.947  -0.425  -8.524  0.00  0.00    +0.121 A 
ATOM      7  C   UNL     1       5.888   0.905  -8.129  0.00  0.00    +0.046 A 
ATOM      8  C   UNL     1       5.551   1.226  -6.832  0.00  0.00    +0.013 A 
BRANCH   6   9
ATOM      9  O   UNL     1       6.274  -0.738  -9.805  0.00  0.00    -0.487 OA
BRANCH   9  10
ATOM     10  C   UNL     1       6.543   0.352 -10.690  0.00  0.00    +0.264 C 
BRANCH  10  11
ATOM     11  C   UNL     1       6.885  -0.183 -12.056  0.00  0.00    -0.010 A 
ATOM     12  C   UNL     1       8.198  -0.473 -12.376  0.00  0.00    +0.008 A 
ATOM     13  C   UNL     1       8.512  -0.965 -13.629  0.00  0.00    +0.015 A 
ATOM     14  C   UNL     1       7.512  -1.167 -14.563  0.00  0.00    +0.018 A 
ATOM     15  C   UNL     1       6.198  -0.876 -14.243  0.00  0.00    +0.015 A 
ATOM     16  C   UNL     1       5.885  -0.390 -12.988  0.00  0.00    +0.008 A 
ATOM     17 BR   UNL     1       7.941  -1.838 -16.278  0.00  0.00    -0.050 Br
ENDBRANCH  10  11
ENDBRANCH   9  10
ENDBRANCH   6   9
ENDBRANCH   2   3
BRANCH   1  20
ATOM     18  C   UNL     1       4.074  -1.053  -1.459  0.00  0.00    +0.265 C 
ATOM     19  O   UNL     1       4.131  -2.215  -1.804  0.00  0.00    -0.271 OA
ATOM     20  N   UNL     1       4.335  -0.073  -2.345  0.00  0.00    -0.205 N 
ATOM     21  H   UNL     1       4.290   0.856  -2.069  0.00  0.00    +0.177 HD
BRANCH  18  22
ATOM     22  C   UNL     1       3.711  -0.707  -0.038  0.00  0.00    +0.232 C 
BRANCH  22  26
ATOM     23  C   UNL     1      -0.017   1.378   0.010  0.00  0.00    +0.000 A 
ATOM     24  C   UNL     1       1.171   2.086   0.002  0.00  0.00    +0.000 A 
ATOM     25  C   UNL     1       2.377   1.411  -0.013  0.00  0.00    +0.006 A 
ATOM     26  C   UNL     1       2.396   0.029  -0.020  0.00  0.00    -0.010 A 
ATOM     27  C   UNL     1       1.208  -0.679  -0.012  0.00  0.00    +0.006 A 
ATOM     28  C   UNL     1       0.002  -0.004   0.002  0.00  0.00    +0.000 A 
ENDBRANCH  22  26
BRANCH  22  29
ATOM     29  O   UNL     1       3.596  -1.907   0.731  0.00  0.00    -0.378 OA
ATOM     30  H   UNL     1       2.922  -2.519   0.405  0.00  0.00    +0.211 HD
ENDBRANCH  22  29
ENDBRANCH  18  22
ENDBRANCH   1  20
TORSDOF 8
