REMARK  Name = ZINC09365386
REMARK  5 active torsions:
REMARK  status: ('A' for Active; 'I' for Inactive)
REMARK    1  A    between atoms: C_1  and  C_2
REMARK    2  A    between atoms: C_3  and  C_23
REMARK    3  A    between atoms: C_4  and  C_22
REMARK    4  A    between atoms: C_7  and  C_8
REMARK    5  A    between atoms: C_23  and  C_25
REMARK                            x       y       z     vdW  Elec       q    Type
REMARK                         _______ _______ _______ _____ _____    ______ ____
ROOT
ATOM      1  C   UNL     1      -2.636   3.807  -3.399  0.00  0.00    +0.263 C 
ATOM      2  O   UNL     1      -2.090   3.308  -4.364  0.00  0.00    -0.268 OA
ATOM      3  N   UNL     1      -3.027   3.030  -2.369  0.00  0.00    -0.296 N 
ATOM      4  C   UNL     1      -3.575   3.629  -1.145  0.00  0.00    +0.108 C 
ATOM      5  C   UNL     1      -2.783   3.106   0.057  0.00  0.00    +0.023 C 
ATOM      6  C   UNL     1      -2.799   1.575   0.048  0.00  0.00    -0.005 C 
ATOM      7  C   UNL     1      -2.022   1.056   1.262  0.00  0.00    +0.004 C 
ATOM      8  C   UNL     1      -0.582   1.569   1.200  0.00  0.00    +0.000 C 
ATOM      9  C   UNL     1       0.085   1.069  -0.083  0.00  0.00    +0.000 C 
ATOM     10  C   UNL     1      -0.694   1.580  -1.297  0.00  0.00    +0.005 C 
ATOM     11  C   UNL     1      -2.133   1.064  -1.232  0.00  0.00    +0.010 C 
ATOM     12  C   UNL     1      -2.914   1.567  -2.449  0.00  0.00    +0.112 C 
ENDROOT
BRANCH   1  19
ATOM     13  C   UNL     1      -5.410   5.201  -3.694  0.00  0.00    +0.047 C 
ATOM     14  C   UNL     1      -4.078   5.873  -3.483  0.00  0.00    -0.010 A 
ATOM     15  C   UNL     1      -3.844   7.265  -3.377  0.00  0.00    +0.041 A 
ATOM     16  C   UNL     1      -2.480   7.434  -3.195  0.00  0.00    +0.024 A 
ATOM     17  N   UNL     1      -1.903   6.224  -3.183  0.00  0.00    -0.354 N 
ATOM     18  H   UNL     1      -0.954   6.055  -3.071  0.00  0.00    +0.166 HD
ATOM     19  C   UNL     1      -2.870   5.256  -3.355  0.00  0.00    +0.106 A 
ATOM     20  C   UNL     1      -1.768   8.753  -3.037  0.00  0.00    +0.064 C 
BRANCH  15  21
ATOM     21  C   UNL     1      -4.853   8.327  -3.450  0.00  0.00    +0.162 C 
ATOM     22  O   UNL     1      -5.466   8.650  -2.455  0.00  0.00    -0.292 OA
ATOM     23  C   UNL     1      -5.127   9.016  -4.762  0.00  0.00    +0.091 C 
ENDBRANCH  15  21
ENDBRANCH   1  19
TORSDOF 2
