REMARK  Name = ZINC19808801
REMARK  7 active torsions:
REMARK  status: ('A' for Active; 'I' for Inactive)
REMARK    1  A    between atoms: C_1  and  C_2
REMARK    2  A    between atoms: C_2  and  C_3
REMARK    3  A    between atoms: C_2  and  C_4
REMARK    4  A    between atoms: C_7  and  O_10
REMARK    5  A    between atoms: O_10  and  C_11
REMARK    6  A    between atoms: C_11  and  C_12
REMARK    7  A    between atoms: C_15  and  C_19
REMARK                            x       y       z     vdW  Elec       q    Type
REMARK                         _______ _______ _______ _____ _____    ______ ____
ROOT
ATOM      1  C   UNL     1       2.343  -4.165  -0.044  0.00  0.00    +0.025 A 
ATOM      2  C   UNL     1       1.072  -4.710  -0.035  0.00  0.00    +0.010 A 
ATOM      3  C   UNL     1       0.906  -6.080  -0.042  0.00  0.00    +0.012 A 
ATOM      4  C   UNL     1       2.022  -6.916  -0.058  0.00  0.00    +0.015 A 
ATOM      5  C   UNL     1       3.302  -6.363  -0.066  0.00  0.00    +0.050 A 
ATOM      6  C   UNL     1       3.457  -4.989  -0.065  0.00  0.00    +0.130 A 
ATOM      7  F   UNL     1       4.695  -4.450  -0.079  0.00  0.00    -0.205 F 
ENDROOT
BRANCH   4   8
ATOM      8  C   UNL     1       1.849  -8.387  -0.065  0.00  0.00    +0.094 C 
ATOM      9  N   UNL     1       0.653  -8.902  -0.057  0.00  0.00    -0.387 N 
ATOM     10  N   UNL     1       2.953  -9.211  -0.081  0.00  0.00    -0.345 N 
ATOM     11  H   UNL     1       0.524  -9.994  -0.062  0.00  0.00    +0.157 HD
ATOM     12  H   UNL     1       2.825 -10.303  -0.086  0.00  0.00    +0.144 HD
ATOM     13  H   UNL     1       3.964  -8.776  -0.088  0.00  0.00    +0.144 HD
ATOM     14  H   UNL     1      -0.229  -8.244  -0.044  0.00  0.00    +0.157 HD
ENDBRANCH   4   8
BRANCH   1  15
ATOM     15  C   UNL     1       2.518  -2.668  -0.037  0.00  0.00    +0.267 C 
BRANCH  15  16
ATOM     16  O   UNL     1       1.234  -2.039  -0.021  0.00  0.00    -0.487 OA
BRANCH  16  20
ATOM     17  C   UNL     1       1.171   2.086   0.002  0.00  0.00    -0.045 A 
ATOM     18  C   UNL     1      -0.017   1.377   0.010  0.00  0.00    +0.007 A 
ATOM     19  C   UNL     1       0.002  -0.004   0.002  0.00  0.00    +0.046 A 
ATOM     20  C   UNL     1       1.213  -0.680  -0.013  0.00  0.00    +0.121 A 
ATOM     21  C   UNL     1       2.403   0.033  -0.021  0.00  0.00    +0.046 A 
ATOM     22  C   UNL     1       2.379   1.415  -0.013  0.00  0.00    +0.007 A 
BRANCH  17  24
ATOM     23  C   UNL     1       1.872   4.107   1.255  0.00  0.00    +0.012 C 
ATOM     24  C   UNL     1       1.147   3.593   0.010  0.00  0.00    +0.013 C 
ATOM     25  C   UNL     1       1.849   4.120  -1.243  0.00  0.00    +0.012 C 
ENDBRANCH  17  24
ENDBRANCH  16  20
ENDBRANCH  15  16
ENDBRANCH   1  15
TORSDOF 5
