REMARK  Name = ZINC20207817
REMARK  11 active torsions:
REMARK  status: ('A' for Active; 'I' for Inactive)
REMARK    1  A    between atoms: C_1  and  O_2
REMARK    2  A    between atoms: O_2  and  C_3
REMARK    3  A    between atoms: C_5  and  C_20
REMARK    4  A    between atoms: C_8  and  O_9
REMARK    5  A    between atoms: O_9  and  C_10
REMARK    6  A    between atoms: C_10  and  C_11
REMARK    7  A    between atoms: C_11  and  C_12
REMARK    8  A    between atoms: C_12  and  O_13
REMARK    9  A    between atoms: O_13  and  C_14
REMARK   10  A    between atoms: C_30  and  S_32
REMARK   11  A    between atoms: S_32  and  C_35
REMARK                            x       y       z     vdW  Elec       q    Type
REMARK                         _______ _______ _______ _____ _____    ______ ____
ROOT
ATOM      1  C   UNL     1       0.389  -0.402  -1.222  0.00  0.00    +0.162 A 
ATOM      2  C   UNL     1       0.900   0.326  -2.277  0.00  0.00    +0.057 A 
ATOM      3  C   UNL     1       1.728  -0.301  -3.220  0.00  0.00    -0.021 A 
ATOM      4  C   UNL     1       2.029  -1.664  -3.084  0.00  0.00    +0.012 A 
ATOM      5  C   UNL     1       1.514  -2.380  -2.028  0.00  0.00    +0.050 A 
ATOM      6  C   UNL     1       0.699  -1.756  -1.092  0.00  0.00    +0.162 A 
ENDROOT
BRANCH   3   7
ATOM      7  C   UNL     1       2.274   0.464  -4.343  0.00  0.00    +0.024 C 
ATOM      8  C   UNL     1       2.476  -0.148  -5.559  0.00  0.00    +0.081 C 
ATOM      9  C   UNL     1       1.987  -1.529  -5.835  0.00  0.00    +0.153 C 
ATOM     10  N   UNL     1       0.892  -2.019  -5.318  0.00  0.00    -0.283 NA
ATOM     11  N   UNL     1       2.823  -2.255  -6.710  0.00  0.00    -0.150 N 
ATOM     12  C   UNL     1       3.636  -1.534  -7.558  0.00  0.00    +0.182 C 
ATOM     13  N   UNL     1       3.803  -0.235  -7.592  0.00  0.00    -0.152 NA
ATOM     14  C   UNL     1       3.187   0.534  -6.669  0.00  0.00    +0.273 C 
ATOM     15  O   UNL     1       3.217   1.752  -6.742  0.00  0.00    -0.268 OA
ATOM     16  S   UNL     1       4.379  -2.812  -8.537  0.00  0.00    -0.015 S 
ATOM     17  C   UNL     1       3.646  -4.208  -7.695  0.00  0.00    +0.235 C 
ATOM     18  N   UNL     1       2.894  -3.628  -6.803  0.00  0.00    -0.145 NA
ATOM     19  H   UNL     1       0.618  -2.925  -5.530  0.00  0.00    +0.188 HD
BRANCH  17  20
ATOM     20  S   UNL     1       3.881  -5.928  -7.994  0.00  0.00    +0.019 S 
ATOM     21  O   UNL     1       5.215  -6.035  -8.470  0.00  0.00    -0.168 OA
ATOM     22  O   UNL     1       3.490  -6.563  -6.784  0.00  0.00    -0.168 OA
ATOM     23  C   UNL     1       2.711  -6.335  -9.319  0.00  0.00    +0.202 C 
ENDBRANCH  17  20
ENDBRANCH   3   7
BRANCH   1  25
ATOM     24  C   UNL     1      -0.689   1.592  -0.501  0.00  0.00    +0.277 C 
ATOM     25  O   UNL     1      -0.413   0.203  -0.306  0.00  0.00    -0.491 OA
ENDBRANCH   1  25
BRANCH   6  26
ATOM     26  O   UNL     1       0.198  -2.467  -0.049  0.00  0.00    -0.488 OA
BRANCH  26  27
ATOM     27  C   UNL     1       0.554  -3.849   0.024  0.00  0.00    +0.232 C 
BRANCH  27  28
ATOM     28  C   UNL     1      -0.099  -4.479   1.256  0.00  0.00    +0.082 C 
BRANCH  28  29
ATOM     29  C   UNL     1       0.283  -5.959   1.334  0.00  0.00    +0.232 C 
BRANCH  29  30
ATOM     30  O   UNL     1      -0.327  -6.548   2.485  0.00  0.00    -0.492 OA
BRANCH  30  31
ATOM     31  C   UNL     1      -0.087  -7.867   2.703  0.00  0.00    +0.121 A 
ATOM     32  C   UNL     1       0.724  -8.580   1.831  0.00  0.00    +0.045 A 
ATOM     33  C   UNL     1       0.966  -9.921   2.055  0.00  0.00    +0.004 A 
ATOM     34  C   UNL     1       0.402 -10.554   3.147  0.00  0.00    +0.000 A 
ATOM     35  C   UNL     1      -0.407  -9.847   4.017  0.00  0.00    +0.004 A 
ATOM     36  C   UNL     1      -0.648  -8.504   3.801  0.00  0.00    +0.045 A 
ENDBRANCH  30  31
ENDBRANCH  29  30
ENDBRANCH  28  29
ENDBRANCH  27  28
ENDBRANCH  26  27
ENDBRANCH   6  26
TORSDOF 9
