REMARK  Name = ZINC04585163
REMARK  7 active torsions:
REMARK  status: ('A' for Active; 'I' for Inactive)
REMARK    1  A    between atoms: C_1  and  C_2
REMARK    2  A    between atoms: C_2  and  C_3
REMARK    3  A    between atoms: C_8  and  O_27
REMARK    4  A    between atoms: C_9  and  C_11
REMARK    5  A    between atoms: C_11  and  C_13
REMARK    6  A    between atoms: C_11  and  N_20
REMARK    7  A    between atoms: C_23  and  O_26
REMARK                            x       y       z     vdW  Elec       q    Type
REMARK                         _______ _______ _______ _____ _____    ______ ____
ROOT
ATOM      1  C   UNL     1       4.172  -2.393  -5.702  0.00  0.00    +0.006 C 
ENDROOT
BRANCH   1   8
ATOM      2  C   UNL     1       0.707  -0.490  -1.238  0.00  0.00    +0.152 A 
ATOM      3  N   UNL     1       0.124  -0.743  -2.408  0.00  0.00    -0.205 NA
ATOM      4  C   UNL     1       1.025  -1.146  -3.261  0.00  0.00    +0.199 A 
ATOM      5  N   UNL     1       2.247  -1.167  -2.660  0.00  0.00    -0.173 N 
ATOM      6  N   UNL     1       1.988  -0.724  -1.336  0.00  0.00    -0.147 NA
ATOM      7  C   UNL     1       3.316  -1.572  -3.422  0.00  0.00    +0.225 A 
ATOM      8  C   UNL     1       3.147  -1.926  -4.701  0.00  0.00    +0.045 A 
ATOM      9  S   UNL     1       1.388  -1.698  -4.910  0.00  0.00    -0.050 S 
BRANCH   2  11
ATOM     10  C   UNL     1      -0.019   1.526   0.010  0.00  0.00    +0.012 C 
ATOM     11  C   UNL     1       0.002  -0.004   0.002  0.00  0.00    +0.075 C 
ENDBRANCH   2  11
BRANCH   7  12
ATOM     12  O   UNL     1       4.559  -1.612  -2.870  0.00  0.00    -0.492 OA
ATOM     13  H   UNL     1       4.587  -1.339  -1.943  0.00  0.00    +0.294 HD
ENDBRANCH   7  12
ENDBRANCH   1   8
BRANCH   1  14
ATOM     14  C   UNL     1       3.884  -3.821  -6.088  0.00  0.00    -0.053 A 
ATOM     15  C   UNL     1       2.902  -4.100  -7.021  0.00  0.00    +0.002 A 
ATOM     16  C   UNL     1       2.637  -5.409  -7.376  0.00  0.00    +0.003 A 
ATOM     17  C   UNL     1       3.352  -6.441  -6.797  0.00  0.00    +0.038 A 
ATOM     18  C   UNL     1       4.334  -6.163  -5.862  0.00  0.00    +0.124 A 
ATOM     19  C   UNL     1       4.604  -4.850  -5.512  0.00  0.00    +0.040 A 
ATOM     20  F   UNL     1       5.033  -7.170  -5.296  0.00  0.00    -0.205 F 
ENDBRANCH   1  14
BRANCH   1  21
ATOM     21  N   UNL     1       4.112  -1.541  -6.898  0.00  0.00    +0.388 N 
ATOM     22  C   UNL     1       4.384  -0.149  -6.520  0.00  0.00    -0.075 C 
ATOM     23  C   UNL     1       4.243   0.754  -7.747  0.00  0.00    +0.013 C 
ATOM     24  C   UNL     1       5.242   0.310  -8.819  0.00  0.00    +0.111 C 
ATOM     25  C   UNL     1       4.997  -1.165  -9.152  0.00  0.00    +0.013 C 
ATOM     26  C   UNL     1       5.110  -1.997  -7.872  0.00  0.00    -0.075 C 
ATOM     27  H   UNL     1       3.191  -1.602  -7.307  0.00  0.00    -0.080 HD
BRANCH  24  28
ATOM     28  O   UNL     1       5.065   1.101  -9.995  0.00  0.00    -0.392 OA
ATOM     29  H   UNL     1       5.667   0.874 -10.717  0.00  0.00    +0.210 HD
ENDBRANCH  24  28
ENDBRANCH   1  21
TORSDOF 6
