REMARK  Name = ZINC09065358
REMARK  6 active torsions:
REMARK  status: ('A' for Active; 'I' for Inactive)
REMARK    1  A    between atoms: C_1  and  C_2
REMARK    2  A    between atoms: C_2  and  C_25
REMARK    3  A    between atoms: N_3  and  N_4
REMARK    4  A    between atoms: C_5  and  C_7
REMARK    5  A    between atoms: C_9  and  C_13
REMARK    6  A    between atoms: C_28  and  N_31
REMARK                            x       y       z     vdW  Elec       q    Type
REMARK                         _______ _______ _______ _____ _____    ______ ____
ROOT
ATOM      1  C   UNL     1       3.316  -2.316  -0.421  0.00  0.00    +0.149 A 
ATOM      2  C   UNL     1       3.552  -0.963  -0.749  0.00  0.00    +0.062 A 
ATOM      3  C   UNL     1       2.636  -0.248  -0.025  0.00  0.00    +0.067 A 
ATOM      4  N   UNL     1       1.899  -1.154   0.682  0.00  0.00    -0.276 N 
ATOM      5  H   UNL     1       1.148  -0.924   1.301  0.00  0.00    +0.189 HD
ATOM      6  N   UNL     1       2.313  -2.345   0.435  0.00  0.00    -0.169 NA
ENDROOT
BRANCH   3   7
ATOM      7  C   UNL     1       2.473   1.219  -0.016  0.00  0.00    +0.008 A 
ATOM      8  C   UNL     1       3.580   2.058  -0.023  0.00  0.00    +0.011 A 
ATOM      9  C   UNL     1       3.455   3.445  -0.014  0.00  0.00    +0.005 A 
ATOM     10  C   UNL     1       2.224   4.030   0.002  0.00  0.00    -0.039 A 
ATOM     11  C   UNL     1       1.101   3.208   0.009  0.00  0.00    -0.011 A 
ATOM     12  C   UNL     1       1.184   1.805   0.000  0.00  0.00    -0.008 A 
ATOM     13  C   UNL     1      -0.013   1.076   0.008  0.00  0.00    +0.009 A 
ATOM     14  C   UNL     1      -1.198   1.755   0.017  0.00  0.00    +0.001 A 
ATOM     15  C   UNL     1      -1.258   3.150   0.032  0.00  0.00    +0.004 A 
ATOM     16  C   UNL     1      -0.113   3.887   0.025  0.00  0.00    -0.039 A 
ATOM     17  C   UNL     1       0.195   5.364   0.030  0.00  0.00    +0.040 C 
ATOM     18  C   UNL     1       1.736   5.459   0.015  0.00  0.00    +0.040 C 
ENDBRANCH   3   7
BRANCH   1  20
ATOM     19  N   UNL     1       3.714  -4.727  -0.549  0.00  0.00    -0.201 N 
ATOM     20  C   UNL     1       4.052  -3.484  -0.946  0.00  0.00    +0.283 C 
ATOM     21  O   UNL     1       4.963  -3.324  -1.735  0.00  0.00    -0.267 OA
ATOM     22  H   UNL     1       2.988  -4.854   0.081  0.00  0.00    +0.178 HD
BRANCH  19  25
ATOM     23  C   UNL     1       2.958  -7.230   0.314  0.00  0.00    +0.068 C 
ATOM     24  C   UNL     1       4.087  -7.032  -0.664  0.00  0.00    +0.063 C 
ATOM     25  N   UNL     1       4.412  -5.835  -1.046  0.00  0.00    -0.184 NA
BRANCH  24  26
ATOM     26  C   UNL     1       4.822  -8.198  -1.188  0.00  0.00    -0.002 A 
ATOM     27  C   UNL     1       4.478  -9.488  -0.775  0.00  0.00    +0.012 A 
ATOM     28  C   UNL     1       5.166 -10.575  -1.274  0.00  0.00    +0.033 A 
ATOM     29  C   UNL     1       6.202 -10.389  -2.172  0.00  0.00    +0.126 A 
ATOM     30  C   UNL     1       6.552  -9.114  -2.581  0.00  0.00    +0.033 A 
ATOM     31  C   UNL     1       5.869  -8.019  -2.095  0.00  0.00    +0.012 A 
BRANCH  29  32
ATOM     32  N   UNL     1       6.940 -11.560  -2.697  0.00  0.00    +0.056 N 
ATOM     33  O   UNL     1       7.852 -11.400  -3.488  0.00  0.00    -0.126 OA
ATOM     34  O   UNL     1       6.635 -12.683  -2.339  0.00  0.00    -0.126 OA
ENDBRANCH  29  32
ENDBRANCH  24  26
ENDBRANCH  19  25
ENDBRANCH   1  20
TORSDOF 5
