REMARK  Name = ZINC21323586
REMARK  10 active torsions:
REMARK  status: ('A' for Active; 'I' for Inactive)
REMARK    1  A    between atoms: C_1  and  C_2
REMARK    2  A    between atoms: C_5  and  N_9
REMARK    3  A    between atoms: C_6  and  C_8
REMARK    4  A    between atoms: C_10  and  C_12
REMARK    5  A    between atoms: C_12  and  S_13
REMARK    6  A    between atoms: S_13  and  C_14
REMARK    7  A    between atoms: N_18  and  N_19
REMARK    8  A    between atoms: N_20  and  N_21
REMARK    9  A    between atoms: C_22  and  C_23
REMARK   10  A    between atoms: C_22  and  C_24
REMARK                            x       y       z     vdW  Elec       q    Type
REMARK                         _______ _______ _______ _____ _____    ______ ____
ROOT
ATOM      1  C   UNL     1      -6.504   1.947  -0.417  0.00  0.00    +0.210 A 
ATOM      2  N   UNL     1      -6.529   3.259  -0.405  0.00  0.00    -0.119 NA
ATOM      3  N   UNL     1      -7.864   3.668  -0.518  0.00  0.00    -0.109 NA
ATOM      4  C   UNL     1      -8.612   2.594  -0.587  0.00  0.00    +0.254 A 
ATOM      5  N   UNL     1      -7.791   1.502  -0.526  0.00  0.00    -0.211 N 
ATOM      6  N   UNL     1      -9.995   2.569  -0.702  0.00  0.00    -0.204 N 
ATOM      7  H   UNL     1     -10.525   1.607  -0.752  0.00  0.00    +0.178 HD
ENDROOT
BRANCH   5   8
ATOM      8  N   UNL     1      -8.188   0.196  -0.567  0.00  0.00    -0.294 N 
ATOM      9  H   UNL     1      -9.256  -0.052  -0.657  0.00  0.00    +0.163 HD
ATOM     10  H   UNL     1      -7.439  -0.608  -0.510  0.00  0.00    +0.163 HD
ENDBRANCH   5   8
BRANCH   6  11
ATOM     11  N   UNL     1     -10.715   3.769  -0.754  0.00  0.00    -0.184 NA
ATOM     12  C   UNL     1     -12.009   3.746  -0.861  0.00  0.00    +0.063 C 
ATOM     13  C   UNL     1     -12.736   2.428  -0.930  0.00  0.00    +0.068 C 
BRANCH  12  14
ATOM     14  C   UNL     1     -12.767   5.009  -0.916  0.00  0.00    -0.002 A 
ATOM     15  C   UNL     1     -14.169   4.978  -1.032  0.00  0.00    +0.010 A 
ATOM     16  C   UNL     1     -14.889   6.127  -1.084  0.00  0.00    +0.009 A 
ATOM     17  C   UNL     1     -14.234   7.371  -1.021  0.00  0.00    -0.018 A 
ATOM     18  C   UNL     1     -14.958   8.574  -1.071  0.00  0.00    +0.008 A 
ATOM     19  C   UNL     1     -14.297   9.763  -1.008  0.00  0.00    +0.001 A 
ATOM     20  C   UNL     1     -12.909   9.808  -0.893  0.00  0.00    +0.001 A 
ATOM     21  C   UNL     1     -12.174   8.664  -0.841  0.00  0.00    +0.008 A 
ATOM     22  C   UNL     1     -12.821   7.417  -0.904  0.00  0.00    -0.017 A 
ATOM     23  C   UNL     1     -12.094   6.219  -0.846  0.00  0.00    +0.018 A 
ENDBRANCH  12  14
ENDBRANCH   6  11
BRANCH   1  24
ATOM     24  S   UNL     1      -5.065   0.937  -0.304  0.00  0.00    -0.075 S 
BRANCH  24  25
ATOM     25  C   UNL     1      -3.702   2.128  -0.184  0.00  0.00    +0.173 C 
BRANCH  25  27
ATOM     26  N   UNL     1      -1.237   2.069   0.019  0.00  0.00    -0.285 N 
ATOM     27  C   UNL     1      -2.394   1.385  -0.081  0.00  0.00    +0.227 C 
ATOM     28  O   UNL     1      -2.383   0.173  -0.088  0.00  0.00    -0.275 OA
ATOM     29  H   UNL     1      -1.252   3.166   0.100  0.00  0.00    +0.155 HD
BRANCH  26  34
ATOM     30  C   UNL     1       3.704  -0.717   0.009  0.00  0.00    +0.044 C 
ATOM     31  C   UNL     1       2.392   0.024   0.013  0.00  0.00    -0.050 A 
ATOM     32  C   UNL     1       1.282  -0.542   0.613  0.00  0.00    +0.005 A 
ATOM     33  C   UNL     1       0.078   0.134   0.619  0.00  0.00    +0.024 A 
ATOM     34  C   UNL     1      -0.017   1.384   0.021  0.00  0.00    +0.036 A 
ATOM     35  C   UNL     1       1.099   1.949  -0.581  0.00  0.00    -0.029 A 
ATOM     36  C   UNL     1       2.300   1.267  -0.584  0.00  0.00    +0.008 A 
ATOM     37  C   UNL     1       1.000   3.305  -1.231  0.00  0.00    +0.045 C 
ENDBRANCH  26  34
ENDBRANCH  25  27
ENDBRANCH  24  25
ENDBRANCH   1  24
TORSDOF 7
