REMARK  Name = ZINC15943315
REMARK  10 active torsions:
REMARK  status: ('A' for Active; 'I' for Inactive)
REMARK    1  A    between atoms: C_1  and  C_2
REMARK    2  A    between atoms: C_2  and  C_3
REMARK    3  A    between atoms: C_2  and  C_4
REMARK    4  A    between atoms: C_4  and  C_5
REMARK    5  A    between atoms: C_5  and  N_6
REMARK    6  A    between atoms: C_18  and  C_19
REMARK    7  A    between atoms: C_19  and  C_20
REMARK    8  A    between atoms: C_20  and  C_21
REMARK    9  A    between atoms: C_21  and  C_22
REMARK   10  A    between atoms: C_27  and  N_30
REMARK                            x       y       z     vdW  Elec       q    Type
REMARK                         _______ _______ _______ _____ _____    ______ ____
ROOT
ATOM      1  N   UNL     1      -3.510  -0.638  -1.275  0.00  0.00    -0.276 N 
ATOM      2  C   UNL     1      -3.782  -1.867  -1.768  0.00  0.00    +0.270 A 
ATOM      3  O   UNL     1      -2.888  -2.558  -2.223  0.00  0.00    -0.266 OA
ATOM      4  C   UNL     1      -5.101  -2.340  -1.753  0.00  0.00    +0.101 A 
ATOM      5  C   UNL     1      -6.151  -1.577  -1.240  0.00  0.00    +0.071 A 
ATOM      6  C   UNL     1      -7.389  -2.211  -1.308  0.00  0.00    +0.034 A 
ATOM      7  C   UNL     1      -7.479  -3.450  -1.837  0.00  0.00    +0.048 A 
ATOM      8  S   UNL     1      -5.902  -3.833  -2.273  0.00  0.00    -0.090 S 
ATOM      9  N   UNL     1      -5.816  -0.310  -0.740  0.00  0.00    -0.264 N 
ATOM     10  C   UNL     1      -4.530   0.136  -0.756  0.00  0.00    +0.239 A 
ATOM     11  N   UNL     1      -4.538   1.337  -0.221  0.00  0.00    -0.110 NA
ATOM     12  N   UNL     1      -5.736   1.653   0.125  0.00  0.00    -0.132 NA
ATOM     13  C   UNL     1      -6.559   0.685  -0.177  0.00  0.00    +0.139 A 
ENDROOT
BRANCH   1  14
ATOM     14  C   UNL     1      -2.135  -0.131  -1.286  0.00  0.00    +0.128 C 
BRANCH  14  15
ATOM     15  C   UNL     1      -1.433  -0.534   0.013  0.00  0.00    +0.025 C 
BRANCH  15  17
ATOM     16  C   UNL     1      -0.019   1.526   0.010  0.00  0.00    +0.007 C 
ATOM     17  C   UNL     1       0.002  -0.004   0.002  0.00  0.00    -0.016 C 
ATOM     18  C   UNL     1       0.742  -0.511   1.242  0.00  0.00    +0.007 C 
ENDBRANCH  15  17
ENDBRANCH  14  15
ENDBRANCH   1  14
BRANCH  13  19
ATOM     19  C   UNL     1      -8.046   0.665   0.066  0.00  0.00    +0.077 C 
BRANCH  19  20
ATOM     20  C   UNL     1      -8.328   0.086   1.453  0.00  0.00    +0.017 C 
BRANCH  20  21
ATOM     21  C   UNL     1      -9.838   0.066   1.700  0.00  0.00    +0.096 C 
BRANCH  21  22
ATOM     22  C   UNL     1     -10.116  -0.505   3.067  0.00  0.00    +0.216 C 
ATOM     23  O   UNL     1      -9.197  -0.861   3.774  0.00  0.00    -0.276 OA
ATOM     24  N   UNL     1     -11.386  -0.621   3.504  0.00  0.00    -0.302 N 
ATOM     25  C   UNL     1     -12.510  -0.200   2.657  0.00  0.00    +0.106 C 
ATOM     26  C   UNL     1     -13.381   0.783   3.445  0.00  0.00    +0.004 C 
ATOM     27  C   UNL     1     -13.798   0.140   4.769  0.00  0.00    -0.066 C 
ATOM     28  C   UNL     1     -12.553  -0.176   5.601  0.00  0.00    +0.004 C 
ATOM     29  C   UNL     1     -11.672  -1.175   4.834  0.00  0.00    +0.106 C 
BRANCH  27  30
ATOM     30  N   UNL     1     -14.661   1.067   5.514  0.00  0.00    +0.382 N 
ATOM     31  C   UNL     1     -15.054   0.452   6.788  0.00  0.00    -0.078 C 
ATOM     32  C   UNL     1     -15.886   1.445   7.602  0.00  0.00    -0.019 C 
ATOM     33  C   UNL     1     -17.139   1.824   6.809  0.00  0.00    -0.004 C 
ATOM     34  C   UNL     1     -16.719   2.395   5.452  0.00  0.00    -0.019 C 
ATOM     35  C   UNL     1     -15.856   1.368   4.717  0.00  0.00    -0.078 C 
ATOM     36  H   UNL     1     -14.156   1.921   5.697  0.00  0.00    -0.081 HD
ENDBRANCH  27  30
ENDBRANCH  21  22
ENDBRANCH  20  21
ENDBRANCH  19  20
ENDBRANCH  13  19
TORSDOF 8
