REMARK  Name = ZINC22846357
REMARK  5 active torsions:
REMARK  status: ('A' for Active; 'I' for Inactive)
REMARK    1  A    between atoms: C_1  and  C_2
REMARK    2  A    between atoms: C_2  and  C_4
REMARK    3  A    between atoms: C_2  and  N_13
REMARK    4  A    between atoms: C_14  and  C_16
REMARK    5  A    between atoms: C_16  and  N_17
REMARK                            x       y       z     vdW  Elec       q    Type
REMARK                         _______ _______ _______ _____ _____    ______ ____
ROOT
ATOM      1  N   UNL     1      -2.466   0.376   3.092  0.00  0.00    -0.307 N 
ATOM      2  C   UNL     1      -1.775   1.133   2.217  0.00  0.00    +0.231 C 
ATOM      3  O   UNL     1      -0.777   1.720   2.580  0.00  0.00    -0.274 OA
ATOM      4  H   UNL     1      -3.371  -0.157   2.764  0.00  0.00    +0.149 HD
ENDROOT
BRANCH   1   6
ATOM      5  C   UNL     1      -0.959  -0.842   4.584  0.00  0.00    +0.033 C 
ATOM      6  C   UNL     1      -2.013   0.262   4.481  0.00  0.00    +0.100 C 
BRANCH   6   7
ATOM      7  C   UNL     1      -3.185  -0.078   5.365  0.00  0.00    -0.024 A 
ATOM      8  C   UNL     1      -4.140  -0.977   4.930  0.00  0.00    +0.009 A 
ATOM      9  C   UNL     1      -5.214  -1.296   5.739  0.00  0.00    +0.050 A 
ATOM     10  C   UNL     1      -5.341  -0.706   6.987  0.00  0.00    +0.166 A 
ATOM     11  C   UNL     1      -4.381   0.204   7.424  0.00  0.00    +0.167 A 
ATOM     12  C   UNL     1      -3.305   0.514   6.609  0.00  0.00    +0.055 A 
ATOM     13  O   UNL     1      -4.729   0.639   8.670  0.00  0.00    -0.453 OA
ATOM     14  C   UNL     1      -5.688  -0.318   9.158  0.00  0.00    +0.466 C 
ATOM     15  O   UNL     1      -6.289  -0.841   7.959  0.00  0.00    -0.453 OA
ENDBRANCH   6   7
ENDBRANCH   1   6
BRANCH   2  16
ATOM     16  C   UNL     1      -2.241   1.250   0.789  0.00  0.00    +0.200 C 
BRANCH  16  17
ATOM     17  N   UNL     1      -1.209   1.924  -0.009  0.00  0.00    -0.319 N 
ATOM     18  C   UNL     1       0.107   1.324   0.219  0.00  0.00    +0.106 C 
ATOM     19  C   UNL     1       1.136   2.050  -0.657  0.00  0.00    +0.024 C 
ATOM     20  C   UNL     1       0.832   1.712  -2.119  0.00  0.00    +0.038 C 
ATOM     21  C   UNL     1      -0.643   1.881  -2.384  0.00  0.00    -0.023 A 
ATOM     22  C   UNL     1      -1.567   1.965  -1.358  0.00  0.00    +0.069 A 
ATOM     23  C   UNL     1      -2.923   2.105  -1.666  0.00  0.00    +0.145 A 
ATOM     24  C   UNL     1      -3.337   2.165  -2.981  0.00  0.00    +0.040 A 
ATOM     25  C   UNL     1      -2.407   2.086  -4.002  0.00  0.00    +0.003 A 
ATOM     26  C   UNL     1      -1.067   1.945  -3.702  0.00  0.00    +0.005 A 
ATOM     27  F   UNL     1      -3.833   2.182  -0.671  0.00  0.00    -0.204 F 
ENDBRANCH  16  17
ENDBRANCH   2  16
TORSDOF 4
