REMARK  Name = ZINC63138465
REMARK  12 active torsions:
REMARK  status: ('A' for Active; 'I' for Inactive)
REMARK    1  A    between atoms: C_1  and  C_2
REMARK    2  A    between atoms: C_2  and  C_3
REMARK    3  A    between atoms: C_3  and  C_4
REMARK    4  A    between atoms: C_4  and  C_5
REMARK    5  A    between atoms: C_5  and  N_6
REMARK    6  A    between atoms: C_26  and  C_28
REMARK    7  A    between atoms: C_30  and  O_38
REMARK    8  A    between atoms: C_31  and  O_36
REMARK    9  A    between atoms: C_32  and  O_34
REMARK   10  A    between atoms: O_34  and  C_35
REMARK   11  A    between atoms: O_36  and  C_37
REMARK   12  A    between atoms: O_38  and  C_39
REMARK                            x       y       z     vdW  Elec       q    Type
REMARK                         _______ _______ _______ _____ _____    ______ ____
ROOT
ATOM      1  N   UNL     1      -2.586  -4.081   0.390  0.00  0.00    -0.291 N 
ATOM      2  C   UNL     1      -2.668  -4.640  -0.949  0.00  0.00    +0.203 C 
ATOM      3  C   UNL     1      -2.739  -6.131  -0.935  0.00  0.00    +0.234 C 
ATOM      4  O   UNL     1      -2.812  -6.702  -2.002  0.00  0.00    -0.274 OA
ATOM      5  N   UNL     1      -2.728  -6.883   0.172  0.00  0.00    -0.279 N 
ATOM      6  C   UNL     1      -2.625  -6.313   1.511  0.00  0.00    +0.167 C 
ATOM      7  C   UNL     1      -2.560  -4.821   1.497  0.00  0.00    +0.237 C 
ATOM      8  O   UNL     1      -2.484  -4.247   2.562  0.00  0.00    -0.274 OA
ATOM      9  C   UNL     1      -1.382  -6.874   2.227  0.00  0.00    +0.065 C 
ATOM     10  C   UNL     1      -1.389  -8.365   1.995  0.00  0.00    -0.034 C 
ATOM     11  C   UNL     1      -1.287  -9.387   2.836  0.00  0.00    -0.001 A 
ATOM     12  C   UNL     1      -1.018  -9.443   4.282  0.00  0.00    +0.010 A 
ATOM     13  C   UNL     1      -1.003 -10.682   4.841  0.00  0.00    +0.001 A 
ATOM     14  C   UNL     1      -1.226 -11.857   4.115  0.00  0.00    +0.002 A 
ATOM     15  C   UNL     1      -1.471 -11.899   2.781  0.00  0.00    +0.026 A 
ATOM     16  C   UNL     1      -1.504 -10.658   2.080  0.00  0.00    +0.043 A 
ATOM     17  N   UNL     1      -1.690 -10.410   0.817  0.00  0.00    -0.375 N 
ATOM     18  C   UNL     1      -1.556  -8.969   0.606  0.00  0.00    +0.131 C 
ATOM     19  C   UNL     1      -2.825  -8.352   0.011  0.00  0.00    +0.134 C 
ATOM     20  H   UNL     1      -1.885 -11.069   0.132  0.00  0.00    +0.160 HD
ENDROOT
BRANCH  19  21
ATOM     21  C   UNL     1      -4.036  -8.867   0.745  0.00  0.00    -0.018 A 
ATOM     22  C   UNL     1      -4.165  -8.646   2.103  0.00  0.00    +0.055 A 
ATOM     23  C   UNL     1      -5.278  -9.119   2.782  0.00  0.00    +0.165 A 
ATOM     24  C   UNL     1      -6.264  -9.816   2.094  0.00  0.00    +0.204 A 
ATOM     25  C   UNL     1      -6.131 -10.036   0.729  0.00  0.00    +0.165 A 
ATOM     26  C   UNL     1      -5.018  -9.555   0.056  0.00  0.00    +0.055 A 
BRANCH  25  27
ATOM     27  O   UNL     1      -7.094 -10.718   0.051  0.00  0.00    -0.491 OA
ATOM     28  C   UNL     1      -6.891 -10.906  -1.351  0.00  0.00    +0.277 C 
ENDBRANCH  25  27
BRANCH  24  29
ATOM     29  O   UNL     1      -7.358 -10.283   2.757  0.00  0.00    -0.488 OA
ATOM     30  C   UNL     1      -8.488  -9.412   2.838  0.00  0.00    +0.277 C 
ENDBRANCH  24  29
BRANCH  23  31
ATOM     31  O   UNL     1      -5.403  -8.902   4.118  0.00  0.00    -0.491 OA
ATOM     32  C   UNL     1      -4.351  -8.179   4.760  0.00  0.00    +0.277 C 
ENDBRANCH  23  31
ENDBRANCH  19  21
BRANCH   1  33
ATOM     33  C   UNL     1      -2.523  -2.624   0.530  0.00  0.00    +0.108 C 
BRANCH  33  34
ATOM     34  C   UNL     1      -1.062  -2.173   0.507  0.00  0.00    +0.019 C 
BRANCH  34  35
ATOM     35  C   UNL     1      -0.996  -0.651   0.653  0.00  0.00    +0.001 C 
BRANCH  35  37
ATOM     36  C   UNL     1       0.532   1.322   0.776  0.00  0.00    +0.004 C 
ATOM     37  C   UNL     1       0.466  -0.199   0.631  0.00  0.00    -0.003 C 
ENDBRANCH  35  37
ENDBRANCH  34  35
ENDBRANCH  33  34
ENDBRANCH   1  33
TORSDOF 8
