REMARK  Name = ZINC25257457
REMARK  8 active torsions:
REMARK  status: ('A' for Active; 'I' for Inactive)
REMARK    1  A    between atoms: C_1  and  C_2
REMARK    2  A    between atoms: C_2  and  C_4
REMARK    3  A    between atoms: C_2  and  N_27
REMARK    4  A    between atoms: N_6  and  C_7
REMARK    5  A    between atoms: C_7  and  C_8
REMARK    6  A    between atoms: C_8  and  C_10
REMARK    7  A    between atoms: C_8  and  C_17
REMARK    8  A    between atoms: C_28  and  C_30
REMARK                            x       y       z     vdW  Elec       q    Type
REMARK                         _______ _______ _______ _____ _____    ______ ____
ROOT
ATOM      1  C   UNL     1       1.650   4.252   0.009  0.00  0.00    +0.069 C 
ENDROOT
BRANCH   1   2
ATOM      2  C   UNL     1       0.730   3.058   0.011  0.00  0.00    -0.013 A 
ATOM      3  C   UNL     1       1.098   1.767   0.001  0.00  0.00    +0.088 A 
ATOM      4  N   UNL     1      -0.011   0.966   0.007  0.00  0.00    -0.360 N 
ATOM      5  H   UNL     1       0.101  -0.129   0.005  0.00  0.00    +0.165 HD
ATOM      6  C   UNL     1      -1.149   1.741   0.016  0.00  0.00    +0.047 A 
ATOM      7  C   UNL     1      -0.734   3.086   0.024  0.00  0.00    +0.003 A 
ATOM      8  C   UNL     1      -1.685   4.108   0.038  0.00  0.00    +0.010 A 
ATOM      9  C   UNL     1      -3.016   3.796   0.048  0.00  0.00    +0.001 A 
ATOM     10  C   UNL     1      -3.430   2.472   0.045  0.00  0.00    +0.002 A 
ATOM     11  C   UNL     1      -2.508   1.447   0.032  0.00  0.00    +0.026 A 
ENDBRANCH   1   2
BRANCH   1  12
ATOM     12  C   UNL     1       2.530   4.210   1.231  0.00  0.00    -0.020 A 
ATOM     13  C   UNL     1       3.373   3.135   1.439  0.00  0.00    +0.006 A 
ATOM     14  C   UNL     1       4.184   3.098   2.558  0.00  0.00    +0.000 A 
ATOM     15  C   UNL     1       4.146   4.133   3.474  0.00  0.00    +0.001 A 
ATOM     16  C   UNL     1       3.300   5.206   3.269  0.00  0.00    +0.020 A 
ATOM     17  C   UNL     1       2.491   5.246   2.147  0.00  0.00    +0.045 A 
ATOM     18 CL   UNL     1       1.428   6.594   1.890  0.00  0.00    -0.083 Cl
ENDBRANCH   1  12
BRANCH   1  19
ATOM     19  C   UNL     1       2.521   4.223  -1.249  0.00  0.00    +0.117 C 
BRANCH  19  22
ATOM     20  C   UNL     1       4.178   5.637  -2.340  0.00  0.00    +0.233 C 
ATOM     21  O   UNL     1       4.273   4.801  -3.214  0.00  0.00    -0.274 OA
ATOM     22  N   UNL     1       3.329   5.443  -1.312  0.00  0.00    -0.313 N 
ATOM     23  H   UNL     1       3.243   6.201  -0.519  0.00  0.00    +0.149 HD
BRANCH  20  25
ATOM     24  C   UNL     1       4.088   8.112  -2.451  0.00  0.00    +0.038 C 
ATOM     25  C   UNL     1       5.010   6.892  -2.405  0.00  0.00    +0.156 C 
BRANCH  25  26
ATOM     26  N   UNL     1       5.844   6.864  -3.609  0.00  0.00    -0.300 N 
ATOM     27  C   UNL     1       6.992   7.568  -3.650  0.00  0.00    +0.245 C 
ATOM     28  O   UNL     1       7.336   8.226  -2.688  0.00  0.00    -0.270 OA
ATOM     29  H   UNL     1       5.533   6.268  -4.480  0.00  0.00    +0.150 HD
BRANCH  27  30
ATOM     30  C   UNL     1       7.834   7.540  -4.865  0.00  0.00    +0.037 A 
ATOM     31  C   UNL     1       7.445   6.780  -5.969  0.00  0.00    +0.013 A 
ATOM     32  C   UNL     1       8.232   6.762  -7.102  0.00  0.00    +0.001 A 
ATOM     33  C   UNL     1       9.411   7.486  -7.141  0.00  0.00    +0.000 A 
ATOM     34  C   UNL     1       9.805   8.237  -6.047  0.00  0.00    +0.001 A 
ATOM     35  C   UNL     1       9.024   8.268  -4.910  0.00  0.00    +0.013 A 
ENDBRANCH  27  30
ENDBRANCH  25  26
ENDBRANCH  20  25
ENDBRANCH  19  22
ENDBRANCH   1  19
TORSDOF 7
