REMARK  Name = ZINC35938844
REMARK  10 active torsions:
REMARK  status: ('A' for Active; 'I' for Inactive)
REMARK    1  A    between atoms: C_1  and  C_2
REMARK    2  A    between atoms: C_2  and  C_3
REMARK    3  A    between atoms: C_4  and  C_23
REMARK    4  A    between atoms: C_5  and  N_15
REMARK    5  A    between atoms: N_6  and  C_8
REMARK    6  A    between atoms: N_18  and  C_21
REMARK    7  A    between atoms: C_21  and  C_22
REMARK    8  A    between atoms: C_23  and  N_24
REMARK    9  A    between atoms: N_24  and  C_25
REMARK   10  A    between atoms: C_25  and  C_26
REMARK                            x       y       z     vdW  Elec       q    Type
REMARK                         _______ _______ _______ _____ _____    ______ ____
ROOT
ATOM      1  C   UNL     1       0.744  -0.685  -1.167  0.00  0.00    +0.066 A 
ATOM      2  C   UNL     1       0.114  -0.622  -2.413  0.00  0.00    -0.002 A 
ATOM      3  C   UNL     1       1.044  -0.906  -3.366  0.00  0.00    +0.126 A 
ATOM      4  N   UNL     1       2.223  -1.139  -2.728  0.00  0.00    -0.218 N 
ATOM      5  N   UNL     1       2.004  -0.987  -1.353  0.00  0.00    -0.169 NA
ENDROOT
BRANCH   4   6
ATOM      6  C   UNL     1       3.442  -1.468  -3.339  0.00  0.00    +0.068 A 
ATOM      7  C   UNL     1       3.471  -2.377  -4.388  0.00  0.00    +0.030 A 
ATOM      8  C   UNL     1       4.672  -2.699  -4.989  0.00  0.00    +0.040 A 
ATOM      9  C   UNL     1       5.847  -2.116  -4.545  0.00  0.00    +0.124 A 
ATOM     10  C   UNL     1       5.821  -1.210  -3.498  0.00  0.00    +0.040 A 
ATOM     11  C   UNL     1       4.621  -0.881  -2.899  0.00  0.00    +0.030 A 
ATOM     12  F   UNL     1       7.022  -2.433  -5.133  0.00  0.00    -0.205 F 
ENDBRANCH   4   6
BRANCH   3  13
ATOM     13  N   UNL     1       0.828  -0.950  -4.740  0.00  0.00    -0.318 N 
ATOM     14  C   UNL     1       0.300  -2.163  -5.384  0.00  0.00    +0.088 C 
ATOM     15  C   UNL     1      -0.888  -1.765  -6.267  0.00  0.00    -0.060 C 
ATOM     16  N   UNL     1      -0.470  -0.715  -7.204  0.00  0.00    +0.382 N 
ATOM     17  C   UNL     1      -0.105   0.499  -6.463  0.00  0.00    -0.060 C 
ATOM     18  C   UNL     1       1.116   0.216  -5.589  0.00  0.00    +0.088 C 
ATOM     19  H   UNL     1       0.326  -1.036  -7.734  0.00  0.00    -0.082 HD
BRANCH  16  20
ATOM     20  C   UNL     1      -1.576  -0.412  -8.122  0.00  0.00    -0.082 C 
ATOM     21  C   UNL     1      -1.104   0.592  -9.176  0.00  0.00    -0.017 C 
ENDBRANCH  16  20
ENDBRANCH   3  13
BRANCH   1  23
ATOM     22  C   UNL     1       0.186   1.047   0.518  0.00  0.00    +0.010 C 
ATOM     23  C   UNL     1       0.086  -0.439   0.167  0.00  0.00    +0.054 C 
ENDBRANCH   1  23
BRANCH   2  24
ATOM     24  C   UNL     1      -1.338  -0.299  -2.658  0.00  0.00    -0.041 C 
BRANCH  24  25
ATOM     25  N   UNL     1      -1.508   1.158  -2.738  0.00  0.00    +0.382 N 
ATOM     26  H   UNL     1      -1.211   1.579  -1.870  0.00  0.00    -0.085 HD
ATOM     27  H   UNL     1      -0.950   1.520  -3.496  0.00  0.00    -0.085 HD
BRANCH  25  28
ATOM     28  C   UNL     1      -2.923   1.473  -2.977  0.00  0.00    -0.086 C 
ATOM     29  C   UNL     1      -3.100   2.990  -3.060  0.00  0.00    -0.017 C 
ENDBRANCH  25  28
ENDBRANCH  24  25
ENDBRANCH   2  24
TORSDOF 7
