REMARK  Name = ZINC36593653
REMARK  13 active torsions:
REMARK  status: ('A' for Active; 'I' for Inactive)
REMARK    1  A    between atoms: C_1  and  C_2
REMARK    2  A    between atoms: C_2  and  C_3
REMARK    3  A    between atoms: C_3  and  C_5
REMARK    4  A    between atoms: C_3  and  C_6
REMARK    5  A    between atoms: C_6  and  C_8
REMARK    6  A    between atoms: C_6  and  N_12
REMARK    7  A    between atoms: C_8  and  O_10
REMARK    8  A    between atoms: O_10  and  C_11
REMARK    9  A    between atoms: C_24  and  C_26
REMARK   10  A    between atoms: C_28  and  O_34
REMARK   11  A    between atoms: C_30  and  O_32
REMARK   12  A    between atoms: O_32  and  C_33
REMARK   13  A    between atoms: O_34  and  C_35
REMARK                            x       y       z     vdW  Elec       q    Type
REMARK                         _______ _______ _______ _____ _____    ______ ____
ROOT
ATOM      1  N   UNL     1       1.520  -3.959   1.299  0.00  0.00    -0.286 N 
ATOM      2  C   UNL     1       1.521  -3.022   2.267  0.00  0.00    +0.304 C 
ATOM      3  O   UNL     1       0.902  -1.986   2.111  0.00  0.00    -0.253 OA
ATOM      4  N   UNL     1       2.207  -3.232   3.408  0.00  0.00    -0.273 N 
ATOM      5  C   UNL     1       2.132  -2.272   4.519  0.00  0.00    +0.116 C 
ATOM      6  C   UNL     1       1.479  -2.954   5.729  0.00  0.00    +0.074 C 
ATOM      7  C   UNL     1       2.087  -4.321   5.902  0.00  0.00    +0.040 A 
ATOM      8  C   UNL     1       2.781  -4.983   4.951  0.00  0.00    +0.062 A 
ATOM      9  N   UNL     1       3.161  -6.158   5.457  0.00  0.00    -0.348 N 
ATOM     10  C   UNL     1       2.733  -6.252   6.689  0.00  0.00    +0.171 A 
ATOM     11  N   UNL     1       2.059  -5.122   7.003  0.00  0.00    -0.349 N 
ATOM     12  H   UNL     1       1.635  -4.921   7.852  0.00  0.00    +0.166 HD
ATOM     13  C   UNL     1       3.046  -4.432   3.574  0.00  0.00    +0.156 C 
ATOM     14  H   UNL     1       2.076  -4.749   1.388  0.00  0.00    +0.151 HD
ATOM     15  H   UNL     1       3.673  -6.834   4.986  0.00  0.00    +0.167 HD
ENDROOT
BRANCH  13  16
ATOM     16  C   UNL     1       4.501  -4.063   3.446  0.00  0.00    -0.014 A 
ATOM     17  C   UNL     1       5.067  -3.171   4.337  0.00  0.00    +0.051 A 
ATOM     18  C   UNL     1       6.407  -2.829   4.221  0.00  0.00    +0.124 A 
ATOM     19  C   UNL     1       7.178  -3.383   3.210  0.00  0.00    +0.091 A 
ATOM     20  C   UNL     1       6.607  -4.277   2.318  0.00  0.00    +0.124 A 
ATOM     21  C   UNL     1       5.268  -4.620   2.441  0.00  0.00    +0.051 A 
BRANCH  20  22
ATOM     22  O   UNL     1       7.360  -4.822   1.326  0.00  0.00    -0.495 OA
ATOM     23  C   UNL     1       8.732  -4.428   1.262  0.00  0.00    +0.277 C 
ENDBRANCH  20  22
BRANCH  18  24
ATOM     24  O   UNL     1       6.964  -1.952   5.097  0.00  0.00    -0.495 OA
ATOM     25  C   UNL     1       8.348  -1.646   4.918  0.00  0.00    +0.277 C 
ENDBRANCH  18  24
ENDBRANCH  13  16
BRANCH   1  26
ATOM     26  C   UNL     1       0.681  -3.785   0.111  0.00  0.00    +0.186 C 
BRANCH  26  27
ATOM     27  C   UNL     1       0.363  -5.154  -0.494  0.00  0.00    +0.017 C 
ATOM     28  C   UNL     1       1.668  -5.861  -0.868  0.00  0.00    +0.010 C 
BRANCH  27  30
ATOM     29  C   UNL     1      -0.842  -7.311  -0.124  0.00  0.00    +0.004 C 
ATOM     30  C   UNL     1      -0.401  -5.999   0.527  0.00  0.00    +0.002 C 
ENDBRANCH  27  30
ENDBRANCH  26  27
BRANCH  26  31
ATOM     31  C   UNL     1       1.413  -2.945  -0.903  0.00  0.00    +0.328 C 
ATOM     32  O   UNL     1       2.599  -2.750  -0.783  0.00  0.00    -0.249 OA
BRANCH  31  33
ATOM     33  O   UNL     1       0.747  -2.412  -1.940  0.00  0.00    -0.467 OA
ATOM     34  C   UNL     1       1.504  -1.626  -2.863  0.00  0.00    +0.280 C 
ENDBRANCH  31  33
ENDBRANCH  26  31
ENDBRANCH   1  26
TORSDOF 8
