REMARK  Name = ZINC08765038
REMARK  2 active torsions:
REMARK  status: ('A' for Active; 'I' for Inactive)
REMARK    1  A    between atoms: C_14  and  N_45
REMARK    2  A    between atoms: N_19  and  C_22
REMARK                            x       y       z     vdW  Elec       q    Type
REMARK                         _______ _______ _______ _____ _____    ______ ____
ROOT
ATOM      1  C   UNL     1       2.640   7.920  -0.141  0.00  0.00    +0.001 A 
ATOM      2  C   UNL     1       3.674   8.183  -1.025  0.00  0.00    +0.002 A 
ATOM      3  C   UNL     1       4.062   7.279  -1.998  0.00  0.00    +0.026 A 
ATOM      4  C   UNL     1       3.361   6.076  -2.057  0.00  0.00    +0.047 A 
ATOM      5  C   UNL     1       2.302   5.812  -1.150  0.00  0.00    +0.001 A 
ATOM      6  C   UNL     1       1.932   6.744  -0.176  0.00  0.00    +0.010 A 
ATOM      7  C   UNL     1       1.806   4.496  -1.490  0.00  0.00    -0.036 A 
ATOM      8  C   UNL     1       2.548   4.048  -2.529  0.00  0.00    +0.017 A 
ATOM      9  N   UNL     1       3.480   4.987  -2.874  0.00  0.00    -0.358 N 
ATOM     10  H   UNL     1       4.127   4.895  -3.591  0.00  0.00    +0.166 HD
ATOM     11  C   UNL     1       2.328   2.696  -3.168  0.00  0.00    +0.035 C 
ATOM     12  C   UNL     1       1.474   1.852  -2.213  0.00  0.00    -0.071 C 
ATOM     13  C   UNL     1       0.684   3.709  -0.863  0.00  0.00    -0.040 C 
ATOM     14  N   UNL     1       0.288   2.639  -1.810  0.00  0.00    +0.391 N 
ATOM     15  H   UNL     1      -0.125   3.070  -2.645  0.00  0.00    -0.080 HD
ENDROOT
BRANCH  14  16
ATOM     16  C   UNL     1      -0.714   1.754  -1.181  0.00  0.00    +0.029 C 
ATOM     17  C   UNL     1      -0.113   0.956  -0.006  0.00  0.00    +0.091 C 
ATOM     18  C   UNL     1      -0.924   1.411   1.188  0.00  0.00    +0.225 C 
ATOM     19  O   UNL     1      -0.774   1.024   2.327  0.00  0.00    -0.275 OA
ATOM     20  N   UNL     1      -1.834   2.309   0.782  0.00  0.00    -0.212 N 
ATOM     21  C   UNL     1      -1.804   2.578  -0.529  0.00  0.00    +0.213 C 
ATOM     22  O   UNL     1      -2.534   3.357  -1.104  0.00  0.00    -0.277 OA
BRANCH  20  23
ATOM     23  C   UNL     1      -2.742   2.919   1.660  0.00  0.00    +0.045 A 
ATOM     24  C   UNL     1      -2.284   3.798   2.633  0.00  0.00    +0.024 A 
ATOM     25  C   UNL     1      -3.180   4.397   3.497  0.00  0.00    +0.003 A 
ATOM     26  C   UNL     1      -4.532   4.124   3.393  0.00  0.00    +0.015 A 
ATOM     27  C   UNL     1      -4.991   3.249   2.424  0.00  0.00    +0.020 A 
ATOM     28  C   UNL     1      -4.099   2.650   1.555  0.00  0.00    +0.039 A 
ATOM     29 BR   UNL     1      -6.840   2.878   2.286  0.00  0.00    -0.050 Br
ENDBRANCH  20  23
ENDBRANCH  14  16
TORSDOF 2
