REMARK  Name = ZINC13009760
REMARK  11 active torsions:
REMARK  status: ('A' for Active; 'I' for Inactive)
REMARK    1  A    between atoms: C_1  and  N_2
REMARK    2  A    between atoms: N_2  and  C_3
REMARK    3  A    between atoms: N_2  and  C_4
REMARK    4  A    between atoms: C_4  and  C_6
REMARK    5  A    between atoms: C_4  and  C_31
REMARK    6  A    between atoms: C_6  and  N_7
REMARK    7  A    between atoms: C_8  and  C_10
REMARK    8  A    between atoms: C_10  and  C_11
REMARK    9  A    between atoms: C_11  and  C_12
REMARK   10  A    between atoms: N_15  and  C_24
REMARK   11  A    between atoms: C_24  and  C_25
REMARK                            x       y       z     vdW  Elec       q    Type
REMARK                         _______ _______ _______ _____ _____    ______ ____
ROOT
ATOM      1  C   UNL     1      -2.360   5.806  -3.578  0.00  0.00    +0.107 A 
ATOM      2  C   UNL     1      -2.904   6.602  -4.684  0.00  0.00    +0.273 A 
ATOM      3  O   UNL     1      -3.586   6.075  -5.545  0.00  0.00    -0.266 OA
ATOM      4  N   UNL     1      -2.639   7.925  -4.737  0.00  0.00    -0.301 N 
ATOM      5  C   UNL     1      -1.863   8.492  -3.745  0.00  0.00    +0.071 A 
ATOM      6  C   UNL     1      -1.573   9.853  -3.771  0.00  0.00    +0.029 A 
ATOM      7  C   UNL     1      -0.798  10.408  -2.777  0.00  0.00    +0.022 A 
ATOM      8  C   UNL     1      -0.301   9.618  -1.746  0.00  0.00    +0.043 A 
ATOM      9  C   UNL     1      -0.573   8.281  -1.701  0.00  0.00    +0.049 A 
ATOM     10  C   UNL     1      -1.361   7.692  -2.702  0.00  0.00    +0.089 A 
ATOM     11  N   UNL     1      -1.635   6.374  -2.657  0.00  0.00    -0.245 NA
ATOM     12 CL   UNL     1       0.673  10.339  -0.504  0.00  0.00    -0.083 Cl
ENDROOT
BRANCH   1  13
ATOM     13  C   UNL     1      -2.646   4.329  -3.504  0.00  0.00    +0.070 C 
BRANCH  13  14
ATOM     14  C   UNL     1      -1.974   3.741  -2.262  0.00  0.00    +0.102 C 
BRANCH  14  16
ATOM     15  N   UNL     1      -1.766   1.531  -1.169  0.00  0.00    -0.317 N 
ATOM     16  C   UNL     1      -2.260   2.263  -2.188  0.00  0.00    +0.213 C 
ATOM     17  O   UNL     1      -2.935   1.732  -3.045  0.00  0.00    -0.276 OA
ATOM     18  H   UNL     1      -1.227   1.956  -0.484  0.00  0.00    +0.149 HD
BRANCH  15  19
ATOM     19  C   UNL     1      -2.044   0.095  -1.098  0.00  0.00    +0.093 C 
BRANCH  19  20
ATOM     20  C   UNL     1      -1.281  -0.514   0.081  0.00  0.00    -0.021 C 
BRANCH  20  21
ATOM     21  C   UNL     1      -1.799   0.070   1.370  0.00  0.00    -0.059 A 
ATOM     22  C   UNL     1      -2.967  -0.414   1.928  0.00  0.00    +0.002 A 
ATOM     23  C   UNL     1      -3.442   0.122   3.111  0.00  0.00    +0.000 A 
ATOM     24  C   UNL     1      -2.748   1.141   3.735  0.00  0.00    +0.000 A 
ATOM     25  C   UNL     1      -1.579   1.625   3.178  0.00  0.00    +0.000 A 
ATOM     26  C   UNL     1      -1.102   1.086   1.997  0.00  0.00    +0.002 A 
ENDBRANCH  20  21
BRANCH  20  28
ATOM     27  C   UNL     1      -0.970  -2.540  -1.166  0.00  0.00    -0.096 C 
ATOM     28  N   UNL     1      -1.476  -1.970   0.090  0.00  0.00    +0.382 N 
ATOM     29  C   UNL     1      -0.744  -2.555   1.222  0.00  0.00    -0.096 C 
ATOM     30  H   UNL     1      -2.459  -2.178   0.182  0.00  0.00    -0.082 HD
ENDBRANCH  20  28
ENDBRANCH  19  20
ENDBRANCH  15  19
ENDBRANCH  14  16
ENDBRANCH  13  14
ENDBRANCH   1  13
BRANCH   4  31
ATOM     31  C   UNL     1      -3.167   8.747  -5.829  0.00  0.00    +0.160 C 
BRANCH  31  32
ATOM     32  C   UNL     1      -4.517   9.293  -5.440  0.00  0.00    -0.028 A 
ATOM     33  C   UNL     1      -5.662   8.574  -5.728  0.00  0.00    +0.005 A 
ATOM     34  C   UNL     1      -6.900   9.075  -5.371  0.00  0.00    +0.000 A 
ATOM     35  C   UNL     1      -6.993  10.293  -4.725  0.00  0.00    +0.000 A 
ATOM     36  C   UNL     1      -5.848  11.011  -4.436  0.00  0.00    +0.000 A 
ATOM     37  C   UNL     1      -4.609  10.509  -4.789  0.00  0.00    +0.005 A 
ENDBRANCH  31  32
ENDBRANCH   4  31
TORSDOF 9
