REMARK  Name = ZINC63991030
REMARK  10 active torsions:
REMARK  status: ('A' for Active; 'I' for Inactive)
REMARK    1  A    between atoms: C_1  and  C_2
REMARK    2  A    between atoms: C_4  and  C_36
REMARK    3  A    between atoms: C_8  and  C_12
REMARK    4  A    between atoms: C_12  and  S_13
REMARK    5  A    between atoms: S_13  and  C_14
REMARK    6  A    between atoms: C_14  and  C_16
REMARK    7  A    between atoms: C_14  and  C_17
REMARK    8  A    between atoms: N_19  and  C_20
REMARK    9  A    between atoms: C_25  and  N_26
REMARK   10  A    between atoms: C_29  and  C_32
REMARK                            x       y       z     vdW  Elec       q    Type
REMARK                         _______ _______ _______ _____ _____    ______ ____
ROOT
ATOM      1  C   UNL     1       8.305  -5.720  -1.706  0.00  0.00    +0.230 C 
ATOM      2  O   UNL     1       8.245  -5.258  -2.826  0.00  0.00    -0.274 OA
ATOM      3  N   UNL     1       9.030  -6.832  -1.474  0.00  0.00    -0.283 N 
ATOM      4  H   UNL     1       9.131  -7.165  -0.569  0.00  0.00    +0.155 HD
ENDROOT
BRANCH   3   5
ATOM      5  C   UNL     1       9.640  -7.507  -2.541  0.00  0.00    +0.055 A 
ATOM      6  C   UNL     1      10.136  -6.794  -3.622  0.00  0.00    +0.025 A 
ATOM      7  C   UNL     1      10.737  -7.461  -4.673  0.00  0.00    +0.002 A 
ATOM      8  C   UNL     1      10.844  -8.840  -4.651  0.00  0.00    +0.002 A 
ATOM      9  C   UNL     1      10.352  -9.558  -3.578  0.00  0.00    +0.025 A 
ATOM     10  C   UNL     1       9.753  -8.896  -2.516  0.00  0.00    +0.051 A 
BRANCH  10  11
ATOM     11  N   UNL     1       9.260  -9.621  -1.426  0.00  0.00    -0.328 N 
ATOM     12  C   UNL     1       7.876 -10.116  -1.421  0.00  0.00    +0.106 C 
ATOM     13  C   UNL     1       7.185  -9.636  -0.141  0.00  0.00    +0.031 C 
ATOM     14  C   UNL     1       8.011 -10.067   1.073  0.00  0.00    +0.078 C 
ATOM     15  C   UNL     1       9.398  -9.424   1.002  0.00  0.00    +0.031 C 
ATOM     16  C   UNL     1      10.116  -9.907  -0.267  0.00  0.00    +0.106 C 
BRANCH  14  17
ATOM     17  C   UNL     1       7.317  -9.625   2.335  0.00  0.00    +0.214 C 
ATOM     18  O   UNL     1       6.265  -9.025   2.270  0.00  0.00    -0.276 OA
ATOM     19  N   UNL     1       7.865  -9.898   3.536  0.00  0.00    -0.329 N 
ATOM     20  H   UNL     1       8.706 -10.378   3.588  0.00  0.00    +0.145 HD
ATOM     21  H   UNL     1       7.418  -9.613   4.348  0.00  0.00    +0.145 HD
ENDBRANCH  14  17
ENDBRANCH  10  11
ENDBRANCH   3   5
BRANCH   1  22
ATOM     22  C   UNL     1       7.567  -5.052  -0.575  0.00  0.00    +0.130 C 
ATOM     23  C   UNL     1       8.514  -4.103   0.162  0.00  0.00    +0.029 C 
BRANCH  22  24
ATOM     24  S   UNL     1       6.164  -4.113  -1.239  0.00  0.00    -0.141 S 
BRANCH  24  25
ATOM     25  C   UNL     1       5.304  -3.506   0.238  0.00  0.00    +0.143 C 
BRANCH  25  32
ATOM     26  C   UNL     1       0.037   1.582   0.033  0.00  0.00    +0.024 C 
ATOM     27  C   UNL     1       0.049   0.052   0.028  0.00  0.00    +0.076 C 
ATOM     28  C   UNL     1       0.807  -0.480  -1.167  0.00  0.00    -0.045 C 
ATOM     29  C   UNL     1       1.903  -1.218  -0.932  0.00  0.00    +0.071 C 
ATOM     30  C   UNL     1       2.283  -1.454   0.477  0.00  0.00    +0.111 C 
ATOM     31  N   UNL     1       3.344  -2.168   0.770  0.00  0.00    -0.227 NA
ATOM     32  C   UNL     1       4.102  -2.697  -0.178  0.00  0.00    +0.133 C 
ATOM     33  N   UNL     1       3.862  -2.555  -1.459  0.00  0.00    -0.161 NA
ATOM     34  C   UNL     1       2.822  -1.857  -1.928  0.00  0.00    +0.271 C 
ATOM     35  O   UNL     1       2.629  -1.744  -3.126  0.00  0.00    -0.268 OA
ATOM     36  S   UNL     1       1.047  -0.603   1.427  0.00  0.00    -0.098 S 
ATOM     37  C   UNL     1       0.348  -0.192  -2.573  0.00  0.00    +0.041 C 
ENDBRANCH  25  32
ENDBRANCH  24  25
ENDBRANCH  22  24
ENDBRANCH   1  22
TORSDOF 7
