REMARK  Name = ZINC01330246
REMARK  6 active torsions:
REMARK  status: ('A' for Active; 'I' for Inactive)
REMARK    1  A    between atoms: C_1  and  C_2
REMARK    2  A    between atoms: C_9  and  C_14
REMARK    3  A    between atoms: C_15  and  N_24
REMARK    4  A    between atoms: C_17  and  C_23
REMARK    5  A    between atoms: N_24  and  C_25
REMARK    6  A    between atoms: C_25  and  C_26
REMARK                            x       y       z     vdW  Elec       q    Type
REMARK                         _______ _______ _______ _____ _____    ______ ____
ROOT
ATOM      1  C   UNL     1      -0.417   1.519   3.629  0.00  0.00    +0.117 A 
ATOM      2  C   UNL     1      -0.022   1.200   2.344  0.00  0.00    +0.132 A 
ATOM      3  N   UNL     1       1.171   0.541   2.450  0.00  0.00    -0.285 N 
ATOM      4  C   UNL     1       2.013   0.004   1.513  0.00  0.00    +0.024 A 
ATOM      5  C   UNL     1       3.155  -0.607   1.887  0.00  0.00    +0.021 A 
ATOM      6  C   UNL     1       3.498  -0.702   3.248  0.00  0.00    +0.005 A 
ATOM      7  C   UNL     1       2.672  -0.174   4.191  0.00  0.00    +0.047 A 
ATOM      8  C   UNL     1       1.480   0.464   3.789  0.00  0.00    +0.140 A 
ATOM      9  N   UNL     1       0.516   1.051   4.479  0.00  0.00    -0.226 NA
ATOM     10  C   UNL     1       1.661   0.097   0.051  0.00  0.00    +0.064 C 
ENDROOT
BRANCH   1  19
ATOM     11  C   UNL     1      -7.513   1.540   5.731  0.00  0.00    +0.044 C 
ATOM     12  C   UNL     1      -6.252   2.281   5.368  0.00  0.00    -0.050 A 
ATOM     13  C   UNL     1      -6.241   3.670   5.383  0.00  0.00    +0.005 A 
ATOM     14  C   UNL     1      -5.098   4.366   5.055  0.00  0.00    +0.026 A 
ATOM     15  C   UNL     1      -3.942   3.675   4.703  0.00  0.00    +0.049 A 
ATOM     16  C   UNL     1      -3.955   2.268   4.687  0.00  0.00    -0.001 A 
ATOM     17  C   UNL     1      -5.130   1.582   5.026  0.00  0.00    +0.013 A 
ATOM     18  C   UNL     1      -2.787   1.552   4.325  0.00  0.00    +0.025 A 
ATOM     19  C   UNL     1      -1.651   2.243   4.005  0.00  0.00    +0.069 A 
ATOM     20  C   UNL     1      -1.669   3.710   4.031  0.00  0.00    +0.259 A 
ATOM     21  O   UNL     1      -0.664   4.335   3.743  0.00  0.00    -0.267 OA
ATOM     22  N   UNL     1      -2.793   4.367   4.373  0.00  0.00    -0.322 N 
ATOM     23  H   UNL     1      -2.796   5.367   4.388  0.00  0.00    +0.169 HD
ENDBRANCH   1  19
BRANCH   2  24
ATOM     24  N   UNL     1      -0.706   1.499   1.166  0.00  0.00    -0.326 N 
ATOM     25  H   UNL     1      -0.336   2.332   0.734  0.00  0.00    +0.148 HD
BRANCH  24  26
ATOM     26  C   UNL     1      -2.148   1.630   1.413  0.00  0.00    +0.134 C 
BRANCH  26  27
ATOM     27  C   UNL     1      -2.884   1.767   0.078  0.00  0.00    +0.135 C 
ATOM     28  C   UNL     1      -4.393   1.993   0.317  0.00  0.00    +0.035 C 
ATOM     29  C   UNL     1      -5.076   1.201  -0.821  0.00  0.00    +0.031 C 
ATOM     30  C   UNL     1      -3.898   0.591  -1.612  0.00  0.00    +0.160 C 
ATOM     31  O   UNL     1      -2.806   0.532  -0.667  0.00  0.00    -0.375 OA
ENDBRANCH  26  27
ENDBRANCH  24  26
ENDBRANCH   2  24
TORSDOF 4
