REMARK  Name = ZINC20038297
REMARK  6 active torsions:
REMARK  status: ('A' for Active; 'I' for Inactive)
REMARK    1  A    between atoms: C_1  and  C_2
REMARK    2  A    between atoms: C_3  and  C_35
REMARK    3  A    between atoms: C_19  and  C_20
REMARK    4  A    between atoms: C_23  and  C_25
REMARK    5  A    between atoms: C_35  and  O_37
REMARK    6  A    between atoms: O_37  and  C_38
REMARK                            x       y       z     vdW  Elec       q    Type
REMARK                         _______ _______ _______ _____ _____    ______ ____
ROOT
ATOM      1  C   UNL     1      -0.520   1.187   3.893  0.00  0.00    +0.041 C 
ATOM      2  C   UNL     1       0.092   1.649   2.569  0.00  0.00    +0.121 C 
ATOM      3  C   UNL     1      -0.378   2.961   1.899  0.00  0.00    +0.177 C 
ATOM      4  C   UNL     1      -0.708   1.586   1.299  0.00  0.00    +0.176 C 
ATOM      5  C   UNL     1      -0.013   1.086   0.008  0.00  0.00    +0.173 C 
ATOM      6  C   UNL     1      -0.981   1.574  -1.003  0.00  0.00    +0.021 A 
ATOM      7  C   UNL     1      -0.872   1.872  -2.342  0.00  0.00    +0.009 A 
ATOM      8  C   UNL     1      -2.021   2.302  -2.996  0.00  0.00    +0.001 A 
ATOM      9  C   UNL     1      -3.224   2.424  -2.331  0.00  0.00    +0.004 A 
ATOM     10  C   UNL     1      -3.329   2.134  -1.034  0.00  0.00    +0.046 A 
ATOM     11  C   UNL     1      -2.199   1.709  -0.345  0.00  0.00    +0.127 A 
ATOM     12  O   UNL     1      -2.079   1.380   0.974  0.00  0.00    -0.480 OA
ATOM     13  N   UNL     1       1.360   1.594  -0.002  0.00  0.00    -0.275 N 
ATOM     14  C   UNL     1       2.005   1.997  -1.097  0.00  0.00    +0.268 A 
ATOM     15  O   UNL     1       1.414   2.153  -2.150  0.00  0.00    -0.266 OA
ATOM     16  C   UNL     1       3.448   2.245  -0.998  0.00  0.00    +0.083 A 
ATOM     17  C   UNL     1       4.339   2.573  -1.977  0.00  0.00    +0.066 C 
ATOM     18  S   UNL     1       3.723   2.005   0.751  0.00  0.00    -0.046 S 
ATOM     19  C   UNL     1       2.050   1.628   1.212  0.00  0.00    +0.173 A 
ATOM     20  N   UNL     1       1.573   1.514   2.414  0.00  0.00    -0.249 NA
ENDROOT
BRANCH  17  21
ATOM     21  C   UNL     1       5.700   2.770  -1.656  0.00  0.00    +0.130 A 
ATOM     22  C   UNL     1       6.705   3.103  -2.546  0.00  0.00    +0.050 A 
ATOM     23  C   UNL     1       7.885   3.198  -1.804  0.00  0.00    +0.050 A 
ATOM     24  C   UNL     1       7.567   2.923  -0.504  0.00  0.00    +0.137 A 
ATOM     25  O   UNL     1       6.247   2.672  -0.426  0.00  0.00    -0.455 OA
BRANCH  24  26
ATOM     26  C   UNL     1       8.513   2.908   0.628  0.00  0.00    +0.036 A 
ATOM     27  C   UNL     1       8.218   3.613   1.798  0.00  0.00    +0.013 A 
ATOM     28  C   UNL     1       9.107   3.595   2.853  0.00  0.00    +0.001 A 
ATOM     29  C   UNL     1      10.289   2.882   2.754  0.00  0.00    +0.001 A 
ATOM     30  C   UNL     1      10.588   2.181   1.600  0.00  0.00    +0.021 A 
ATOM     31  C   UNL     1       9.706   2.185   0.538  0.00  0.00    +0.052 A 
ATOM     32 CL   UNL     1      10.080   1.300  -0.908  0.00  0.00    -0.083 Cl
ENDBRANCH  24  26
ENDBRANCH  17  21
BRANCH   3  33
ATOM     33  C   UNL     1      -1.498   3.722   2.560  0.00  0.00    +0.316 C 
ATOM     34  O   UNL     1      -2.615   3.262   2.575  0.00  0.00    -0.250 OA
BRANCH  33  35
ATOM     35  O   UNL     1      -1.254   4.912   3.132  0.00  0.00    -0.468 OA
ATOM     36  C   UNL     1      -2.380   5.589   3.750  0.00  0.00    +0.280 C 
ENDBRANCH  33  35
ENDBRANCH   3  33
TORSDOF 4
