REMARK  Name = ZINC40713642
REMARK  2 active torsions:
REMARK  status: ('A' for Active; 'I' for Inactive)
REMARK    1  A    between atoms: C_5  and  N_7
REMARK    2  A    between atoms: C_9  and  N_15
REMARK                            x       y       z     vdW  Elec       q    Type
REMARK                         _______ _______ _______ _____ _____    ______ ____
ROOT
ATOM      1  N   UNL     1       1.238  -2.078  -0.021  0.00  0.00    -0.297 N 
ATOM      2  C   UNL     1       0.048  -2.795   0.092  0.00  0.00    +0.144 A 
ATOM      3  C   UNL     1       0.085  -4.188   0.195  0.00  0.00    +0.066 A 
ATOM      4  C   UNL     1      -1.109  -4.886   0.307  0.00  0.00    +0.043 A 
ATOM      5  C   UNL     1      -2.298  -4.167   0.313  0.00  0.00    +0.038 A 
ATOM      6  C   UNL     1      -2.257  -2.791   0.208  0.00  0.00    +0.128 A 
ATOM      7  N   UNL     1      -1.107  -2.151   0.107  0.00  0.00    -0.237 NA
ATOM      8 BR   UNL     1      -3.956  -5.064   0.463  0.00  0.00    -0.049 Br
ATOM      9  H   UNL     1       2.089  -2.535   0.063  0.00  0.00    +0.154 HD
ENDROOT
BRANCH   1  14
ATOM     10  C   UNL     1       0.119   1.220  -1.195  0.00  0.00    +0.002 A 
ATOM     11  C   UNL     1       1.138   2.026  -0.721  0.00  0.00    +0.001 A 
ATOM     12  C   UNL     1       2.191   1.473  -0.015  0.00  0.00    +0.016 A 
ATOM     13  C   UNL     1       2.227   0.112   0.219  0.00  0.00    +0.035 A 
ATOM     14  C   UNL     1       1.204  -0.701  -0.256  0.00  0.00    +0.046 A 
ATOM     15  C   UNL     1       0.149  -0.141  -0.965  0.00  0.00    +0.024 A 
ATOM     16  I   UNL     1       3.822  -0.727   1.288  0.00  0.00    -0.042 I 
ENDBRANCH   1  14
BRANCH   3  17
ATOM     17  N   UNL     1       1.308  -4.869   0.183  0.00  0.00    -0.355 N 
ATOM     18  H   UNL     1       2.138  -4.374   0.104  0.00  0.00    +0.142 HD
ATOM     19  H   UNL     1       1.325  -5.836   0.255  0.00  0.00    +0.142 HD
ENDBRANCH   3  17
TORSDOF 2
