REMARK  Name = ZINC11114176
REMARK  5 active torsions:
REMARK  status: ('A' for Active; 'I' for Inactive)
REMARK    1  A    between atoms: C_4  and  C_7
REMARK    2  A    between atoms: C_15  and  C_18
REMARK    3  A    between atoms: C_18  and  O_19
REMARK    4  A    between atoms: O_19  and  C_20
REMARK    5  A    between atoms: C_25  and  C_26
REMARK                            x       y       z     vdW  Elec       q    Type
REMARK                         _______ _______ _______ _____ _____    ______ ____
ROOT
ATOM      1  C   UNL     1      -3.228  -5.434  -0.354  0.00  0.00    +0.340 C 
ATOM      2  O   UNL     1      -3.055  -6.665   0.356  0.00  0.00    -0.333 OA
ATOM      3  C   UNL     1      -1.875  -7.375  -0.032  0.00  0.00    +0.203 C 
ATOM      4  C   UNL     1      -0.701  -6.429  -0.031  0.00  0.00    +0.023 A 
ATOM      5  C   UNL     1       0.586  -6.936  -0.045  0.00  0.00    +0.047 A 
ATOM      6  C   UNL     1       1.670  -6.077  -0.049  0.00  0.00    +0.124 A 
ATOM      7  C   UNL     1       1.469  -4.707  -0.039  0.00  0.00    +0.049 A 
ATOM      8  C   UNL     1       0.185  -4.198  -0.024  0.00  0.00    +0.034 A 
ATOM      9  C   UNL     1      -0.903  -5.059  -0.013  0.00  0.00    +0.136 A 
ATOM     10  O   UNL     1      -2.164  -4.547   0.004  0.00  0.00    -0.459 OA
ATOM     11  F   UNL     1       2.926  -6.575  -0.062  0.00  0.00    -0.205 F 
ENDROOT
BRANCH   1  15
ATOM     12  C   UNL     1      -6.981  -3.686   0.698  0.00  0.00    +0.000 A 
ATOM     13  C   UNL     1      -6.941  -4.940   0.118  0.00  0.00    +0.000 A 
ATOM     14  C   UNL     1      -5.726  -5.506  -0.223  0.00  0.00    +0.010 A 
ATOM     15  C   UNL     1      -4.552  -4.817   0.017  0.00  0.00    +0.020 A 
ATOM     16  C   UNL     1      -4.591  -3.565   0.601  0.00  0.00    +0.010 A 
ATOM     17  C   UNL     1      -5.806  -2.997   0.937  0.00  0.00    +0.000 A 
ENDBRANCH   1  15
BRANCH   8  18
ATOM     18  C   UNL     1      -0.033  -2.707  -0.013  0.00  0.00    +0.268 C 
BRANCH  18  19
ATOM     19  O   UNL     1       1.231  -2.040  -0.021  0.00  0.00    -0.486 OA
BRANCH  19  20
ATOM     20  C   UNL     1       1.211  -0.683  -0.013  0.00  0.00    +0.133 A 
ATOM     21  C   UNL     1       0.002  -0.004   0.002  0.00  0.00    +0.048 A 
ATOM     22  C   UNL     1      -0.017   1.376   0.010  0.00  0.00    +0.023 A 
ATOM     23  C   UNL     1       1.170   2.094   0.002  0.00  0.00    +0.042 A 
ATOM     24  C   UNL     1       2.381   1.434  -0.013  0.00  0.00    +0.036 A 
ATOM     25  C   UNL     1       2.413   0.037  -0.021  0.00  0.00    +0.079 A 
ATOM     26 CL   UNL     1       1.131   3.829   0.012  0.00  0.00    -0.084 Cl
BRANCH  25  27
ATOM     27  C   UNL     1       3.705  -0.675  -0.038  0.00  0.00    +0.245 C 
ATOM     28  O   UNL     1       3.729  -1.890  -0.045  0.00  0.00    -0.270 OA
ATOM     29  N   UNL     1       4.859   0.022  -0.045  0.00  0.00    -0.325 N 
ATOM     30  H   UNL     1       4.839   0.992  -0.039  0.00  0.00    +0.145 HD
ATOM     31  H   UNL     1       5.708  -0.446  -0.056  0.00  0.00    +0.145 HD
ENDBRANCH  25  27
ENDBRANCH  19  20
ENDBRANCH  18  19
ENDBRANCH   8  18
TORSDOF 5
