REMARK  Name = ZINC39469892
REMARK  7 active torsions:
REMARK  status: ('A' for Active; 'I' for Inactive)
REMARK    1  A    between atoms: C_1  and  C_2
REMARK    2  A    between atoms: C_2  and  C_3
REMARK    3  A    between atoms: C_2  and  S_4
REMARK    4  A    between atoms: S_4  and  P_7
REMARK    5  A    between atoms: C_15  and  C_26
REMARK    6  A    between atoms: C_16  and  O_25
REMARK    7  A    between atoms: C_31  and  O_32
REMARK                            x       y       z     vdW  Elec       q    Type
REMARK                         _______ _______ _______ _____ _____    ______ ____
ROOT
ATOM      1  P   UNL     1      -2.582   0.150  -1.747  0.00  0.00    +0.392 P 
ATOM      2  O   UNL     1      -2.598   1.629  -1.699  0.00  0.00    -0.249 OA
ATOM      3  N   UNL     1      -4.114  -0.436  -1.928  0.00  0.00    -0.274 NA
ATOM      4  N   UNL     1      -4.259  -1.720  -2.410  0.00  0.00    +0.398 N 
ATOM      5  C   UNL     1      -5.706  -1.932  -2.577  0.00  0.00    -0.046 C 
ATOM      6  C   UNL     1      -5.995  -3.336  -3.091  0.00  0.00    +0.005 C 
ATOM      7  C   UNL     1      -5.485  -4.368  -2.121  0.00  0.00    -0.013 C 
ATOM      8  C   UNL     1      -5.227  -5.612  -2.558  0.00  0.00    +0.023 C 
ATOM      9  C   UNL     1      -5.463  -5.941  -3.983  0.00  0.00    +0.121 C 
ATOM     10  C   UNL     1      -5.502  -4.963  -4.888  0.00  0.00    +0.023 C 
ATOM     11  C   UNL     1      -5.301  -3.536  -4.442  0.00  0.00    +0.019 C 
ATOM     12  C   UNL     1      -3.806  -3.270  -4.265  0.00  0.00    -0.002 C 
ATOM     13  C   UNL     1      -3.571  -1.866  -3.695  0.00  0.00    -0.020 C 
ATOM     14  C   UNL     1      -2.055  -1.689  -3.545  0.00  0.00    +0.158 C 
ATOM     15  O   UNL     1      -1.771  -0.364  -3.061  0.00  0.00    -0.304 OA
ATOM     16  H   UNL     1      -4.888   0.104  -1.703  0.00  0.00    +0.112 HD
ATOM     17  H   UNL     1      -3.881  -2.378  -1.746  0.00  0.00    -0.055 HD
ENDROOT
BRANCH   8  18
ATOM     18  C   UNL     1      -4.713  -6.643  -1.625  0.00  0.00    +0.027 A 
ATOM     19  C   UNL     1      -5.568  -7.241  -0.702  0.00  0.00    +0.012 A 
ATOM     20  C   UNL     1      -5.084  -8.200   0.164  0.00  0.00    +0.001 A 
ATOM     21  C   UNL     1      -3.751  -8.570   0.120  0.00  0.00    +0.004 A 
ATOM     22  C   UNL     1      -2.894  -7.983  -0.790  0.00  0.00    +0.046 A 
ATOM     23  C   UNL     1      -3.368  -7.023  -1.671  0.00  0.00    +0.125 A 
BRANCH  23  24
ATOM     24  O   UNL     1      -2.527  -6.449  -2.571  0.00  0.00    -0.506 OA
ATOM     25  H   UNL     1      -2.086  -5.653  -2.245  0.00  0.00    +0.292 HD
ENDBRANCH  23  24
ENDBRANCH   8  18
BRANCH   1  26
ATOM     26  S   UNL     1      -1.700  -0.632   0.015  0.00  0.00    +0.056 S 
ATOM     27  O   UNL     1      -1.703  -2.041  -0.172  0.00  0.00    -0.164 OA
ATOM     28  O   UNL     1      -2.431  -0.041   1.080  0.00  0.00    -0.164 OA
BRANCH  26  30
ATOM     29  C   UNL     1      -0.019   1.526   0.010  0.00  0.00    +0.032 C 
ATOM     30  C   UNL     1       0.002  -0.004   0.002  0.00  0.00    +0.135 C 
ATOM     31  C   UNL     1       0.742  -0.511   1.242  0.00  0.00    +0.032 C 
ENDBRANCH  26  30
ENDBRANCH   1  26
BRANCH   9  32
ATOM     32  O   UNL     1      -5.640  -7.233  -4.365  0.00  0.00    -0.506 OA
ATOM     33  H   UNL     1      -5.787  -7.346  -5.314  0.00  0.00    +0.292 HD
ENDBRANCH   9  32
TORSDOF 5
