REMARK  Name = ZINC66119870
REMARK  7 active torsions:
REMARK  status: ('A' for Active; 'I' for Inactive)
REMARK    1  A    between atoms: C_4  and  C_23
REMARK    2  A    between atoms: C_5  and  C_7
REMARK    3  A    between atoms: C_7  and  N_8
REMARK    4  A    between atoms: C_15  and  C_18
REMARK    5  A    between atoms: C_18  and  C_19
REMARK    6  A    between atoms: C_19  and  C_20
REMARK    7  A    between atoms: C_23  and  N_24
REMARK                            x       y       z     vdW  Elec       q    Type
REMARK                         _______ _______ _______ _____ _____    ______ ____
ROOT
ATOM      1  N   UNL     1       1.371  -1.805   2.450  0.00  0.00    -0.295 N 
ATOM      2  C   UNL     1       1.351  -2.958   3.148  0.00  0.00    +0.302 C 
ATOM      3  O   UNL     1       1.201  -4.016   2.570  0.00  0.00    -0.253 OA
ATOM      4  N   UNL     1       1.498  -2.936   4.488  0.00  0.00    -0.285 N 
ATOM      5  C   UNL     1       1.744  -1.671   5.194  0.00  0.00    +0.109 C 
ATOM      6  C   UNL     1       3.000  -1.825   6.057  0.00  0.00    +0.019 C 
ATOM      7  C   UNL     1       2.837  -3.037   6.977  0.00  0.00    +0.006 C 
ATOM      8  C   UNL     1       2.674  -4.302   6.133  0.00  0.00    +0.007 C 
ATOM      9  C   UNL     1       1.408  -4.176   5.271  0.00  0.00    +0.112 C 
ATOM     10  H   UNL     1       1.549  -0.966   2.903  0.00  0.00    +0.151 HD
ENDROOT
BRANCH   1  11
ATOM     11  C   UNL     1       1.122  -1.819   1.006  0.00  0.00    +0.141 C 
BRANCH  11  16
ATOM     12  C   UNL     1       0.112   1.558  -0.346  0.00  0.00    +0.000 A 
ATOM     13  C   UNL     1       1.342   2.165  -0.518  0.00  0.00    +0.000 A 
ATOM     14  C   UNL     1       2.500   1.483  -0.197  0.00  0.00    +0.002 A 
ATOM     15  C   UNL     1       2.429   0.194   0.297  0.00  0.00    -0.059 A 
ATOM     16  C   UNL     1       1.199  -0.413   0.469  0.00  0.00    -0.029 A 
ATOM     17  C   UNL     1       0.041   0.268   0.147  0.00  0.00    +0.005 A 
BRANCH  15  18
ATOM     18  C   UNL     1       3.692  -0.550   0.646  0.00  0.00    -0.043 C 
BRANCH  18  19
ATOM     19  N   UNL     1       4.857   0.223   0.195  0.00  0.00    +0.382 N 
ATOM     20  C   UNL     1       4.864   0.282  -1.272  0.00  0.00    -0.078 C 
ATOM     21  C   UNL     1       6.029   1.154  -1.745  0.00  0.00    -0.019 C 
ATOM     22  C   UNL     1       7.346   0.549  -1.250  0.00  0.00    -0.004 C 
ATOM     23  C   UNL     1       7.298   0.424   0.275  0.00  0.00    -0.019 C 
ATOM     24  C   UNL     1       6.086  -0.421   0.673  0.00  0.00    -0.078 C 
ATOM     25  H   UNL     1       4.802   1.159   0.567  0.00  0.00    -0.081 HD
ENDBRANCH  18  19
ENDBRANCH  15  18
ENDBRANCH  11  16
ENDBRANCH   1  11
BRANCH   8  26
ATOM     26  C   UNL     1       2.545  -5.518   7.053  0.00  0.00    +0.014 C 
BRANCH  26  27
ATOM     27  C   UNL     1       2.507  -6.794   6.210  0.00  0.00    +0.096 C 
BRANCH  27  28
ATOM     28  C   UNL     1       2.380  -7.991   7.117  0.00  0.00    +0.210 C 
ATOM     29  O   UNL     1       2.325  -7.838   8.319  0.00  0.00    -0.276 OA
ATOM     30  N   UNL     1       2.327  -9.231   6.592  0.00  0.00    -0.329 N 
ATOM     31  H   UNL     1       2.371  -9.354   5.631  0.00  0.00    +0.145 HD
ATOM     32  H   UNL     1       2.245 -10.002   7.176  0.00  0.00    +0.145 HD
ENDBRANCH  27  28
ENDBRANCH  26  27
ENDBRANCH   8  26
TORSDOF 7
