REMARK  Name = ZINC39689092
REMARK  8 active torsions:
REMARK  status: ('A' for Active; 'I' for Inactive)
REMARK    1  A    between atoms: C_1  and  C_2
REMARK    2  A    between atoms: C_2  and  O_4
REMARK    3  A    between atoms: O_4  and  C_5
REMARK    4  A    between atoms: C_10  and  C_11
REMARK    5  A    between atoms: C_15  and  C_24
REMARK    6  A    between atoms: N_26  and  C_27
REMARK    7  A    between atoms: C_27  and  C_28
REMARK    8  A    between atoms: N_31  and  C_34
REMARK                            x       y       z     vdW  Elec       q    Type
REMARK                         _______ _______ _______ _____ _____    ______ ____
ROOT
ATOM      1  C   UNL     1       0.144  -2.200  -3.465  0.00  0.00    +0.250 C 
ATOM      2  O   UNL     1       0.216  -0.989  -3.558  0.00  0.00    -0.270 OA
ATOM      3  N   UNL     1       0.115  -2.960  -4.578  0.00  0.00    -0.296 N 
ATOM      4  C   UNL     1       0.091  -4.439  -4.666  0.00  0.00    +0.121 C 
ATOM      5  C   UNL     1      -0.879  -4.745  -5.829  0.00  0.00    +0.100 C 
ATOM      6  C   UNL     1      -0.867  -3.474  -6.695  0.00  0.00    -0.004 C 
ATOM      7  C   UNL     1       0.093  -2.506  -5.989  0.00  0.00    +0.115 C 
ATOM      8  C   UNL     1      -2.265  -2.866  -6.760  0.00  0.00    -0.010 C 
ATOM      9  C   UNL     1      -2.240  -1.636  -7.671  0.00  0.00    -0.082 C 
ATOM     10  N   UNL     1      -1.792  -2.029  -9.013  0.00  0.00    +0.379 N 
ATOM     11  C   UNL     1      -0.413  -2.526  -8.955  0.00  0.00    -0.082 C 
ATOM     12  C   UNL     1      -0.360  -3.793  -8.098  0.00  0.00    -0.010 C 
ATOM     13  H   UNL     1      -2.396  -2.755  -9.368  0.00  0.00    -0.086 HD
ATOM     14  H   UNL     1      -1.835  -1.229  -9.627  0.00  0.00    -0.086 HD
ENDROOT
BRANCH   1  20
ATOM     15  C   UNL     1      -0.606  -2.217  -1.087  0.00  0.00    +0.144 A 
ATOM     16  C   UNL     1      -0.658  -2.826   0.158  0.00  0.00    +0.047 A 
ATOM     17  C   UNL     1      -0.022  -4.035   0.363  0.00  0.00    +0.004 A 
ATOM     18  C   UNL     1       0.670  -4.647  -0.669  0.00  0.00    +0.001 A 
ATOM     19  C   UNL     1       0.731  -4.055  -1.912  0.00  0.00    +0.017 A 
ATOM     20  C   UNL     1       0.088  -2.836  -2.135  0.00  0.00    +0.079 A 
BRANCH  15  21
ATOM     21  O   UNL     1      -1.230  -1.029  -1.290  0.00  0.00    -0.425 OA
BRANCH  21  23
ATOM     22  C   UNL     1      -3.269   0.236  -1.876  0.00  0.00    +0.136 C 
ATOM     23  C   UNL     1      -2.495  -1.050  -1.742  0.00  0.00    +0.309 C 
ATOM     24  O   UNL     1      -3.013  -2.101  -2.040  0.00  0.00    -0.251 OA
ENDBRANCH  21  23
ENDBRANCH  15  21
ENDBRANCH   1  20
BRANCH   5  25
ATOM     25  C   UNL     1      -0.389  -5.928  -6.624  0.00  0.00    +0.218 C 
ATOM     26  O   UNL     1       0.792  -6.206  -6.632  0.00  0.00    -0.275 OA
ATOM     27  N   UNL     1      -1.262  -6.677  -7.326  0.00  0.00    -0.315 N 
ATOM     28  H   UNL     1      -2.206  -6.455  -7.319  0.00  0.00    +0.149 HD
BRANCH  27  29
ATOM     29  C   UNL     1      -0.785  -7.827  -8.098  0.00  0.00    +0.107 C 
BRANCH  29  30
ATOM     30  C   UNL     1      -1.970  -8.499  -8.795  0.00  0.00    +0.003 C 
ATOM     31  C   UNL     1      -2.913  -9.092  -7.745  0.00  0.00    -0.014 C 
ATOM     32  C   UNL     1      -4.053  -9.831  -8.449  0.00  0.00    -0.078 C 
ATOM     33  N   UNL     1      -3.502 -10.910  -9.279  0.00  0.00    +0.382 N 
ATOM     34  C   UNL     1      -2.653 -10.343 -10.333  0.00  0.00    -0.078 C 
ATOM     35  C   UNL     1      -1.460  -9.624  -9.701  0.00  0.00    -0.014 C 
ATOM     36  H   UNL     1      -2.952 -11.529  -8.702  0.00  0.00    -0.081 HD
BRANCH  33  37
ATOM     37  C   UNL     1      -4.603 -11.665  -9.891  0.00  0.00    -0.069 C 
ATOM     38  C   UNL     1      -4.056 -12.889 -10.666  0.00  0.00    -0.015 C 
ATOM     39  C   UNL     1      -5.274 -13.845 -10.700  0.00  0.00    -0.002 C 
ATOM     40  C   UNL     1      -5.934 -13.666  -9.317  0.00  0.00    -0.002 C 
ATOM     41  C   UNL     1      -5.507 -12.280  -8.803  0.00  0.00    -0.015 C 
ENDBRANCH  33  37
ENDBRANCH  29  30
ENDBRANCH  27  29
ENDBRANCH   5  25
TORSDOF 7
