REMARK  Name = ZINC39464081
REMARK  5 active torsions:
REMARK  status: ('A' for Active; 'I' for Inactive)
REMARK    1  A    between atoms: C_4  and  C_7
REMARK    2  A    between atoms: C_7  and  P_8
REMARK    3  A    between atoms: C_16  and  O_31
REMARK    4  A    between atoms: C_17  and  C_24
REMARK    5  A    between atoms: C_29  and  O_30
REMARK                            x       y       z     vdW  Elec       q    Type
REMARK                         _______ _______ _______ _____ _____    ______ ____
ROOT
ATOM      1  P   UNL     1       4.260  -1.012   1.674  0.00  0.00    +0.289 P 
ATOM      2  O   UNL     1       4.474   0.272   2.378  0.00  0.00    -0.271 OA
ATOM      3  N   UNL     1       5.649  -1.908   1.677  0.00  0.00    -0.179 NA
ATOM      4  N   UNL     1       5.508  -3.264   1.481  0.00  0.00    -0.226 NA
ATOM      5  C   UNL     1       6.827  -3.914   1.530  0.00  0.00    +0.108 C 
ATOM      6  C   UNL     1       6.695  -5.336   0.984  0.00  0.00    +0.052 C 
ATOM      7  C   UNL     1       5.572  -6.049   1.694  0.00  0.00    -0.038 A 
ATOM      8  C   UNL     1       5.534  -7.434   1.641  0.00  0.00    +0.050 A 
ATOM      9  C   UNL     1       4.522  -8.133   2.276  0.00  0.00    +0.125 A 
ATOM     10  C   UNL     1       3.533  -7.432   2.974  0.00  0.00    +0.027 A 
ATOM     11  C   UNL     1       3.580  -6.043   3.021  0.00  0.00    +0.017 A 
ATOM     12  C   UNL     1       4.598  -5.353   2.381  0.00  0.00    -0.023 A 
ATOM     13  C   UNL     1       4.599  -3.849   2.465  0.00  0.00    +0.129 C 
ATOM     14  C   UNL     1       3.169  -3.338   2.265  0.00  0.00    +0.194 C 
ATOM     15  O   UNL     1       3.158  -1.910   2.465  0.00  0.00    -0.314 OA
ATOM     16  H   UNL     1       6.519  -1.500   1.812  0.00  0.00    +0.151 HD
ENDROOT
BRANCH  10  17
ATOM     17  C   UNL     1       2.442  -8.165   3.660  0.00  0.00    +0.027 A 
ATOM     18  C   UNL     1       1.125  -8.023   3.229  0.00  0.00    +0.012 A 
ATOM     19  C   UNL     1       0.113  -8.708   3.870  0.00  0.00    +0.001 A 
ATOM     20  C   UNL     1       0.401  -9.536   4.941  0.00  0.00    +0.004 A 
ATOM     21  C   UNL     1       1.705  -9.685   5.376  0.00  0.00    +0.046 A 
ATOM     22  C   UNL     1       2.731  -9.007   4.738  0.00  0.00    +0.125 A 
BRANCH  22  23
ATOM     23  O   UNL     1       4.013  -9.157   5.161  0.00  0.00    -0.506 OA
ATOM     24  H   UNL     1       4.280  -8.523   5.841  0.00  0.00    +0.292 HD
ENDBRANCH  22  23
ENDBRANCH  10  17
BRANCH   9  25
ATOM     25  O   UNL     1       4.489  -9.490   2.221  0.00  0.00    -0.506 OA
ATOM     26  H   UNL     1       4.969  -9.924   2.939  0.00  0.00    +0.292 HD
ENDBRANCH   9  25
BRANCH   1  27
ATOM     27  C   UNL     1       3.711  -0.707  -0.038  0.00  0.00    +0.150 C 
BRANCH  27  31
ATOM     28  C   UNL     1      -0.017   1.378   0.010  0.00  0.00    +0.000 A 
ATOM     29  C   UNL     1       1.171   2.086   0.002  0.00  0.00    +0.000 A 
ATOM     30  C   UNL     1       2.377   1.411  -0.013  0.00  0.00    +0.004 A 
ATOM     31  C   UNL     1       2.396   0.029  -0.020  0.00  0.00    -0.037 A 
ATOM     32  C   UNL     1       1.208  -0.679  -0.012  0.00  0.00    +0.004 A 
ATOM     33  C   UNL     1       0.002  -0.004   0.002  0.00  0.00    +0.000 A 
ENDBRANCH  27  31
ENDBRANCH   1  27
TORSDOF 5
