REMARK  Name = ZINC15083784
REMARK  9 active torsions:
REMARK  status: ('A' for Active; 'I' for Inactive)
REMARK    1  A    between atoms: C_1  and  C_2
REMARK    2  A    between atoms: C_2  and  N_3
REMARK    3  A    between atoms: N_3  and  C_4
REMARK    4  A    between atoms: C_5  and  C_31
REMARK    5  A    between atoms: C_15  and  C_23
REMARK    6  A    between atoms: C_17  and  C_21
REMARK    7  A    between atoms: C_18  and  N_20
REMARK    8  A    between atoms: C_26  and  O_29
REMARK    9  A    between atoms: O_29  and  C_30
REMARK                            x       y       z     vdW  Elec       q    Type
REMARK                         _______ _______ _______ _____ _____    ______ ____
ROOT
ATOM      1  C   UNL     1      -1.251  -5.479   4.378  0.00  0.00    +0.086 A 
ATOM      2  C   UNL     1      -1.502  -4.141   4.665  0.00  0.00    +0.104 A 
ATOM      3  C   UNL     1      -1.474  -3.196   3.561  0.00  0.00    +0.079 A 
ATOM      4  C   UNL     1      -1.191  -3.766   2.323  0.00  0.00    +0.081 A 
ATOM      5  S   UNL     1      -0.979  -5.492   2.668  0.00  0.00    -0.067 S 
ATOM      6  C   UNL     1      -1.125  -3.002   1.155  0.00  0.00    +0.155 A 
ATOM      7  C   UNL     1      -1.351  -1.639   1.238  0.00  0.00    +0.073 A 
ATOM      8  C   UNL     1      -1.634  -1.074   2.484  0.00  0.00    +0.257 A 
ATOM      9  O   UNL     1      -1.834   0.128   2.562  0.00  0.00    -0.267 OA
ATOM     10  N   UNL     1      -1.691  -1.821   3.595  0.00  0.00    -0.320 N 
ATOM     11  H   UNL     1      -1.889  -1.394   4.444  0.00  0.00    +0.169 HD
ATOM     12  C   UNL     1      -1.293  -0.774   0.010  0.00  0.00    +0.103 C 
ATOM     13  C   UNL     1      -1.374  -1.626  -1.226  0.00  0.00    +0.098 C 
ATOM     14  C   UNL     1      -1.151  -2.958  -1.179  0.00  0.00    +0.199 C 
ATOM     15  O   UNL     1      -0.846  -3.587  -0.031  0.00  0.00    -0.440 OA
ENDROOT
BRANCH  12  16
ATOM     16  C   UNL     1       0.002  -0.004   0.002  0.00  0.00    -0.034 A 
ATOM     17  C   UNL     1      -0.017   1.378   0.010  0.00  0.00    +0.008 A 
ATOM     18  C   UNL     1       1.169   2.087   0.002  0.00  0.00    +0.046 A 
ATOM     19  C   UNL     1       2.380   1.409  -0.013  0.00  0.00    +0.120 A 
ATOM     20  C   UNL     1       2.396   0.022  -0.020  0.00  0.00    +0.046 A 
ATOM     21  C   UNL     1       1.207  -0.681  -0.013  0.00  0.00    +0.008 A 
BRANCH  19  22
ATOM     22  O   UNL     1       3.548   2.104  -0.021  0.00  0.00    -0.495 OA
ATOM     23  C   UNL     1       3.456   3.530  -0.013  0.00  0.00    +0.277 C 
ENDBRANCH  19  22
ENDBRANCH  12  16
BRANCH  14  24
ATOM     24  N   UNL     1      -1.238  -3.690  -2.337  0.00  0.00    -0.328 N 
ATOM     25  H   UNL     1      -1.079  -4.647  -2.318  0.00  0.00    +0.145 HD
ATOM     26  H   UNL     1      -1.457  -3.251  -3.173  0.00  0.00    +0.145 HD
ENDBRANCH  14  24
BRANCH   1  27
ATOM     27  N   UNL     1      -1.225  -6.544   5.250  0.00  0.00    -0.338 N 
ATOM     28  H   UNL     1      -1.396  -6.402   6.194  0.00  0.00    +0.147 HD
BRANCH  27  30
ATOM     29  C   UNL     1      -0.970  -8.883   5.917  0.00  0.00    +0.024 C 
ATOM     30  C   UNL     1      -0.939  -7.891   4.752  0.00  0.00    +0.098 C 
ENDBRANCH  27  30
ENDBRANCH   1  27
BRANCH  13  31
ATOM     31  C   UNL     1      -1.695  -1.016  -2.481  0.00  0.00    +0.101 C 
ATOM     32  N   UNL     1      -1.949  -0.531  -3.476  0.00  0.00    -0.191 NA
ENDBRANCH  13  31
BRANCH   2  33
ATOM     33  C   UNL     1      -1.779  -3.710   6.002  0.00  0.00    +0.104 C 
ATOM     34  N   UNL     1      -1.998  -3.368   7.063  0.00  0.00    -0.191 NA
ENDBRANCH   2  33
TORSDOF 7
