REMARK  Name = ZINC32587042
REMARK  12 active torsions:
REMARK  status: ('A' for Active; 'I' for Inactive)
REMARK    1  A    between atoms: C_1  and  C_2
REMARK    2  A    between atoms: C_6  and  C_8
REMARK    3  A    between atoms: C_8  and  N_9
REMARK    4  A    between atoms: N_9  and  C_10
REMARK    5  A    between atoms: C_11  and  C_13
REMARK    6  A    between atoms: C_13  and  C_14
REMARK    7  A    between atoms: N_21  and  C_22
REMARK    8  A    between atoms: C_22  and  C_23
REMARK    9  A    between atoms: C_26  and  O_31
REMARK   10  A    between atoms: C_27  and  C_30
REMARK   11  A    between atoms: C_28  and  C_29
REMARK   12  A    between atoms: O_31  and  C_32
REMARK                            x       y       z     vdW  Elec       q    Type
REMARK                         _______ _______ _______ _____ _____    ______ ____
ROOT
ATOM      1  C   UNL     1      -3.572  -5.957   0.135  0.00  0.00    +0.028 C 
ATOM      2  C   UNL     1      -4.068  -7.247  -0.456  0.00  0.00    +0.200 C 
ATOM      3  O   UNL     1      -3.413  -8.253  -0.288  0.00  0.00    -0.278 OA
ATOM      4  N   UNL     1      -5.204  -7.330  -1.158  0.00  0.00    -0.318 N 
ATOM      5  C   UNL     1      -6.045  -6.168  -1.434  0.00  0.00    +0.085 C 
ATOM      6  C   UNL     1      -5.689  -5.028  -0.478  0.00  0.00    -0.058 C 
ATOM      7  N   UNL     1      -4.233  -4.819  -0.516  0.00  0.00    +0.391 N 
ATOM      8  H   UNL     1      -5.479  -8.195  -1.497  0.00  0.00    +0.149 HD
ATOM      9  H   UNL     1      -3.925  -4.752  -1.474  0.00  0.00    -0.080 HD
ENDROOT
BRANCH   1  10
ATOM     10  C   UNL     1      -2.060  -5.853  -0.074  0.00  0.00    +0.090 C 
BRANCH  10  13
ATOM     11  N   UNL     1      -0.486  -5.748  -1.979  0.00  0.00    -0.297 N 
ATOM     12  C   UNL     1       0.587  -5.482  -1.017  0.00  0.00    +0.132 C 
ATOM     13  C   UNL     1      -1.750  -5.926  -1.547  0.00  0.00    +0.215 C 
ATOM     14  O   UNL     1      -2.638  -6.146  -2.343  0.00  0.00    -0.276 OA
BRANCH  11  15
ATOM     15  C   UNL     1      -0.184  -5.820  -3.411  0.00  0.00    +0.179 C 
BRANCH  15  21
ATOM     16  C   UNL     1       0.573  -9.970  -6.115  0.00  0.00    +0.065 C 
ATOM     17  C   UNL     1       0.485  -9.031  -4.939  0.00  0.00    +0.030 A 
ATOM     18  C   UNL     1       0.762  -9.340  -3.658  0.00  0.00    +0.105 A 
ATOM     19  N   UNL     1       0.554  -8.204  -2.923  0.00  0.00    -0.348 N 
ATOM     20  H   UNL     1       0.671  -8.109  -1.965  0.00  0.00    +0.166 HD
ATOM     21  C   UNL     1       0.157  -7.240  -3.782  0.00  0.00    +0.102 A 
ATOM     22  N   UNL     1       0.123  -7.741  -4.986  0.00  0.00    -0.346 N 
ATOM     23  H   UNL     1      -0.127  -7.256  -5.789  0.00  0.00    +0.167 HD
ENDBRANCH  15  21
ENDBRANCH  11  15
ENDBRANCH  10  13
ENDBRANCH   1  10
BRANCH   7  24
ATOM     24  C   UNL     1      -3.898  -3.581   0.199  0.00  0.00    -0.042 C 
BRANCH  24  25
ATOM     25  C   UNL     1      -4.472  -2.401  -0.542  0.00  0.00    -0.061 A 
ATOM     26  C   UNL     1      -5.628  -1.795  -0.086  0.00  0.00    +0.005 A 
ATOM     27  C   UNL     1      -6.156  -0.714  -0.765  0.00  0.00    +0.046 A 
ATOM     28  C   UNL     1      -5.525  -0.236  -1.904  0.00  0.00    +0.123 A 
ATOM     29  C   UNL     1      -4.365  -0.845  -2.359  0.00  0.00    -0.006 A 
ATOM     30  C   UNL     1      -3.838  -1.923  -1.674  0.00  0.00    -0.043 A 
ATOM     31  C   UNL     1      -2.574  -2.581  -2.164  0.00  0.00    +0.044 C 
ATOM     32  C   UNL     1      -3.677  -0.328  -3.596  0.00  0.00    +0.048 C 
BRANCH  28  33
ATOM     33  O   UNL     1      -6.043   0.828  -2.573  0.00  0.00    -0.495 OA
ATOM     34  C   UNL     1      -7.240   1.404  -2.048  0.00  0.00    +0.277 C 
ENDBRANCH  28  33
ENDBRANCH  24  25
ENDBRANCH   7  24
TORSDOF 7
