REMARK  Name = ZINC14242686
REMARK  15 active torsions:
REMARK  status: ('A' for Active; 'I' for Inactive)
REMARK    1  A    between atoms: C_1  and  C_2
REMARK    2  A    between atoms: C_2  and  C_3
REMARK    3  A    between atoms: C_3  and  C_4
REMARK    4  A    between atoms: C_4  and  N_5
REMARK    5  A    between atoms: N_5  and  C_6
REMARK    6  A    between atoms: C_7  and  N_19
REMARK    7  A    between atoms: N_8  and  C_15
REMARK    8  A    between atoms: C_15  and  C_16
REMARK    9  A    between atoms: C_16  and  C_17
REMARK   10  A    between atoms: C_16  and  C_18
REMARK   11  A    between atoms: C_20  and  C_22
REMARK   12  A    between atoms: C_22  and  N_63
REMARK   13  A    between atoms: C_23  and  N_63
REMARK   14  A    between atoms: C_24  and  C_25
REMARK   15  A    between atoms: C_24  and  N_63
REMARK                            x       y       z     vdW  Elec       q    Type
REMARK                         _______ _______ _______ _____ _____    ______ ____
ROOT
ATOM      1  N   UNL     1       1.259   1.479  -0.434  0.00  0.00    -0.266 N 
ATOM      2  C   UNL     1       0.098   0.839  -0.687  0.00  0.00    +0.203 C 
ATOM      3  O   UNL     1       0.109  -0.324  -1.032  0.00  0.00    -0.277 OA
ENDROOT
BRANCH   1   4
ATOM      4  C   UNL     1       2.478   0.770  -0.476  0.00  0.00    +0.140 A 
ATOM      5  C   UNL     1       2.725  -0.255   0.414  0.00  0.00    +0.127 A 
ATOM      6  N   UNL     1       3.923  -0.927   0.348  0.00  0.00    -0.280 N 
ATOM      7  C   UNL     1       4.844  -0.590  -0.573  0.00  0.00    +0.331 A 
ATOM      8  O   UNL     1       5.897  -1.196  -0.614  0.00  0.00    -0.246 OA
ATOM      9  N   UNL     1       4.621   0.407  -1.447  0.00  0.00    -0.273 N 
ATOM     10  H   UNL     1       5.324   0.641  -2.119  0.00  0.00    +0.173 HD
ATOM     11  C   UNL     1       3.462   1.094  -1.429  0.00  0.00    +0.277 A 
ATOM     12  O   UNL     1       3.268   1.992  -2.231  0.00  0.00    -0.266 OA
BRANCH   5  13
ATOM     13  N   UNL     1       1.785  -0.600   1.355  0.00  0.00    -0.343 N 
ATOM     14  H   UNL     1       0.984  -0.062   1.461  0.00  0.00    +0.144 HD
ATOM     15  H   UNL     1       1.921  -1.381   1.914  0.00  0.00    +0.144 HD
ENDBRANCH   5  13
BRANCH   6  16
ATOM     16  C   UNL     1       4.198  -2.019   1.287  0.00  0.00    +0.131 C 
BRANCH  16  17
ATOM     17  C   UNL     1       3.714  -3.341   0.687  0.00  0.00    +0.003 C 
ATOM     18  C   UNL     1       4.535  -3.665  -0.562  0.00  0.00    +0.009 C 
ATOM     19  C   UNL     1       3.887  -4.460   1.716  0.00  0.00    +0.009 C 
ENDBRANCH  16  17
ENDBRANCH   6  16
ENDBRANCH   1   4
BRANCH   1  20
ATOM     20  C   UNL     1       1.253   2.909  -0.116  0.00  0.00    +0.114 C 
BRANCH  20  21
ATOM     21  C   UNL     1       1.230   3.094   1.402  0.00  0.00    +0.019 C 
BRANCH  21  23
ATOM     22  C   UNL     1       1.200   4.773   3.252  0.00  0.00    +0.004 C 
ATOM     23  C   UNL     1       1.224   4.588   1.734  0.00  0.00    -0.002 C 
ENDBRANCH  21  23
ENDBRANCH  20  21
ENDBRANCH   1  20
BRANCH   2  24
ATOM     24  C   UNL     1      -1.212   1.571  -0.546  0.00  0.00    +0.019 C 
BRANCH  24  26
ATOM     25  C   UNL     1      -2.420  -0.425   0.099  0.00  0.00    -0.095 C 
ATOM     26  N   UNL     1      -2.312   0.653  -0.906  0.00  0.00    +0.386 N 
ATOM     27  H   UNL     1      -2.112   0.236  -1.823  0.00  0.00    -0.081 HD
BRANCH  26  28
ATOM     28  C   UNL     1      -3.587   1.398  -0.987  0.00  0.00    -0.042 C 
BRANCH  28  29
ATOM     29  C   UNL     1      -3.617   2.164  -2.284  0.00  0.00    -0.050 A 
ATOM     30  C   UNL     1      -3.368   3.523  -2.291  0.00  0.00    +0.003 A 
ATOM     31  C   UNL     1      -3.392   4.225  -3.482  0.00  0.00    +0.000 A 
ATOM     32  C   UNL     1      -3.675   3.569  -4.665  0.00  0.00    +0.001 A 
ATOM     33  C   UNL     1      -3.930   2.211  -4.659  0.00  0.00    +0.015 A 
ATOM     34  C   UNL     1      -3.901   1.507  -3.468  0.00  0.00    +0.019 A 
ATOM     35 BR   UNL     1      -4.250  -0.351  -3.459  0.00  0.00    -0.050 Br
ENDBRANCH  28  29
ENDBRANCH  26  28
ENDBRANCH  24  26
ENDBRANCH   2  24
TORSDOF 11
