REMARK  Name = ZINC63886487
REMARK  16 active torsions:
REMARK  status: ('A' for Active; 'I' for Inactive)
REMARK    1  A    between atoms: C_1  and  C_2
REMARK    2  A    between atoms: C_3  and  C_34
REMARK    3  A    between atoms: C_4  and  N_11
REMARK    4  A    between atoms: C_6  and  C_7
REMARK    5  A    between atoms: C_7  and  O_9
REMARK    6  A    between atoms: O_9  and  C_10
REMARK    7  A    between atoms: C_12  and  C_14
REMARK    8  A    between atoms: C_14  and  O_15
REMARK    9  A    between atoms: O_15  and  C_16
REMARK   10  A    between atoms: C_16  and  C_18
REMARK   11  A    between atoms: C_18  and  C_20
REMARK   12  A    between atoms: C_18  and  N_30
REMARK   13  A    between atoms: C_20  and  C_21
REMARK   14  A    between atoms: C_31  and  C_33
REMARK   15  A    between atoms: C_34  and  O_36
REMARK   16  A    between atoms: O_36  and  C_37
REMARK                            x       y       z     vdW  Elec       q    Type
REMARK                         _______ _______ _______ _____ _____    ______ ____
ROOT
ATOM      1  O   UNL     1       0.081  -6.693  -2.405  0.00  0.00    -0.454 OA
ENDROOT
BRANCH   1   2
ATOM      2  C   UNL     1       0.090  -7.714  -3.276  0.00  0.00    +0.328 C 
ATOM      3  O   UNL     1       0.082  -7.494  -4.464  0.00  0.00    -0.249 OA
BRANCH   2   4
ATOM      4  C   UNL     1       0.112  -9.134  -2.772  0.00  0.00    +0.186 C 
BRANCH   4   5
ATOM      5  N   UNL     1      -0.353 -10.034  -3.830  0.00  0.00    -0.302 N 
ATOM      6  C   UNL     1       0.308 -10.095  -5.003  0.00  0.00    +0.211 C 
ATOM      7  O   UNL     1       1.288  -9.404  -5.183  0.00  0.00    -0.276 OA
ATOM      8  C   UNL     1      -0.171 -11.021  -6.091  0.00  0.00    +0.109 C 
ATOM      9  H   UNL     1      -1.137 -10.587  -3.687  0.00  0.00    +0.150 HD
ENDBRANCH   4   5
BRANCH   4  10
ATOM     10  C   UNL     1       1.540  -9.512  -2.373  0.00  0.00    +0.067 C 
BRANCH  10  11
ATOM     11  C   UNL     1       1.542 -10.887  -1.756  0.00  0.00    -0.039 C 
ATOM     12  C   UNL     1       1.798 -12.058  -2.381  0.00  0.00    -0.001 A 
ATOM     13  C   UNL     1       2.137 -12.391  -3.770  0.00  0.00    +0.010 A 
ATOM     14  C   UNL     1       2.341 -13.686  -4.104  0.00  0.00    +0.001 A 
ATOM     15  C   UNL     1       2.236 -14.716  -3.159  0.00  0.00    +0.002 A 
ATOM     16  C   UNL     1       1.928 -14.489  -1.864  0.00  0.00    +0.026 A 
ATOM     17  C   UNL     1       1.694 -13.164  -1.402  0.00  0.00    +0.043 A 
ATOM     18  N   UNL     1       1.385 -12.694  -0.218  0.00  0.00    -0.380 N 
ATOM     19  C   UNL     1       1.264 -11.235  -0.310  0.00  0.00    +0.144 C 
ATOM     20  H   UNL     1       1.261 -13.223   0.586  0.00  0.00    +0.160 HD
ENDBRANCH  10  11
ENDBRANCH   4  10
ENDBRANCH   2   4
ENDBRANCH   1   2
BRANCH   1  21
ATOM     21  C   UNL     1       0.060  -5.373  -2.952  0.00  0.00    +0.328 C 
BRANCH  21  23
ATOM     22  N   UNL     1       0.033  -3.047  -2.112  0.00  0.00    -0.277 N 
ATOM     23  C   UNL     1       0.052  -4.365  -1.832  0.00  0.00    +0.255 C 
ATOM     24  O   UNL     1       0.063  -4.740  -0.679  0.00  0.00    -0.272 OA
ATOM     25  H   UNL     1       0.024  -2.747  -3.034  0.00  0.00    +0.155 HD
BRANCH  22  29
ATOM     26  C   UNL     1      -0.018   1.503   0.010  0.00  0.00    +0.046 C 
ATOM     27  C   UNL     1       0.002  -0.004   0.002  0.00  0.00    -0.014 A 
ATOM     28  C   UNL     1       0.006  -0.730  -1.181  0.00  0.00    +0.091 A 
ATOM     29  C   UNL     1       0.025  -2.123  -1.085  0.00  0.00    +0.087 A 
ATOM     30  S   UNL     1       0.037  -2.413   0.569  0.00  0.00    -0.066 S 
ATOM     31  C   UNL     1       0.024  -0.733   1.162  0.00  0.00    +0.102 A 
BRANCH  31  32
ATOM     32  C   UNL     1       0.031  -0.252   2.543  0.00  0.00    +0.346 C 
ATOM     33  O   UNL     1       0.018   0.943   2.770  0.00  0.00    -0.244 OA
BRANCH  32  34
ATOM     34  O   UNL     1       0.053  -1.133   3.564  0.00  0.00    -0.464 OA
ATOM     35  C   UNL     1       0.060  -0.593   4.887  0.00  0.00    +0.280 C 
ENDBRANCH  32  34
ENDBRANCH  31  32
BRANCH  28  36
ATOM     36  C   UNL     1      -0.010  -0.058  -2.485  0.00  0.00    +0.342 C 
ATOM     37  O   UNL     1       1.036   0.236  -3.031  0.00  0.00    -0.245 OA
BRANCH  36  38
ATOM     38  O   UNL     1      -1.185   0.235  -3.078  0.00  0.00    -0.464 OA
ATOM     39  C   UNL     1      -1.126   0.890  -4.347  0.00  0.00    +0.280 C 
ENDBRANCH  36  38
ENDBRANCH  28  36
ENDBRANCH  22  29
ENDBRANCH  21  23
ENDBRANCH   1  21
TORSDOF 12
