REMARK  Name = ZINC13781853
REMARK  11 active torsions:
REMARK  status: ('A' for Active; 'I' for Inactive)
REMARK    1  A    between atoms: C_1  and  C_2
REMARK    2  A    between atoms: C_4  and  N_31
REMARK    3  A    between atoms: C_6  and  C_30
REMARK    4  A    between atoms: C_7  and  C_8
REMARK    5  A    between atoms: C_8  and  N_9
REMARK    6  A    between atoms: C_10  and  C_12
REMARK    7  A    between atoms: C_12  and  N_13
REMARK    8  A    between atoms: C_14  and  C_29
REMARK    9  A    between atoms: N_20  and  C_21
REMARK   10  A    between atoms: C_21  and  C_22
REMARK   11  A    between atoms: C_22  and  C_23
REMARK                            x       y       z     vdW  Elec       q    Type
REMARK                         _______ _______ _______ _____ _____    ______ ____
ROOT
ATOM      1  C   UNL     1      -2.586   1.041   4.628  0.00  0.00    +0.220 C 
ENDROOT
BRANCH   1   2
ATOM      2  N   UNL     1      -2.808   1.756   5.887  0.00  0.00    -0.300 N 
ATOM      3  C   UNL     1      -3.093   1.070   7.030  0.00  0.00    +0.038 A 
ATOM      4  C   UNL     1      -3.299   1.720   8.195  0.00  0.00    +0.134 A 
ATOM      5  N   UNL     1      -3.232   3.048   8.278  0.00  0.00    -0.234 NA
ATOM      6  C   UNL     1      -2.962   3.776   7.215  0.00  0.00    +0.184 A 
ATOM      7  C   UNL     1      -2.727   3.105   5.932  0.00  0.00    +0.292 A 
ATOM      8  O   UNL     1      -2.469   3.748   4.929  0.00  0.00    -0.264 OA
ATOM      9  N   UNL     1      -2.894   5.160   7.309  0.00  0.00    -0.324 N 
ATOM     10  C   UNL     1      -3.181  -0.434   6.992  0.00  0.00    +0.065 C 
ATOM     11  H   UNL     1      -2.694   5.690   6.522  0.00  0.00    +0.148 HD
BRANCH   9  12
ATOM     12  C   UNL     1      -3.125   5.819   8.597  0.00  0.00    +0.108 C 
BRANCH  12  13
ATOM     13  C   UNL     1      -2.993   7.334   8.425  0.00  0.00    +0.054 C 
BRANCH  13  14
ATOM     14  C   UNL     1      -3.231   8.012   9.749  0.00  0.00    -0.046 A 
ATOM     15  C   UNL     1      -4.510   8.392  10.112  0.00  0.00    +0.004 A 
ATOM     16  C   UNL     1      -4.728   9.014  11.327  0.00  0.00    +0.000 A 
ATOM     17  C   UNL     1      -3.667   9.256  12.179  0.00  0.00    +0.000 A 
ATOM     18  C   UNL     1      -2.389   8.876  11.818  0.00  0.00    +0.000 A 
ATOM     19  C   UNL     1      -2.171   8.249  10.604  0.00  0.00    +0.004 A 
ENDBRANCH  13  14
ENDBRANCH  12  13
ENDBRANCH   9  12
ENDBRANCH   1   2
BRANCH   1  21
ATOM     20  N   UNL     1      -3.918   0.342   2.664  0.00  0.00    -0.310 N 
ATOM     21  C   UNL     1      -3.881   0.960   3.861  0.00  0.00    +0.233 C 
ATOM     22  O   UNL     1      -4.890   1.452   4.321  0.00  0.00    -0.274 OA
ATOM     23  H   UNL     1      -3.112  -0.051   2.296  0.00  0.00    +0.149 HD
BRANCH  20  24
ATOM     24  C   UNL     1      -5.177   0.264   1.919  0.00  0.00    +0.141 C 
BRANCH  24  31
ATOM     25  C   UNL     1      -5.494  -2.636   1.788  0.00  0.00    +0.044 C 
ATOM     26  C   UNL     1      -5.101  -1.851   0.564  0.00  0.00    -0.041 A 
ATOM     27  C   UNL     1      -4.887  -2.487  -0.646  0.00  0.00    +0.045 A 
ATOM     28  C   UNL     1      -4.525  -1.728  -1.754  0.00  0.00    +0.094 A 
ATOM     29  N   UNL     1      -4.386  -0.415  -1.656  0.00  0.00    -0.347 N 
ATOM     30  C   UNL     1      -4.583   0.218  -0.515  0.00  0.00    +0.019 A 
ATOM     31  C   UNL     1      -4.949  -0.472   0.623  0.00  0.00    -0.008 A 
ATOM     32  C   UNL     1      -4.411   1.714  -0.455  0.00  0.00    +0.063 C 
ATOM     33  H   UNL     1      -4.133   0.094  -2.442  0.00  0.00    +0.167 HD
BRANCH  28  34
ATOM     34  N   UNL     1      -4.307  -2.355  -2.976  0.00  0.00    -0.345 N 
ATOM     35  H   UNL     1      -4.407  -3.317  -3.053  0.00  0.00    +0.144 HD
ATOM     36  H   UNL     1      -4.054  -1.830  -3.752  0.00  0.00    +0.144 HD
ENDBRANCH  28  34
ENDBRANCH  24  31
ENDBRANCH  20  24
ENDBRANCH   1  21
TORSDOF 8
