REMARK  Name = ZINC39324519
REMARK  13 active torsions:
REMARK  status: ('A' for Active; 'I' for Inactive)
REMARK    1  A    between atoms: C_1  and  C_2
REMARK    2  A    between atoms: C_2  and  C_3
REMARK    3  A    between atoms: C_3  and  N_4
REMARK    4  A    between atoms: C_7  and  C_8
REMARK    5  A    between atoms: C_11  and  C_14
REMARK    6  A    between atoms: C_14  and  O_16
REMARK    7  A    between atoms: O_16  and  C_17
REMARK    8  A    between atoms: C_21  and  C_29
REMARK    9  A    between atoms: C_23  and  C_27
REMARK   10  A    between atoms: C_24  and  N_26
REMARK   11  A    between atoms: C_32  and  C_35
REMARK   12  A    between atoms: C_35  and  O_37
REMARK   13  A    between atoms: O_37  and  C_38
REMARK                            x       y       z     vdW  Elec       q    Type
REMARK                         _______ _______ _______ _____ _____    ______ ____
ROOT
ATOM      1  N   UNL     1      -1.093  -2.086   0.415  0.00  0.00    -0.294 NA
ATOM      2  C   UNL     1      -0.648  -2.476  -0.935  0.00  0.00    +0.123 C 
ATOM      3  C   UNL     1      -0.633  -3.990  -0.974  0.00  0.00    +0.010 C 
ATOM      4  C   UNL     1       0.362  -4.663  -1.583  0.00  0.00    +0.016 C 
ATOM      5  C   UNL     1      -1.750  -4.701  -0.320  0.00  0.00    +0.136 C 
ATOM      6  C   UNL     1      -2.605  -4.024   0.448  0.00  0.00    -0.001 C 
ATOM      7  C   UNL     1      -2.464  -2.538   0.659  0.00  0.00    +0.120 C 
ATOM      8  C   UNL     1      -3.747  -4.738   1.131  0.00  0.00    +0.095 C 
ATOM      9  C   UNL     1      -3.998  -6.068   0.479  0.00  0.00    +0.098 C 
ATOM     10  C   UNL     1      -3.053  -6.643  -0.307  0.00  0.00    +0.199 C 
ATOM     11  O   UNL     1      -1.874  -6.036  -0.523  0.00  0.00    -0.441 OA
ENDROOT
BRANCH   4  12
ATOM     12  C   UNL     1       1.370  -3.934  -2.369  0.00  0.00    -0.025 A 
ATOM     13  C   UNL     1       2.687  -4.405  -2.428  0.00  0.00    +0.009 A 
ATOM     14  C   UNL     1       3.621  -3.728  -3.158  0.00  0.00    +0.015 A 
ATOM     15  C   UNL     1       3.263  -2.564  -3.846  0.00  0.00    +0.059 A 
ATOM     16  C   UNL     1       1.948  -2.092  -3.786  0.00  0.00    +0.015 A 
ATOM     17  C   UNL     1       1.011  -2.772  -3.062  0.00  0.00    +0.009 A 
BRANCH  15  18
ATOM     18  C   UNL     1       4.273  -1.833  -4.633  0.00  0.00    +0.339 C 
ATOM     19  O   UNL     1       5.416  -2.242  -4.685  0.00  0.00    -0.245 OA
BRANCH  18  20
ATOM     20  O   UNL     1       3.929  -0.711  -5.296  0.00  0.00    -0.464 OA
ATOM     21  C   UNL     1       4.957  -0.054  -6.039  0.00  0.00    +0.280 C 
ENDBRANCH  18  20
ENDBRANCH  15  18
ENDBRANCH   4  12
BRANCH   8  22
ATOM     22  C   UNL     1      -3.402  -4.955   2.582  0.00  0.00    -0.035 A 
ATOM     23  C   UNL     1      -2.283  -5.694   2.921  0.00  0.00    +0.005 A 
ATOM     24  C   UNL     1      -1.962  -5.897   4.247  0.00  0.00    +0.015 A 
ATOM     25  C   UNL     1      -2.769  -5.353   5.248  0.00  0.00    +0.059 A 
ATOM     26  C   UNL     1      -3.897  -4.608   4.899  0.00  0.00    +0.015 A 
ATOM     27  C   UNL     1      -4.203  -4.408   3.569  0.00  0.00    +0.005 A 
BRANCH  25  28
ATOM     28  C   UNL     1      -2.431  -5.566   6.670  0.00  0.00    +0.339 C 
ATOM     29  O   UNL     1      -1.450  -6.215   6.971  0.00  0.00    -0.245 OA
BRANCH  28  30
ATOM     30  O   UNL     1      -3.212  -5.040   7.634  0.00  0.00    -0.464 OA
ATOM     31  C   UNL     1      -2.826  -5.286   8.988  0.00  0.00    +0.280 C 
ENDBRANCH  28  30
ENDBRANCH  25  28
ENDBRANCH   8  22
BRANCH  10  32
ATOM     32  N   UNL     1      -3.306  -7.859  -0.890  0.00  0.00    -0.328 N 
ATOM     33  H   UNL     1      -4.156  -8.302  -0.739  0.00  0.00    +0.145 HD
ATOM     34  H   UNL     1      -2.636  -8.276  -1.454  0.00  0.00    +0.145 HD
ENDBRANCH  10  32
BRANCH   9  35
ATOM     35  C   UNL     1      -5.246  -6.736   0.691  0.00  0.00    +0.101 C 
ATOM     36  N   UNL     1      -6.237  -7.266   0.859  0.00  0.00    -0.191 NA
ENDBRANCH   9  35
BRANCH   1  37
ATOM     37  C   UNL     1      -0.975  -0.635   0.610  0.00  0.00    +0.085 C 
BRANCH  37  39
ATOM     38  C   UNL     1       0.625   1.275   0.796  0.00  0.00    +0.005 C 
ATOM     39  C   UNL     1       0.502  -0.237   0.593  0.00  0.00    +0.012 C 
ENDBRANCH  37  39
ENDBRANCH   1  37
TORSDOF 10
