REMARK  Name = ZINC39884073
REMARK  4 active torsions:
REMARK  status: ('A' for Active; 'I' for Inactive)
REMARK    1  A    between atoms: C_4  and  C_7
REMARK    2  A    between atoms: N_11  and  C_15
REMARK    3  A    between atoms: C_15  and  C_16
REMARK    4  A    between atoms: N_18  and  C_19
REMARK                            x       y       z     vdW  Elec       q    Type
REMARK                         _______ _______ _______ _____ _____    ______ ____
ROOT
ATOM      1  C   UNL     1       3.717  -0.694  -0.068  0.00  0.00    +0.072 C 
ATOM      2  C   UNL     1       3.741  -1.574  -1.264  0.00  0.00    +0.033 A 
ATOM      3  C   UNL     1       4.098  -2.869  -1.351  0.00  0.00    +0.091 A 
ATOM      4  N   UNL     1       4.042  -3.402  -2.619  0.00  0.00    -0.288 N 
ATOM      5  C   UNL     1       3.628  -2.645  -3.651  0.00  0.00    +0.292 A 
ATOM      6  O   UNL     1       3.515  -2.960  -4.822  0.00  0.00    -0.259 OA
ATOM      7  S   UNL     1       3.303  -1.159  -2.934  0.00  0.00    -0.030 S 
ATOM      8  S   UNL     1       4.572  -3.791   0.088  0.00  0.00    -0.093 S 
ATOM      9  C   UNL     1       4.920  -2.507   1.332  0.00  0.00    +0.152 C 
ATOM     10  C   UNL     1       3.884  -1.382   1.233  0.00  0.00    +0.110 C 
ATOM     11  C   UNL     1       2.682  -1.951   1.920  0.00  0.00    +0.235 C 
ATOM     12  O   UNL     1       1.526  -1.662   1.722  0.00  0.00    -0.274 OA
ATOM     13  N   UNL     1       3.156  -2.856   2.809  0.00  0.00    -0.162 N 
ATOM     14  C   UNL     1       4.475  -3.111   2.676  0.00  0.00    +0.244 C 
ATOM     15  O   UNL     1       5.173  -3.709   3.460  0.00  0.00    -0.273 OA
ATOM     16  C   UNL     1       2.383  -3.441   3.745  0.00  0.00    +0.313 C 
ATOM     17  O   UNL     1       1.203  -3.163   3.820  0.00  0.00    -0.252 OA
ATOM     18  N   UNL     1       2.920  -4.335   4.600  0.00  0.00    -0.313 N 
ATOM     19  H   UNL     1       3.862  -4.557   4.540  0.00  0.00    +0.147 HD
ATOM     20  H   UNL     1       2.364  -4.756   5.274  0.00  0.00    +0.147 HD
ENDROOT
BRANCH   1  24
ATOM     21  C   UNL     1      -0.012   1.389  -0.013  0.00  0.00    +0.000 A 
ATOM     22  C   UNL     1       1.120   1.984   0.510  0.00  0.00    +0.000 A 
ATOM     23  C   UNL     1       2.327   1.310   0.492  0.00  0.00    +0.004 A 
ATOM     24  C   UNL     1       2.401   0.040  -0.048  0.00  0.00    -0.039 A 
ATOM     25  C   UNL     1       1.269  -0.556  -0.571  0.00  0.00    +0.004 A 
ATOM     26  C   UNL     1       0.063   0.119  -0.554  0.00  0.00    +0.000 A 
ENDBRANCH   1  24
BRANCH   4  27
ATOM     27  C   UNL     1       4.436  -4.795  -2.845  0.00  0.00    +0.222 C 
BRANCH  27  28
ATOM     28  C   UNL     1       3.232  -5.689  -2.689  0.00  0.00    +0.237 C 
ATOM     29  O   UNL     1       2.152  -5.209  -2.416  0.00  0.00    -0.274 OA
ATOM     30  N   UNL     1       3.356  -7.021  -2.853  0.00  0.00    -0.284 N 
ATOM     31  H   UNL     1       4.232  -7.412  -2.993  0.00  0.00    +0.155 HD
BRANCH  30  32
ATOM     32  C   UNL     1       2.221  -7.838  -2.821  0.00  0.00    +0.033 A 
ATOM     33  C   UNL     1       2.296  -9.113  -2.276  0.00  0.00    +0.023 A 
ATOM     34  C   UNL     1       1.174  -9.917  -2.245  0.00  0.00    +0.002 A 
ATOM     35  C   UNL     1      -0.024  -9.454  -2.758  0.00  0.00    +0.000 A 
ATOM     36  C   UNL     1      -0.102  -8.185  -3.302  0.00  0.00    +0.002 A 
ATOM     37  C   UNL     1       1.015  -7.374  -3.330  0.00  0.00    +0.023 A 
ENDBRANCH  30  32
ENDBRANCH  27  28
ENDBRANCH   4  27
TORSDOF 4
