REMARK  Name = ZINC36027155
REMARK  7 active torsions:
REMARK  status: ('A' for Active; 'I' for Inactive)
REMARK    1  A    between atoms: C_1  and  C_2
REMARK    2  A    between atoms: C_2  and  C_3
REMARK    3  A    between atoms: C_3  and  C_5
REMARK    4  A    between atoms: C_3  and  N_6
REMARK    5  A    between atoms: C_9  and  C_29
REMARK    6  A    between atoms: N_15  and  S_18
REMARK    7  A    between atoms: S_18  and  C_21
REMARK                            x       y       z     vdW  Elec       q    Type
REMARK                         _______ _______ _______ _____ _____    ______ ____
ROOT
ATOM      1  N   UNL     1      -2.171  -0.255  -1.092  0.00  0.00    -0.311 N 
ATOM      2  C   UNL     1      -1.902  -0.787  -2.303  0.00  0.00    +0.200 C 
ATOM      3  O   UNL     1      -1.008  -1.568  -2.551  0.00  0.00    -0.277 OA
ATOM      4  C   UNL     1      -2.905  -0.246  -3.298  0.00  0.00    +0.016 C 
ATOM      5  N   UNL     1      -4.001   0.309  -2.467  0.00  0.00    +0.401 N 
ATOM      6  C   UNL     1      -3.326   0.641  -1.197  0.00  0.00    +0.006 C 
ATOM      7  C   UNL     1      -2.865   2.097  -1.229  0.00  0.00    +0.023 C 
ATOM      8  C   UNL     1      -2.131   2.426   0.076  0.00  0.00    +0.109 C 
ATOM      9  N   UNL     1      -3.005   2.085   1.208  0.00  0.00    -0.177 NA
ATOM     10  C   UNL     1      -3.560   0.727   1.287  0.00  0.00    +0.109 C 
ATOM     11  C   UNL     1      -4.281   0.411  -0.028  0.00  0.00    +0.023 C 
ATOM     12  C   UNL     1      -3.429  -1.373  -4.191  0.00  0.00    -0.004 C 
ATOM     13  H   UNL     1      -4.388   1.137  -2.895  0.00  0.00    -0.082 HD
ATOM     14  H   UNL     1      -4.719  -0.384  -2.314  0.00  0.00    -0.082 HD
ENDROOT
BRANCH   9  15
ATOM     15  S   UNL     1      -3.355   3.209   2.371  0.00  0.00    +0.061 S 
ATOM     16  O   UNL     1      -3.706   2.485   3.543  0.00  0.00    -0.153 OA
ATOM     17  O   UNL     1      -2.298   4.159   2.350  0.00  0.00    -0.153 OA
BRANCH  15  18
ATOM     18  C   UNL     1      -4.808   4.061   1.852  0.00  0.00    +0.107 A 
ATOM     19  C   UNL     1      -4.701   5.196   1.070  0.00  0.00    +0.030 A 
ATOM     20  C   UNL     1      -5.839   5.865   0.663  0.00  0.00    +0.023 A 
ATOM     21  C   UNL     1      -7.087   5.399   1.037  0.00  0.00    +0.059 A 
ATOM     22  C   UNL     1      -7.194   4.262   1.819  0.00  0.00    +0.061 A 
ATOM     23  C   UNL     1      -6.053   3.590   2.222  0.00  0.00    +0.050 A 
ATOM     24 CL   UNL     1      -8.759   3.676   2.290  0.00  0.00    -0.082 Cl
ATOM     25 CL   UNL     1      -8.517   6.239   0.526  0.00  0.00    -0.082 Cl
ENDBRANCH  15  18
ENDBRANCH   9  15
BRANCH   1  26
ATOM     26  C   UNL     1      -1.427  -0.534   0.139  0.00  0.00    +0.071 C 
ATOM     27  C   UNL     1      -1.993  -1.791   0.803  0.00  0.00    +0.028 C 
BRANCH  26  29
ATOM     28  C   UNL     1       0.639   0.531  -0.780  0.00  0.00    +0.005 C 
ATOM     29  C   UNL     1       0.050  -0.756  -0.197  0.00  0.00    +0.019 C 
ENDBRANCH  26  29
ENDBRANCH   1  26
TORSDOF 4
