REMARK  Name = ZINC12588568
REMARK  9 active torsions:
REMARK  status: ('A' for Active; 'I' for Inactive)
REMARK    1  A    between atoms: C_1  and  O_2
REMARK    2  A    between atoms: O_2  and  C_3
REMARK    3  A    between atoms: C_7  and  C_9
REMARK    4  A    between atoms: C_9  and  C_10
REMARK    5  A    between atoms: C_10  and  N_11
REMARK    6  A    between atoms: C_12  and  C_14
REMARK    7  A    between atoms: C_14  and  C_15
REMARK    8  A    between atoms: N_22  and  C_23
REMARK    9  A    between atoms: C_23  and  C_24
REMARK                            x       y       z     vdW  Elec       q    Type
REMARK                         _______ _______ _______ _____ _____    ______ ____
ROOT
ATOM      1  C   UNL     1       4.998  -8.854  -0.417  0.00  0.00    +0.028 C 
ATOM      2  C   UNL     1       4.943 -10.354  -0.491  0.00  0.00    +0.200 C 
ATOM      3  O   UNL     1       3.889 -10.909  -0.266  0.00  0.00    -0.278 OA
ATOM      4  N   UNL     1       6.010 -11.101  -0.797  0.00  0.00    -0.318 N 
ATOM      5  C   UNL     1       7.313 -10.522  -1.112  0.00  0.00    +0.085 C 
ATOM      6  C   UNL     1       7.371  -9.074  -0.622  0.00  0.00    -0.058 C 
ATOM      7  N   UNL     1       6.187  -8.359  -1.122  0.00  0.00    +0.391 N 
ATOM      8  H   UNL     1       5.913 -12.067  -0.811  0.00  0.00    +0.149 HD
ATOM      9  H   UNL     1       6.085  -8.524  -2.113  0.00  0.00    -0.080 HD
ENDROOT
BRANCH   1  10
ATOM     10  C   UNL     1       3.743  -8.268  -1.065  0.00  0.00    +0.089 C 
BRANCH  10  12
ATOM     11  N   UNL     1       2.666  -8.282  -3.292  0.00  0.00    -0.315 N 
ATOM     12  C   UNL     1       3.634  -8.761  -2.485  0.00  0.00    +0.212 C 
ATOM     13  O   UNL     1       4.417  -9.588  -2.902  0.00  0.00    -0.276 OA
ATOM     14  H   UNL     1       2.040  -7.621  -2.959  0.00  0.00    +0.149 HD
BRANCH  11  15
ATOM     15  C   UNL     1       2.560  -8.762  -4.673  0.00  0.00    +0.109 C 
BRANCH  15  16
ATOM     16  C   UNL     1       1.387  -8.065  -5.366  0.00  0.00    +0.054 C 
BRANCH  16  21
ATOM     17  C   UNL     1       1.860  -8.364  -9.103  0.00  0.00    +0.120 A 
ATOM     18  C   UNL     1       1.073  -9.469  -9.392  0.00  0.00    +0.045 A 
ATOM     19  C   UNL     1       0.392 -10.114  -8.378  0.00  0.00    +0.004 A 
ATOM     20  C   UNL     1       0.494  -9.660  -7.076  0.00  0.00    +0.004 A 
ATOM     21  C   UNL     1       1.278  -8.558  -6.785  0.00  0.00    -0.042 A 
ATOM     22  C   UNL     1       1.965  -7.913  -7.795  0.00  0.00    +0.049 A 
BRANCH  17  24
ATOM     23  C   UNL     1       2.376  -8.247 -11.421  0.00  0.00    +0.277 C 
ATOM     24  O   UNL     1       2.531  -7.727 -10.098  0.00  0.00    -0.495 OA
ENDBRANCH  17  24
ENDBRANCH  16  21
ENDBRANCH  15  16
ENDBRANCH  11  15
ENDBRANCH  10  12
ENDBRANCH   1  10
BRANCH   7  25
ATOM     25  C   UNL     1       6.343  -6.920  -0.874  0.00  0.00    -0.042 C 
BRANCH  25  26
ATOM     26  C   UNL     1       7.471  -6.384  -1.717  0.00  0.00    -0.061 A 
ATOM     27  C   UNL     1       8.762  -6.380  -1.222  0.00  0.00    +0.003 A 
ATOM     28  C   UNL     1       9.798  -5.888  -1.994  0.00  0.00    +0.023 A 
ATOM     29  C   UNL     1       9.544  -5.400  -3.263  0.00  0.00    +0.076 A 
ATOM     30  C   UNL     1       8.251  -5.404  -3.759  0.00  0.00    +0.142 A 
ATOM     31  C   UNL     1       7.215  -5.902  -2.987  0.00  0.00    +0.041 A 
ATOM     32  F   UNL     1       8.001  -4.927  -4.998  0.00  0.00    -0.204 F 
ATOM     33 CL   UNL     1      10.845  -4.782  -4.232  0.00  0.00    -0.081 Cl
ENDBRANCH  25  26
ENDBRANCH   7  25
TORSDOF 8
