REMARK  Name = ZINC36307484
REMARK  16 active torsions:
REMARK  status: ('A' for Active; 'I' for Inactive)
REMARK    1  A    between atoms: C_1  and  C_2
REMARK    2  A    between atoms: C_2  and  C_3
REMARK    3  A    between atoms: C_2  and  O_4
REMARK    4  A    between atoms: O_4  and  C_5
REMARK    5  A    between atoms: C_5  and  C_6
REMARK    6  A    between atoms: C_6  and  C_8
REMARK    7  A    between atoms: C_6  and  O_37
REMARK    8  A    between atoms: C_8  and  N_9
REMARK    9  A    between atoms: N_9  and  C_10
REMARK   10  A    between atoms: N_9  and  C_16
REMARK   11  A    between atoms: C_10  and  C_11
REMARK   12  A    between atoms: C_16  and  C_17
REMARK   13  A    between atoms: C_18  and  C_31
REMARK   14  A    between atoms: N_20  and  C_30
REMARK   15  A    between atoms: C_21  and  O_22
REMARK   16  A    between atoms: O_22  and  C_23
REMARK                            x       y       z     vdW  Elec       q    Type
REMARK                         _______ _______ _______ _____ _____    ______ ____
ROOT
ATOM      1  C   UNL     1      -6.496  -5.951  -2.335  0.00  0.00    +0.025 A 
ATOM      2  C   UNL     1      -7.220  -6.894  -1.581  0.00  0.00    +0.098 A 
ATOM      3  N   UNL     1      -8.386  -7.075  -2.164  0.00  0.00    -0.168 NA
ATOM      4  N   UNL     1      -8.442  -6.258  -3.300  0.00  0.00    -0.235 N 
ATOM      5  C   UNL     1      -7.272  -5.572  -3.382  0.00  0.00    +0.221 A 
ATOM      6  C   UNL     1      -9.567  -6.156  -4.233  0.00  0.00    +0.176 C 
ENDROOT
BRANCH   2   7
ATOM      7  C   UNL     1      -6.750  -7.567  -0.345  0.00  0.00    +0.002 A 
ATOM      8  C   UNL     1      -5.449  -8.059  -0.268  0.00  0.00    +0.010 A 
ATOM      9  C   UNL     1      -5.017  -8.684   0.884  0.00  0.00    +0.001 A 
ATOM     10  C   UNL     1      -5.873  -8.823   1.961  0.00  0.00    +0.000 A 
ATOM     11  C   UNL     1      -7.167  -8.337   1.890  0.00  0.00    +0.001 A 
ATOM     12  C   UNL     1      -7.607  -7.705   0.745  0.00  0.00    +0.010 A 
ENDBRANCH   2   7
BRANCH   1  13
ATOM     13  C   UNL     1      -5.109  -5.447  -2.030  0.00  0.00    -0.035 C 
BRANCH  13  14
ATOM     14  N   UNL     1      -5.199  -4.176  -1.299  0.00  0.00    +0.389 N 
ATOM     15  H   UNL     1      -5.771  -3.529  -1.820  0.00  0.00    -0.081 HD
BRANCH  14  16
ATOM     16  C   UNL     1      -5.803  -4.412   0.020  0.00  0.00    -0.044 C 
BRANCH  16  17
ATOM     17  C   UNL     1      -6.012  -3.074   0.731  0.00  0.00    +0.124 C 
BRANCH  17  18
ATOM     18  O   UNL     1      -6.969  -2.295   0.010  0.00  0.00    -0.391 OA
ATOM     19  H   UNL     1      -7.837  -2.714  -0.070  0.00  0.00    +0.210 HD
ENDBRANCH  17  18
BRANCH  17  20
ATOM     20  C   UNL     1      -6.524  -3.325   2.151  0.00  0.00    +0.189 C 
BRANCH  20  21
ATOM     21  O   UNL     1      -6.608  -2.084   2.854  0.00  0.00    -0.375 OA
BRANCH  21  23
ATOM     22  C   UNL     1      -6.466  -1.100   5.057  0.00  0.00    +0.037 C 
ATOM     23  C   UNL     1      -7.079  -2.208   4.197  0.00  0.00    +0.112 C 
ATOM     24  C   UNL     1      -8.604  -2.084   4.217  0.00  0.00    +0.037 C 
ENDBRANCH  21  23
ENDBRANCH  20  21
ENDBRANCH  17  20
ENDBRANCH  16  17
ENDBRANCH  14  16
BRANCH  14  25
ATOM     25  C   UNL     1      -3.853  -3.613  -1.127  0.00  0.00    -0.003 C 
BRANCH  25  26
ATOM     26  C   UNL     1      -3.285  -3.251  -2.475  0.00  0.00    +0.089 A 
ATOM     27  C   UNL     1      -3.359  -2.042  -3.061  0.00  0.00    +0.042 A 
ATOM     28  C   UNL     1      -2.699  -2.150  -4.307  0.00  0.00    +0.041 A 
ATOM     29  C   UNL     1      -2.261  -3.417  -4.407  0.00  0.00    +0.195 A 
ATOM     30  O   UNL     1      -2.613  -4.078  -3.293  0.00  0.00    -0.470 OA
ENDBRANCH  25  26
ENDBRANCH  14  25
ENDBRANCH  13  14
ENDBRANCH   1  13
BRANCH   5  31
ATOM     31  O   UNL     1      -6.938  -4.672  -4.341  0.00  0.00    -0.438 OA
BRANCH  31  32
ATOM     32  C   UNL     1      -6.399  -5.141  -5.497  0.00  0.00    +0.131 A 
ATOM     33  C   UNL     1      -6.307  -6.508  -5.715  0.00  0.00    +0.049 A 
ATOM     34  C   UNL     1      -5.758  -6.984  -6.891  0.00  0.00    +0.042 A 
ATOM     35  C   UNL     1      -5.301  -6.097  -7.851  0.00  0.00    +0.124 A 
ATOM     36  C   UNL     1      -5.393  -4.732  -7.635  0.00  0.00    +0.042 A 
ATOM     37  C   UNL     1      -5.946  -4.254  -6.463  0.00  0.00    +0.049 A 
ATOM     38  F   UNL     1      -4.764  -6.564  -8.999  0.00  0.00    -0.205 F 
ENDBRANCH  31  32
ENDBRANCH   5  31
TORSDOF 13
