REMARK  Name = ZINC10027285
REMARK  8 active torsions:
REMARK  status: ('A' for Active; 'I' for Inactive)
REMARK    1  A    between atoms: C_1  and  C_2
REMARK    2  A    between atoms: C_3  and  C_31
REMARK    3  A    between atoms: C_9  and  O_13
REMARK    4  A    between atoms: O_13  and  C_14
REMARK    5  A    between atoms: C_14  and  C_16
REMARK    6  A    between atoms: C_14  and  C_17
REMARK    7  A    between atoms: N_19  and  C_20
REMARK    8  A    between atoms: C_21  and  C_28
REMARK                            x       y       z     vdW  Elec       q    Type
REMARK                         _______ _______ _______ _____ _____    ______ ____
ROOT
ATOM      1  O   UNL     1      -2.417   3.791   0.045  0.00  0.00    -0.480 OA
ENDROOT
BRANCH   1  10
ATOM      2  C   UNL     1       4.739   4.122   0.630  0.00  0.00    +0.087 C 
ATOM      3  C   UNL     1       3.497   3.268   0.651  0.00  0.00    +0.114 A 
ATOM      4  C   UNL     1       3.626   1.933   0.867  0.00  0.00    +0.067 A 
ATOM      5  C   UNL     1       2.413   1.099   0.888  0.00  0.00    +0.200 A 
ATOM      6  O   UNL     1       2.467  -0.104   1.077  0.00  0.00    -0.286 OA
ATOM      7  C   UNL     1       1.129   1.789   0.668  0.00  0.00    +0.065 A 
ATOM      8  C   UNL     1      -0.079   1.089   0.667  0.00  0.00    +0.019 A 
ATOM      9  C   UNL     1      -1.250   1.759   0.454  0.00  0.00    +0.046 A 
ATOM     10  C   UNL     1      -1.245   3.137   0.250  0.00  0.00    +0.125 A 
ATOM     11  C   UNL     1      -0.055   3.845   0.248  0.00  0.00    +0.092 A 
ATOM     12  C   UNL     1       1.145   3.179   0.457  0.00  0.00    +0.142 A 
ATOM     13  O   UNL     1       2.312   3.853   0.457  0.00  0.00    -0.459 OA
BRANCH   4  14
ATOM     14  C   UNL     1       4.964   1.328   1.079  0.00  0.00    -0.011 A 
ATOM     15  C   UNL     1       5.904   1.331   0.050  0.00  0.00    +0.009 A 
ATOM     16  C   UNL     1       7.148   0.771   0.255  0.00  0.00    +0.001 A 
ATOM     17  C   UNL     1       7.460   0.197   1.474  0.00  0.00    +0.000 A 
ATOM     18  C   UNL     1       6.528   0.186   2.497  0.00  0.00    +0.001 A 
ATOM     19  C   UNL     1       5.283   0.748   2.306  0.00  0.00    +0.009 A 
ENDBRANCH   4  14
ENDBRANCH   1  10
BRANCH   1  20
ATOM     20  C   UNL     1      -3.596   2.991  -0.058  0.00  0.00    +0.256 C 
ATOM     21  C   UNL     1      -4.134   2.692   1.343  0.00  0.00    +0.062 C 
BRANCH  20  22
ATOM     22  C   UNL     1      -4.641   3.736  -0.849  0.00  0.00    +0.258 C 
ATOM     23  O   UNL     1      -4.398   4.843  -1.282  0.00  0.00    -0.271 OA
ATOM     24  N   UNL     1      -5.843   3.172  -1.076  0.00  0.00    -0.276 N 
ATOM     25  H   UNL     1      -6.037   2.287  -0.730  0.00  0.00    +0.155 HD
BRANCH  24  26
ATOM     26  C   UNL     1      -6.804   3.857  -1.804  0.00  0.00    +0.084 A 
ATOM     27  C   UNL     1      -8.082   3.447  -2.142  0.00  0.00    +0.068 A 
ATOM     28  C   UNL     1      -8.906   4.371  -2.921  0.00  0.00    -0.023 A 
ATOM     29  C   UNL     1      -8.314   5.537  -3.237  0.00  0.00    -0.004 A 
ATOM     30  S   UNL     1      -6.694   5.431  -2.516  0.00  0.00    -0.077 S 
ATOM     31  C   UNL     1      -9.221   6.430  -4.039  0.00  0.00    +0.043 C 
ATOM     32  C   UNL     1     -10.634   5.845  -3.824  0.00  0.00    +0.010 C 
ATOM     33  C   UNL     1     -10.319   4.370  -3.508  0.00  0.00    +0.037 C 
BRANCH  27  34
ATOM     34  C   UNL     1      -8.593   2.135  -1.731  0.00  0.00    +0.244 C 
ATOM     35  O   UNL     1      -9.177   2.015  -0.670  0.00  0.00    -0.270 OA
ATOM     36  N   UNL     1      -8.415   1.063  -2.528  0.00  0.00    -0.325 N 
ATOM     37  H   UNL     1      -7.950   1.159  -3.373  0.00  0.00    +0.145 HD
ATOM     38  H   UNL     1      -8.753   0.196  -2.256  0.00  0.00    +0.145 HD
ENDBRANCH  27  34
ENDBRANCH  24  26
ENDBRANCH  20  22
ENDBRANCH   1  20
TORSDOF 6
