REMARK  Name = ZINC21237465
REMARK  6 active torsions:
REMARK  status: ('A' for Active; 'I' for Inactive)
REMARK    1  A    between atoms: C_1  and  C_2
REMARK    2  A    between atoms: N_11  and  C_15
REMARK    3  A    between atoms: C_15  and  C_16
REMARK    4  A    between atoms: N_18  and  C_19
REMARK    5  A    between atoms: C_19  and  C_21
REMARK    6  A    between atoms: C_19  and  C_27
REMARK                            x       y       z     vdW  Elec       q    Type
REMARK                         _______ _______ _______ _____ _____    ______ ____
ROOT
ATOM      1  C   UNL     1      -3.260  -1.886   2.395  0.00  0.00    +0.232 C 
ATOM      2  O   UNL     1      -2.349  -2.223   1.669  0.00  0.00    -0.274 OA
ATOM      3  N   UNL     1      -4.237  -2.763   2.700  0.00  0.00    -0.303 N 
ATOM      4  H   UNL     1      -5.064  -2.458   3.359  0.00  0.00    +0.150 HD
ENDROOT
BRANCH   1   5
ATOM      5  C   UNL     1      -3.301  -0.488   2.955  0.00  0.00    +0.213 C 
BRANCH   5  15
ATOM      6  C   UNL     1      -1.536   3.561   2.539  0.00  0.00    +0.010 C 
ATOM      7  C   UNL     1      -0.790   3.101   1.286  0.00  0.00    +0.018 C 
ATOM      8  C   UNL     1      -1.527   3.600   0.040  0.00  0.00    +0.006 C 
ATOM      9  C   UNL     1      -0.790   3.122  -1.213  0.00  0.00    +0.000 C 
ATOM     10  C   UNL     1      -0.753   1.593  -1.233  0.00  0.00    +0.003 C 
ATOM     11  C   UNL     1      -0.013   1.086   0.008  0.00  0.00    +0.035 C 
ATOM     12  C   UNL     1      -0.726   1.577   1.263  0.00  0.00    +0.115 C 
ATOM     13  C   UNL     1      -2.117   0.991   1.342  0.00  0.00    +0.247 C 
ATOM     14  O   UNL     1      -3.023   1.142   0.552  0.00  0.00    -0.273 OA
ATOM     15  N   UNL     1      -2.136   0.263   2.478  0.00  0.00    -0.215 N 
ATOM     16  C   UNL     1      -0.960   0.312   3.115  0.00  0.00    +0.310 C 
ATOM     17  O   UNL     1      -0.734  -0.264   4.161  0.00  0.00    -0.252 OA
ATOM     18  N   UNL     1      -0.056   1.072   2.468  0.00  0.00    -0.285 N 
ATOM     19  H   UNL     1       0.989   1.346   2.672  0.00  0.00    +0.151 HD
ENDBRANCH   5  15
ENDBRANCH   1   5
BRANCH   3  20
ATOM     20  C   UNL     1      -4.198  -4.123   2.156  0.00  0.00    +0.134 C 
BRANCH  20  21
ATOM     21  C   UNL     1      -5.595  -4.684   2.104  0.00  0.00    -0.023 A 
ATOM     22  C   UNL     1      -6.474  -4.446   3.145  0.00  0.00    +0.007 A 
ATOM     23  C   UNL     1      -7.758  -4.955   3.096  0.00  0.00    +0.020 A 
ATOM     24  C   UNL     1      -8.160  -5.713   2.010  0.00  0.00    +0.041 A 
ATOM     25  C   UNL     1      -7.278  -5.956   0.972  0.00  0.00    +0.020 A 
ATOM     26  C   UNL     1      -5.996  -5.441   1.020  0.00  0.00    +0.007 A 
ATOM     27 CL   UNL     1      -9.770  -6.360   1.951  0.00  0.00    -0.084 Cl
ENDBRANCH  20  21
BRANCH  20  28
ATOM     28  C   UNL     1      -3.339  -4.992   3.038  0.00  0.00    -0.023 A 
ATOM     29  C   UNL     1      -3.401  -4.857   4.412  0.00  0.00    +0.006 A 
ATOM     30  C   UNL     1      -2.617  -5.658   5.221  0.00  0.00    +0.000 A 
ATOM     31  C   UNL     1      -1.764  -6.588   4.656  0.00  0.00    +0.000 A 
ATOM     32  C   UNL     1      -1.699  -6.719   3.281  0.00  0.00    +0.000 A 
ATOM     33  C   UNL     1      -2.486  -5.921   2.473  0.00  0.00    +0.006 A 
ENDBRANCH  20  28
ENDBRANCH   3  20
TORSDOF 5
