REMARK  Name = ZINC16750384
REMARK  6 active torsions:
REMARK  status: ('A' for Active; 'I' for Inactive)
REMARK    1  A    between atoms: C_1  and  C_2
REMARK    2  A    between atoms: C_5  and  C_8
REMARK    3  A    between atoms: C_11  and  C_22
REMARK    4  A    between atoms: N_18  and  C_19
REMARK    5  A    between atoms: C_19  and  C_20
REMARK    6  A    between atoms: C_27  and  O_28
REMARK                            x       y       z     vdW  Elec       q    Type
REMARK                         _______ _______ _______ _____ _____    ______ ____
ROOT
ATOM      1  C   UNL     1       0.228  -3.875   0.250  0.00  0.00    +0.142 C 
ATOM      2  C   UNL     1       1.544  -4.604   0.231  0.00  0.00    +0.035 A 
ATOM      3  C   UNL     1       2.764  -4.818  -0.419  0.00  0.00    +0.102 A 
ATOM      4  N   UNL     1       3.434  -5.710   0.283  0.00  0.00    -0.173 NA
ATOM      5  N   UNL     1       2.758  -6.081   1.312  0.00  0.00    -0.272 N 
ATOM      6  H   UNL     1       3.055  -6.729   1.970  0.00  0.00    +0.189 HD
ATOM      7  C   UNL     1       1.560  -5.425   1.341  0.00  0.00    +0.126 A 
ATOM      8  C   UNL     1       0.300  -5.247   2.071  0.00  0.00    +0.266 C 
ATOM      9  O   UNL     1       0.003  -5.830   3.097  0.00  0.00    -0.268 OA
ATOM     10  N   UNL     1      -0.483  -4.348   1.445  0.00  0.00    -0.281 N 
ENDROOT
BRANCH   1  15
ATOM     11  C   UNL     1       1.120   1.824   0.591  0.00  0.00    +0.044 C 
ATOM     12  C   UNL     1       0.887   0.338   0.502  0.00  0.00    -0.050 A 
ATOM     13  C   UNL     1       1.191  -0.475   1.579  0.00  0.00    +0.004 A 
ATOM     14  C   UNL     1       0.977  -1.838   1.497  0.00  0.00    +0.006 A 
ATOM     15  C   UNL     1       0.460  -2.389   0.340  0.00  0.00    -0.022 A 
ATOM     16  C   UNL     1       0.156  -1.576  -0.737  0.00  0.00    +0.006 A 
ATOM     17  C   UNL     1       0.365  -0.212  -0.653  0.00  0.00    +0.004 A 
ENDBRANCH   1  15
BRANCH   3  18
ATOM     18  C   UNL     1       3.220  -4.161  -1.670  0.00  0.00    +0.044 A 
ATOM     19  C   UNL     1       2.358  -3.327  -2.376  0.00  0.00    +0.014 A 
ATOM     20  C   UNL     1       2.787  -2.719  -3.539  0.00  0.00    +0.001 A 
ATOM     21  C   UNL     1       4.072  -2.935  -4.005  0.00  0.00    +0.004 A 
ATOM     22  C   UNL     1       4.935  -3.762  -3.312  0.00  0.00    +0.046 A 
ATOM     23  C   UNL     1       4.519  -4.374  -2.140  0.00  0.00    +0.126 A 
BRANCH  23  24
ATOM     24  O   UNL     1       5.369  -5.181  -1.454  0.00  0.00    -0.506 OA
ATOM     25  H   UNL     1       5.333  -6.109  -1.723  0.00  0.00    +0.292 HD
ENDBRANCH  23  24
ENDBRANCH   3  18
BRANCH  10  26
ATOM     26  C   UNL     1      -1.813  -3.915   1.880  0.00  0.00    +0.135 C 
BRANCH  26  27
ATOM     27  C   UNL     1      -2.858  -4.810   1.265  0.00  0.00    -0.016 C 
ATOM     28  C   UNL     1      -3.725  -5.427   2.030  0.00  0.00    +0.005 C 
ENDBRANCH  26  27
ENDBRANCH  10  26
TORSDOF 5
