REMARK  Name = ZINC38936242
REMARK  8 active torsions:
REMARK  status: ('A' for Active; 'I' for Inactive)
REMARK    1  A    between atoms: C_1  and  C_2
REMARK    2  A    between atoms: C_2  and  O_3
REMARK    3  A    between atoms: O_3  and  C_4
REMARK    4  A    between atoms: C_6  and  C_11
REMARK    5  A    between atoms: C_9  and  O_10
REMARK    6  A    between atoms: N_12  and  N_13
REMARK    7  A    between atoms: C_14  and  C_16
REMARK    8  A    between atoms: C_19  and  C_21
REMARK                            x       y       z     vdW  Elec       q    Type
REMARK                         _______ _______ _______ _____ _____    ______ ____
ROOT
ATOM      1  N   UNL     1      -0.644  -7.119   1.244  0.00  0.00    -0.202 N 
ATOM      2  C   UNL     1      -0.536  -8.452   1.078  0.00  0.00    +0.280 C 
ATOM      3  O   UNL     1       0.028  -8.900   0.097  0.00  0.00    -0.267 OA
ATOM      4  H   UNL     1      -1.094  -6.763   2.026  0.00  0.00    +0.178 HD
ENDROOT
BRANCH   2   5
ATOM      5  C   UNL     1      -1.081  -9.334   2.047  0.00  0.00    +0.132 C 
ATOM      6  N   UNL     1      -1.718  -9.014   3.147  0.00  0.00    -0.148 NA
ATOM      7  N   UNL     1      -2.103 -10.012   3.841  0.00  0.00    -0.152 NA
ATOM      8  C   UNL     1      -1.787 -11.184   3.322  0.00  0.00    +0.083 C 
ATOM      9  C   UNL     1      -1.057 -10.853   2.031  0.00  0.00    +0.121 C 
BRANCH   8  10
ATOM     10  C   UNL     1      -2.070 -12.458   3.845  0.00  0.00    +0.037 A 
ATOM     11  C   UNL     1      -2.747 -12.798   5.019  0.00  0.00    +0.018 A 
ATOM     12  C   UNL     1      -2.867 -14.139   5.266  0.00  0.00    +0.023 A 
ATOM     13  C   UNL     1      -2.337 -15.026   4.380  0.00  0.00    +0.055 A 
ATOM     14  S   UNL     1      -1.664 -14.062   3.180  0.00  0.00    -0.080 S 
ATOM     15 BR   UNL     1      -2.360 -16.915   4.473  0.00  0.00    -0.043 Br
ENDBRANCH   8  10
ENDBRANCH   2   5
BRANCH   1  17
ATOM     16  C   UNL     1      -0.210  -4.964   0.447  0.00  0.00    +0.138 C 
ATOM     17  N   UNL     1      -0.107  -6.248   0.287  0.00  0.00    -0.187 NA
BRANCH  16  20
ATOM     18  C   UNL     1       0.777  -1.811  -1.336  0.00  0.00    +0.162 A 
ATOM     19  C   UNL     1       0.244  -2.665  -0.389  0.00  0.00    +0.059 A 
ATOM     20  C   UNL     1       0.355  -4.048  -0.559  0.00  0.00    -0.002 A 
ATOM     21  C   UNL     1       1.004  -4.560  -1.687  0.00  0.00    +0.013 A 
ATOM     22  C   UNL     1       1.532  -3.701  -2.627  0.00  0.00    +0.050 A 
ATOM     23  C   UNL     1       1.417  -2.329  -2.460  0.00  0.00    +0.158 A 
BRANCH  23  24
ATOM     24  O   UNL     1       1.935  -1.486  -3.393  0.00  0.00    -0.503 OA
ATOM     25  H   UNL     1       2.854  -1.235  -3.229  0.00  0.00    +0.292 HD
ENDBRANCH  23  24
BRANCH  18  26
ATOM     26  O   UNL     1       0.671  -0.465  -1.174  0.00  0.00    -0.489 OA
BRANCH  26  28
ATOM     27  C   UNL     1      -0.019   1.526   0.010  0.00  0.00    +0.048 C 
ATOM     28  C   UNL     1       0.002  -0.004   0.002  0.00  0.00    +0.226 C 
ENDBRANCH  26  28
ENDBRANCH  18  26
ENDBRANCH  16  20
ENDBRANCH   1  17
TORSDOF 7
