REMARK  Name = ZINC13408046
REMARK  13 active torsions:
REMARK  status: ('A' for Active; 'I' for Inactive)
REMARK    1  A    between atoms: C_1  and  C_2
REMARK    2  A    between atoms: C_2  and  O_3
REMARK    3  A    between atoms: O_3  and  C_4
REMARK    4  A    between atoms: C_4  and  C_6
REMARK    5  A    between atoms: C_8  and  C_29
REMARK    6  A    between atoms: C_9  and  C_24
REMARK    7  A    between atoms: C_11  and  C_19
REMARK    8  A    between atoms: C_11  and  O_23
REMARK    9  A    between atoms: C_13  and  C_14
REMARK   10  A    between atoms: C_13  and  O_18
REMARK   11  A    between atoms: C_24  and  O_26
REMARK   12  A    between atoms: O_26  and  C_27
REMARK   13  A    between atoms: C_27  and  C_28
REMARK                            x       y       z     vdW  Elec       q    Type
REMARK                         _______ _______ _______ _____ _____    ______ ____
ROOT
ATOM      1  C   UNL     1       0.995  -2.378  -2.617  0.00  0.00    +0.162 C 
ATOM      2  C   UNL     1       1.111  -3.742  -1.932  0.00  0.00    +0.055 C 
ATOM      3  C   UNL     1       2.360  -3.755  -1.046  0.00  0.00    +0.162 C 
ATOM      4  C   UNL     1       3.590  -3.448  -1.903  0.00  0.00    +0.230 C 
ATOM      5  N   UNL     1       3.431  -2.132  -2.536  0.00  0.00    -0.245 NA
ATOM      6  C   UNL     1       2.264  -2.109  -3.429  0.00  0.00    +0.230 C 
ATOM      7  H   UNL     1       3.369  -1.402  -1.842  0.00  0.00    +0.128 HD
ENDROOT
BRANCH   2   8
ATOM      8  C   UNL     1      -0.110  -3.986  -1.084  0.00  0.00    -0.042 A 
ATOM      9  C   UNL     1      -0.288  -3.277   0.090  0.00  0.00    +0.007 A 
ATOM     10  C   UNL     1      -1.408  -3.499   0.869  0.00  0.00    +0.038 A 
ATOM     11  C   UNL     1      -2.353  -4.431   0.472  0.00  0.00    +0.123 A 
ATOM     12  C   UNL     1      -2.173  -5.140  -0.703  0.00  0.00    +0.038 A 
ATOM     13  C   UNL     1      -1.055  -4.913  -1.483  0.00  0.00    +0.007 A 
ATOM     14  F   UNL     1      -3.448  -4.649   1.233  0.00  0.00    -0.205 F 
ENDBRANCH   2   8
BRANCH   6  15
ATOM     15  C   UNL     1       2.160  -0.738  -4.099  0.00  0.00    +0.433 C 
ATOM     16  F   UNL     1       2.143   0.260  -3.119  0.00  0.00    -0.166 F 
ATOM     17  F   UNL     1       3.261  -0.545  -4.940  0.00  0.00    -0.166 F 
ATOM     18  F   UNL     1       0.982  -0.674  -4.851  0.00  0.00    -0.166 F 
ENDBRANCH   6  15
BRANCH   4  19
ATOM     19  C   UNL     1       4.839  -3.440  -1.018  0.00  0.00    +0.433 C 
ATOM     20  F   UNL     1       4.960  -4.675  -0.372  0.00  0.00    -0.166 F 
ATOM     21  F   UNL     1       5.970  -3.215  -1.810  0.00  0.00    -0.166 F 
ATOM     22  F   UNL     1       4.728  -2.423  -0.064  0.00  0.00    -0.166 F 
ENDBRANCH   4  19
BRANCH   1  23
ATOM     23  C   UNL     1       0.829  -1.304  -1.573  0.00  0.00    +0.315 C 
ATOM     24  O   UNL     1       1.698  -1.116  -0.755  0.00  0.00    -0.250 OA
BRANCH  23  25
ATOM     25  O   UNL     1      -0.285  -0.554  -1.553  0.00  0.00    -0.465 OA
BRANCH  25  27
ATOM     26  C   UNL     1      -1.704   1.191  -0.671  0.00  0.00    +0.048 C 
ATOM     27  C   UNL     1      -0.375   0.445  -0.536  0.00  0.00    +0.229 C 
ENDBRANCH  25  27
ENDBRANCH  23  25
ENDBRANCH   1  23
BRANCH   6  28
ATOM     28  O   UNL     1       2.412  -3.119  -4.430  0.00  0.00    -0.366 OA
ATOM     29  H   UNL     1       3.197  -3.011  -4.984  0.00  0.00    +0.212 HD
ENDBRANCH   6  28
BRANCH   4  30
ATOM     30  O   UNL     1       3.729  -4.448  -2.913  0.00  0.00    -0.366 OA
ATOM     31  H   UNL     1       4.491  -4.317  -3.495  0.00  0.00    +0.212 HD
ENDBRANCH   4  30
BRANCH   3  32
ATOM     32  C   UNL     1       2.514  -5.114  -0.413  0.00  0.00    +0.315 C 
ATOM     33  O   UNL     1       2.117  -6.098  -0.991  0.00  0.00    -0.250 OA
BRANCH  32  34
ATOM     34  O   UNL     1       3.092  -5.232   0.792  0.00  0.00    -0.465 OA
BRANCH  34  35
ATOM     35  C   UNL     1       3.205  -6.550   1.332  0.00  0.00    +0.229 C 
ATOM     36  C   UNL     1       3.885  -6.484   2.701  0.00  0.00    +0.048 C 
ENDBRANCH  34  35
ENDBRANCH  32  34
ENDBRANCH   3  32
TORSDOF 11
