REMARK  Name = ZINC39545656
REMARK  9 active torsions:
REMARK  status: ('A' for Active; 'I' for Inactive)
REMARK    1  A    between atoms: C_1  and  C_2
REMARK    2  A    between atoms: C_2  and  O_3
REMARK    3  A    between atoms: O_3  and  C_4
REMARK    4  A    between atoms: C_7  and  C_19
REMARK    5  A    between atoms: N_21  and  C_22
REMARK    6  A    between atoms: N_21  and  S_29
REMARK    7  A    between atoms: C_27  and  O_28
REMARK    8  A    between atoms: S_29  and  O_32
REMARK    9  A    between atoms: O_32  and  C_33
REMARK                            x       y       z     vdW  Elec       q    Type
REMARK                         _______ _______ _______ _____ _____    ______ ____
ROOT
ATOM      1  C   UNL     1       2.432  -3.396  -4.770  0.00  0.00    +0.264 C 
ATOM      2  O   UNL     1       3.533  -2.973  -5.052  0.00  0.00    -0.271 OA
ATOM      3  N   UNL     1       1.693  -4.026  -5.705  0.00  0.00    -0.105 N 
ENDROOT
BRANCH   1   6
ATOM      4  C   UNL     1       1.622  -1.470  -1.774  0.00  0.00    +0.182 C 
ATOM      5  C   UNL     1       1.234  -1.827  -3.229  0.00  0.00    +0.073 C 
ATOM      6  C   UNL     1       1.891  -3.219  -3.375  0.00  0.00    +0.174 C 
ATOM      7  N   UNL     1       2.986  -3.240  -2.395  0.00  0.00    -0.345 N 
ATOM      8  C   UNL     1       2.859  -2.296  -1.512  0.00  0.00    +0.105 C 
ATOM      9  N   UNL     1       3.755  -2.092  -0.486  0.00  0.00    -0.302 N 
ATOM     10  C   UNL     1       5.005  -2.721  -0.578  0.00  0.00    +0.037 A 
ATOM     11  C   UNL     1       6.043  -2.314   0.250  0.00  0.00    +0.023 A 
ATOM     12  C   UNL     1       7.277  -2.927   0.160  0.00  0.00    +0.002 A 
ATOM     13  C   UNL     1       7.476  -3.944  -0.755  0.00  0.00    +0.000 A 
ATOM     14  C   UNL     1       6.444  -4.351  -1.579  0.00  0.00    +0.007 A 
ATOM     15  C   UNL     1       5.203  -3.744  -1.493  0.00  0.00    -0.007 A 
ATOM     16  C   UNL     1       4.090  -4.210  -2.402  0.00  0.00    +0.155 C 
ATOM     17  H   UNL     1       3.530  -1.532   0.274  0.00  0.00    +0.153 HD
BRANCH   4  18
ATOM     18  O   UNL     1       1.917  -0.076  -1.662  0.00  0.00    -0.369 OA
BRANCH  18  20
ATOM     19  C   UNL     1       2.017   1.957  -0.360  0.00  0.00    +0.034 C 
ATOM     20  C   UNL     1       1.668   0.468  -0.364  0.00  0.00    +0.157 C 
ENDBRANCH  18  20
ENDBRANCH   4  18
ENDBRANCH   1   6
BRANCH   3  21
ATOM     21  C   UNL     1       2.216  -4.235  -6.987  0.00  0.00    +0.104 A 
ATOM     22  C   UNL     1       2.514  -5.521  -7.416  0.00  0.00    +0.029 A 
ATOM     23  C   UNL     1       3.030  -5.725  -8.681  0.00  0.00    +0.002 A 
ATOM     24  C   UNL     1       3.251  -4.651  -9.524  0.00  0.00    +0.004 A 
ATOM     25  C   UNL     1       2.956  -3.367  -9.104  0.00  0.00    +0.047 A 
ATOM     26  C   UNL     1       2.434  -3.154  -7.838  0.00  0.00    +0.140 A 
BRANCH  26  27
ATOM     27  O   UNL     1       2.139  -1.892  -7.426  0.00  0.00    -0.505 OA
ATOM     28  H   UNL     1       2.893  -1.412  -7.059  0.00  0.00    +0.292 HD
ENDBRANCH  26  27
ENDBRANCH   3  21
BRANCH   3  29
ATOM     29  S   UNL     1       0.166  -4.552  -5.337  0.00  0.00    +0.217 S 
ATOM     30  O   UNL     1      -0.415  -4.996  -6.556  0.00  0.00    -0.115 OA
ATOM     31  O   UNL     1       0.290  -5.395  -4.200  0.00  0.00    -0.115 OA
BRANCH  29  32
ATOM     32  O   UNL     1      -0.634  -3.336  -4.892  0.00  0.00    -0.331 OA
BRANCH  32  33
ATOM     33  C   UNL     1      -0.965  -2.491  -5.904  0.00  0.00    +0.158 A 
ATOM     34  C   UNL     1      -0.175  -1.382  -6.170  0.00  0.00    +0.048 A 
ATOM     35  C   UNL     1      -0.514  -0.525  -7.200  0.00  0.00    +0.004 A 
ATOM     36  C   UNL     1      -1.639  -0.772  -7.964  0.00  0.00    +0.000 A 
ATOM     37  C   UNL     1      -2.428  -1.877  -7.701  0.00  0.00    +0.004 A 
ATOM     38  C   UNL     1      -2.090  -2.740  -6.677  0.00  0.00    +0.048 A 
ENDBRANCH  32  33
ENDBRANCH  29  32
ENDBRANCH   3  29
TORSDOF 8
