REMARK  Name = ZINC02441201
REMARK  12 active torsions:
REMARK  status: ('A' for Active; 'I' for Inactive)
REMARK    1  A    between atoms: C_1  and  C_2
REMARK    2  A    between atoms: C_2  and  O_3
REMARK    3  A    between atoms: O_3  and  C_4
REMARK    4  A    between atoms: C_7  and  C_13
REMARK    5  A    between atoms: C_9  and  O_10
REMARK    6  A    between atoms: O_10  and  C_11
REMARK    7  A    between atoms: C_11  and  C_12
REMARK    8  A    between atoms: C_13  and  C_14
REMARK    9  A    between atoms: C_14  and  N_15
REMARK   10  A    between atoms: C_22  and  C_34
REMARK   11  A    between atoms: C_28  and  C_32
REMARK   12  A    between atoms: C_28  and  C_33
REMARK                            x       y       z     vdW  Elec       q    Type
REMARK                         _______ _______ _______ _____ _____    ______ ____
ROOT
ATOM      1  N   UNL     1      -2.217  -8.065   1.423  0.00  0.00    -0.320 N 
ATOM      2  C   UNL     1      -3.425  -8.581   1.521  0.00  0.00    +0.204 A 
ATOM      3  N   UNL     1      -3.633  -9.882   1.522  0.00  0.00    -0.203 NA
ATOM      4  C   UNL     1      -2.614 -10.733   1.421  0.00  0.00    +0.229 A 
ATOM      5  C   UNL     1      -1.328 -10.231   1.315  0.00  0.00    +0.064 A 
ATOM      6  C   UNL     1      -1.147  -8.851   1.313  0.00  0.00    +0.107 A 
ATOM      7  N   UNL     1       0.123  -8.306   1.204  0.00  0.00    -0.344 N 
ATOM      8  C   UNL     1      -0.156 -11.161   1.198  0.00  0.00    +0.094 C 
ATOM      9  C   UNL     1      -0.539 -12.548   1.655  0.00  0.00    +0.045 C 
ATOM     10  C   UNL     1      -1.831 -12.912   1.747  0.00  0.00    +0.115 C 
ATOM     11  O   UNL     1      -2.827 -12.064   1.425  0.00  0.00    -0.441 OA
ATOM     12  C   UNL     1      -2.210 -14.294   2.226  0.00  0.00    +0.081 C 
ATOM     13  C   UNL     1      -1.129 -15.296   1.813  0.00  0.00    -0.021 C 
ATOM     14  C   UNL     1       0.203 -14.850   2.424  0.00  0.00    +0.086 C 
ATOM     15  C   UNL     1       0.498 -13.444   1.979  0.00  0.00    +0.164 C 
ATOM     16  O   UNL     1       1.652 -13.074   1.897  0.00  0.00    -0.292 OA
ATOM     17  C   UNL     1      -1.493 -16.688   2.332  0.00  0.00    +0.012 C 
ATOM     18  C   UNL     1      -1.011 -15.325   0.288  0.00  0.00    +0.012 C 
ATOM     19  H   UNL     1       0.238  -7.343   1.208  0.00  0.00    +0.144 HD
ATOM     20  H   UNL     1       0.895  -8.887   1.125  0.00  0.00    +0.144 HD
ENDROOT
BRANCH   8  21
ATOM     21  C   UNL     1       0.293 -11.219  -0.239  0.00  0.00    -0.035 A 
ATOM     22  C   UNL     1      -0.581 -11.649  -1.220  0.00  0.00    +0.004 A 
ATOM     23  C   UNL     1      -0.169 -11.703  -2.538  0.00  0.00    +0.000 A 
ATOM     24  C   UNL     1       1.118 -11.326  -2.876  0.00  0.00    +0.000 A 
ATOM     25  C   UNL     1       1.992 -10.896  -1.895  0.00  0.00    +0.000 A 
ATOM     26  C   UNL     1       1.578 -10.838  -0.577  0.00  0.00    +0.004 A 
ENDBRANCH   8  21
BRANCH   1  27
ATOM     27  C   UNL     1      -2.048  -6.610   1.429  0.00  0.00    +0.129 C 
BRANCH  27  28
ATOM     28  C   UNL     1      -1.996  -6.097  -0.011  0.00  0.00    +0.057 C 
BRANCH  28  32
ATOM     29  C   UNL     1      -1.498  -1.849   0.006  0.00  0.00    +0.162 A 
ATOM     30  C   UNL     1      -0.389  -2.680  -0.003  0.00  0.00    +0.050 A 
ATOM     31  C   UNL     1      -0.553  -4.052  -0.008  0.00  0.00    +0.007 A 
ATOM     32  C   UNL     1      -1.823  -4.600  -0.005  0.00  0.00    -0.042 A 
ATOM     33  C   UNL     1      -2.934  -3.777   0.004  0.00  0.00    +0.053 A 
ATOM     34  C   UNL     1      -2.776  -2.400   0.016  0.00  0.00    +0.162 A 
BRANCH  29  35
ATOM     35  O   UNL     1      -1.339  -0.499   0.012  0.00  0.00    -0.489 OA
BRANCH  35  37
ATOM     36  C   UNL     1      -0.019   1.526   0.010  0.00  0.00    +0.048 C 
ATOM     37  C   UNL     1       0.002  -0.004   0.002  0.00  0.00    +0.226 C 
ENDBRANCH  35  37
ENDBRANCH  29  35
BRANCH  34  38
ATOM     38  O   UNL     1      -3.868  -1.589   0.030  0.00  0.00    -0.489 OA
BRANCH  38  39
ATOM     39  C   UNL     1      -5.148  -2.225   0.039  0.00  0.00    +0.226 C 
ATOM     40  C   UNL     1      -6.246  -1.159   0.055  0.00  0.00    +0.048 C 
ENDBRANCH  38  39
ENDBRANCH  34  38
ENDBRANCH  28  32
ENDBRANCH  27  28
ENDBRANCH   1  27
TORSDOF 8
