REMARK  Name = ZINC12163384
REMARK  11 active torsions:
REMARK  status: ('A' for Active; 'I' for Inactive)
REMARK    1  A    between atoms: C_1  and  C_2
REMARK    2  A    between atoms: C_2  and  C_33
REMARK    3  A    between atoms: C_8  and  O_11
REMARK    4  A    between atoms: O_11  and  C_12
REMARK    5  A    between atoms: C_12  and  C_13
REMARK    6  A    between atoms: N_15  and  C_16
REMARK    7  A    between atoms: C_16  and  C_17
REMARK    8  A    between atoms: C_17  and  C_18
REMARK    9  A    between atoms: C_18  and  S_19
REMARK   10  A    between atoms: S_19  and  N_22
REMARK   11  A    between atoms: N_25  and  C_28
REMARK                            x       y       z     vdW  Elec       q    Type
REMARK                         _______ _______ _______ _____ _____    ______ ____
ROOT
ATOM      1  C   UNL     1      -2.913   6.277  -5.375  0.00  0.00    +0.106 C 
ENDROOT
BRANCH   1   4
ATOM      2  C   UNL     1      -2.977   7.569  -7.441  0.00  0.00    +0.251 C 
ATOM      3  O   UNL     1      -1.882   7.126  -7.717  0.00  0.00    -0.272 OA
ATOM      4  N   UNL     1      -3.580   7.206  -6.291  0.00  0.00    -0.312 N 
ATOM      5  H   UNL     1      -4.456   7.560  -6.071  0.00  0.00    +0.149 HD
BRANCH   2   6
ATOM      6  C   UNL     1      -3.663   8.524  -8.383  0.00  0.00    +0.324 C 
BRANCH   6   7
ATOM      7  O   UNL     1      -2.829   8.752  -9.521  0.00  0.00    -0.479 OA
BRANCH   7  15
ATOM      8  C   UNL     1      -1.573   8.354 -14.147  0.00  0.00    +0.056 C 
ATOM      9  C   UNL     1      -1.112   9.591 -13.374  0.00  0.00    +0.109 C 
ATOM     10  C   UNL     1      -2.020  10.804 -13.688  0.00  0.00    +0.086 C 
ATOM     11  C   UNL     1      -3.048  10.723 -12.576  0.00  0.00    +0.002 A 
ATOM     12  C   UNL     1      -4.282  11.315 -12.412  0.00  0.00    +0.007 A 
ATOM     13  C   UNL     1      -5.033  11.051 -11.281  0.00  0.00    +0.004 A 
ATOM     14  C   UNL     1      -4.543  10.191 -10.316  0.00  0.00    +0.049 A 
ATOM     15  C   UNL     1      -3.304   9.597 -10.475  0.00  0.00    +0.163 A 
ATOM     16  C   UNL     1      -2.537   9.868 -11.611  0.00  0.00    +0.166 A 
ATOM     17  O   UNL     1      -1.303   9.409 -11.961  0.00  0.00    -0.482 OA
ATOM     18  C   UNL     1       0.351   9.914 -13.687  0.00  0.00    +0.056 C 
ENDBRANCH   7  15
ENDBRANCH   6   7
ENDBRANCH   2   6
ENDBRANCH   1   4
BRANCH   1  19
ATOM     19  C   UNL     1      -3.806   6.034  -4.157  0.00  0.00    +0.043 C 
BRANCH  19  20
ATOM     20  C   UNL     1      -3.109   5.064  -3.200  0.00  0.00    +0.187 C 
BRANCH  20  21
ATOM     21  S   UNL     1      -4.167   4.775  -1.756  0.00  0.00    +0.032 S 
ATOM     22  O   UNL     1      -5.332   4.056  -2.138  0.00  0.00    -0.158 OA
ATOM     23  O   UNL     1      -4.270   5.960  -0.979  0.00  0.00    -0.158 OA
BRANCH  21  24
ATOM     24  N   UNL     1      -3.313   3.721  -0.806  0.00  0.00    -0.178 NA
ATOM     25  C   UNL     1      -2.381   4.214   0.219  0.00  0.00    +0.128 C 
ATOM     26  C   UNL     1      -1.031   3.514   0.026  0.00  0.00    +0.123 C 
ATOM     27  N   UNL     1      -1.233   2.059   0.019  0.00  0.00    -0.314 N 
ATOM     28  C   UNL     1      -2.073   1.644  -1.112  0.00  0.00    +0.123 C 
ATOM     29  C   UNL     1      -3.466   2.267  -0.966  0.00  0.00    +0.128 C 
BRANCH  27  30
ATOM     30  C   UNL     1      -0.017   1.387   0.010  0.00  0.00    +0.099 A 
ATOM     31  C   UNL     1       0.002  -0.004   0.002  0.00  0.00    +0.042 A 
ATOM     32  C   UNL     1       1.220  -0.660  -0.013  0.00  0.00    +0.005 A 
ATOM     33  C   UNL     1       2.382   0.100  -0.020  0.00  0.00    +0.018 A 
ATOM     34  C   UNL     1       2.289   1.477  -0.012  0.00  0.00    +0.084 A 
ATOM     35  N   UNL     1       1.111   2.155   0.003  0.00  0.00    -0.350 N 
ATOM     36  H   UNL     1       1.072   3.181   0.009  0.00  0.00    +0.166 HD
ENDBRANCH  27  30
ENDBRANCH  21  24
ENDBRANCH  20  21
ENDBRANCH  19  20
ENDBRANCH   1  19
TORSDOF 9
