REMARK  Name = ZINC63773474
REMARK  4 active torsions:
REMARK  status: ('A' for Active; 'I' for Inactive)
REMARK    1  A    between atoms: C_7  and  C_10
REMARK    2  A    between atoms: C_16  and  C_18
REMARK    3  A    between atoms: C_18  and  S_19
REMARK    4  A    between atoms: S_19  and  C_20
REMARK                            x       y       z     vdW  Elec       q    Type
REMARK                         _______ _______ _______ _____ _____    ______ ____
ROOT
ATOM      1  C   UNL     1       0.669  -3.134  -0.022  0.00  0.00    +0.079 A 
ATOM      2  C   UNL     1       1.141  -4.440  -0.030  0.00  0.00    +0.076 A 
ATOM      3  S   UNL     1      -0.282  -5.339  -0.023  0.00  0.00    -0.060 S 
ATOM      4  C   UNL     1      -1.446  -3.989  -0.011  0.00  0.00    +0.165 A 
ATOM      5  N   UNL     1      -0.655  -2.938  -0.008  0.00  0.00    -0.225 NA
ATOM      6  N   UNL     1      -2.832  -4.034  -0.003  0.00  0.00    -0.264 N 
ATOM      7  C   UNL     1      -3.467  -5.223  -0.003  0.00  0.00    +0.229 C 
ATOM      8  O   UNL     1      -2.827  -6.253  -0.010  0.00  0.00    -0.275 OA
ATOM      9  H   UNL     1      -3.345  -3.211   0.003  0.00  0.00    +0.157 HD
ENDROOT
BRANCH   1  16
ATOM     10  C   UNL     1      -0.016   1.353   0.009  0.00  0.00    +0.001 A 
ATOM     11  C   UNL     1       1.163   2.101   0.002  0.00  0.00    +0.002 A 
ATOM     12  C   UNL     1       2.384   1.511  -0.013  0.00  0.00    +0.026 A 
ATOM     13  C   UNL     1       2.484   0.096  -0.022  0.00  0.00    +0.043 A 
ATOM     14  N   UNL     1       3.532  -0.704  -0.037  0.00  0.00    -0.380 N 
ATOM     15  C   UNL     1       3.075  -2.097  -0.041  0.00  0.00    +0.151 C 
ATOM     16  C   UNL     1       1.563  -2.041  -0.025  0.00  0.00    +0.007 C 
ATOM     17  C   UNL     1       1.238  -0.688  -0.013  0.00  0.00    +0.005 A 
ATOM     18  C   UNL     1       0.002  -0.004   0.002  0.00  0.00    +0.010 A 
ATOM     19  H   UNL     1       4.458  -0.417  -0.045  0.00  0.00    +0.160 HD
ENDBRANCH   1  16
BRANCH   7  20
ATOM     20  C   UNL     1      -4.973  -5.273   0.006  0.00  0.00    +0.170 C 
BRANCH  20  21
ATOM     21  S   UNL     1      -5.521  -7.002   0.005  0.00  0.00    -0.088 S 
BRANCH  21  22
ATOM     22  C   UNL     1      -7.332  -6.889   0.016  0.00  0.00    +0.323 C 
ATOM     23  N   UNL     1      -7.785  -6.153   1.204  0.00  0.00    -0.298 N 
ATOM     24  C   UNL     1      -8.470  -5.025   0.728  0.00  0.00    +0.073 A 
ATOM     25  C   UNL     1      -9.102  -3.990   1.405  0.00  0.00    +0.027 A 
ATOM     26  C   UNL     1      -9.716  -2.975   0.697  0.00  0.00    +0.002 A 
ATOM     27  C   UNL     1      -9.703  -2.989  -0.685  0.00  0.00    +0.004 A 
ATOM     28  C   UNL     1      -9.075  -4.015  -1.364  0.00  0.00    +0.047 A 
ATOM     29  C   UNL     1      -8.454  -5.040  -0.662  0.00  0.00    +0.145 A 
ATOM     30  O   UNL     1      -7.785  -6.138  -1.113  0.00  0.00    -0.460 OA
ATOM     31  H   UNL     1      -7.640  -6.397   2.131  0.00  0.00    +0.150 HD
ENDBRANCH  21  22
ENDBRANCH  20  21
ENDBRANCH   7  20
TORSDOF 4
