REMARK  Name = ZINC02352570
REMARK  9 active torsions:
REMARK  status: ('A' for Active; 'I' for Inactive)
REMARK    1  A    between atoms: C_1  and  C_2
REMARK    2  A    between atoms: C_2  and  C_4
REMARK    3  A    between atoms: C_2  and  O_7
REMARK    4  A    between atoms: C_4  and  O_5
REMARK    5  A    between atoms: O_5  and  C_6
REMARK    6  A    between atoms: O_7  and  C_8
REMARK    7  A    between atoms: C_8  and  C_10
REMARK    8  A    between atoms: N_21  and  C_24
REMARK    9  A    between atoms: C_22  and  N_23
REMARK                            x       y       z     vdW  Elec       q    Type
REMARK                         _______ _______ _______ _____ _____    ______ ____
ROOT
ATOM      1  C   UNL     1       1.555  -2.056  -0.023  0.00  0.00    +0.126 A 
ATOM      2  C   UNL     1       1.157  -0.638  -0.013  0.00  0.00    +0.125 A 
ATOM      3  C   UNL     1       2.413   0.118  -0.020  0.00  0.00    +0.167 A 
ATOM      4  N   UNL     1       2.376   1.433  -0.014  0.00  0.00    -0.225 NA
ATOM      5  C   UNL     1       1.197   2.067   0.002  0.00  0.00    +0.092 A 
ATOM      6  C   UNL     1       1.149   3.474   0.010  0.00  0.00    +0.030 A 
ATOM      7  C   UNL     1      -0.053   4.110   0.025  0.00  0.00    +0.002 A 
ATOM      8  C   UNL     1      -1.246   3.389   0.032  0.00  0.00    +0.002 A 
ATOM      9  C   UNL     1      -1.240   2.029   0.019  0.00  0.00    +0.030 A 
ATOM     10  C   UNL     1      -0.016   1.334   0.009  0.00  0.00    +0.090 A 
ATOM     11  N   UNL     1       0.002  -0.004   0.002  0.00  0.00    -0.241 NA
ATOM     12  N   UNL     1       3.440  -0.806  -0.035  0.00  0.00    -0.280 N 
ATOM     13  C   UNL     1       2.946  -2.076  -0.036  0.00  0.00    +0.119 A 
ENDROOT
BRANCH  12  14
ATOM     14  C   UNL     1       4.803  -0.481  -0.046  0.00  0.00    +0.050 A 
ATOM     15  C   UNL     1       5.371   0.174   1.038  0.00  0.00    +0.027 A 
ATOM     16  C   UNL     1       6.716   0.489   1.026  0.00  0.00    +0.017 A 
ATOM     17  C   UNL     1       7.495   0.161  -0.069  0.00  0.00    +0.018 A 
ATOM     18  C   UNL     1       6.930  -0.488  -1.153  0.00  0.00    +0.017 A 
ATOM     19  C   UNL     1       5.587  -0.809  -1.144  0.00  0.00    +0.027 A 
ATOM     20 BR   UNL     1       9.334   0.600  -0.085  0.00  0.00    -0.050 Br
ENDBRANCH  12  14
BRANCH  13  21
ATOM     21  N   UNL     1       3.712  -3.212  -0.049  0.00  0.00    -0.343 N 
ATOM     22  H   UNL     1       3.286  -4.084  -0.050  0.00  0.00    +0.144 HD
ATOM     23  H   UNL     1       4.679  -3.145  -0.058  0.00  0.00    +0.144 HD
ENDBRANCH  13  21
BRANCH   1  24
ATOM     24  C   UNL     1       0.691  -3.178  -0.020  0.00  0.00    +0.345 C 
ATOM     25  O   UNL     1       0.310  -3.656  -1.073  0.00  0.00    -0.245 OA
BRANCH  24  26
ATOM     26  O   UNL     1       0.291  -3.719   1.150  0.00  0.00    -0.456 OA
BRANCH  26  28
ATOM     27  C   UNL     1       0.252  -6.133   1.037  0.00  0.00    +0.054 C 
ATOM     28  C   UNL     1      -0.580  -4.849   1.078  0.00  0.00    +0.199 C 
BRANCH  28  29
ATOM     29  C   UNL     1      -1.490  -4.871   2.308  0.00  0.00    +0.203 C 
BRANCH  29  30
ATOM     30  O   UNL     1      -0.701  -5.076   3.481  0.00  0.00    -0.379 OA
ATOM     31  C   UNL     1      -1.459  -5.112   4.692  0.00  0.00    +0.194 C 
ENDBRANCH  29  30
ENDBRANCH  28  29
ENDBRANCH  26  28
ENDBRANCH  24  26
ENDBRANCH   1  24
TORSDOF 7
