REMARK  Name = ZINC13005947
REMARK  7 active torsions:
REMARK  status: ('A' for Active; 'I' for Inactive)
REMARK    1  A    between atoms: C_3  and  C_6
REMARK    2  A    between atoms: C_9  and  S_15
REMARK    3  A    between atoms: N_10  and  C_11
REMARK    4  A    between atoms: C_11  and  C_12
REMARK    5  A    between atoms: S_15  and  C_16
REMARK    6  A    between atoms: C_16  and  C_17
REMARK    7  A    between atoms: C_17  and  C_19
REMARK                            x       y       z     vdW  Elec       q    Type
REMARK                         _______ _______ _______ _____ _____    ______ ____
ROOT
ATOM      1  C   UNL     1       0.914   5.126   0.021  0.00  0.00    +0.172 A 
ATOM      2  N   UNL     1       0.212   6.201   0.307  0.00  0.00    -0.128 NA
ATOM      3  N   UNL     1       0.953   7.246   0.210  0.00  0.00    -0.122 NA
ATOM      4  C   UNL     1       2.172   6.907  -0.142  0.00  0.00    +0.193 A 
ATOM      5  N   UNL     1       2.193   5.545  -0.271  0.00  0.00    -0.293 N 
ENDROOT
BRANCH   1   8
ATOM      6  C   UNL     1      -1.081   1.915   0.017  0.00  0.00    +0.008 A 
ATOM      7  C   UNL     1      -0.866   3.275   0.028  0.00  0.00    +0.019 A 
ATOM      8  C   UNL     1       0.426   3.737   0.018  0.00  0.00    +0.056 A 
ATOM      9  S   UNL     1       1.361   2.216   0.001  0.00  0.00    -0.094 S 
ATOM     10  C   UNL     1      -0.013   1.076   0.008  0.00  0.00    +0.046 A 
ENDBRANCH   1   8
BRANCH   5  11
ATOM     11  C   UNL     1       3.336   4.708  -0.643  0.00  0.00    +0.221 C 
BRANCH  11  12
ATOM     12  C   UNL     1       3.374   4.548  -2.141  0.00  0.00    +0.230 C 
ATOM     13  O   UNL     1       2.530   5.081  -2.830  0.00  0.00    -0.274 OA
ATOM     14  N   UNL     1       4.347   3.813  -2.716  0.00  0.00    -0.328 N 
ATOM     15  H   UNL     1       5.022   3.387  -2.165  0.00  0.00    +0.145 HD
ATOM     16  H   UNL     1       4.372   3.710  -3.680  0.00  0.00    +0.145 HD
ENDBRANCH  11  12
ENDBRANCH   5  11
BRANCH   4  17
ATOM     17  S   UNL     1       3.530   8.001  -0.397  0.00  0.00    -0.078 S 
BRANCH  17  18
ATOM     18  C   UNL     1       2.729   9.584  -0.036  0.00  0.00    +0.157 C 
BRANCH  18  19
ATOM     19  C   UNL     1       3.730  10.700  -0.194  0.00  0.00    +0.173 C 
ATOM     20  O   UNL     1       4.871  10.450  -0.519  0.00  0.00    -0.291 OA
BRANCH  19  21
ATOM     21  C   UNL     1       3.322  12.090   0.045  0.00  0.00    +0.020 A 
ATOM     22  C   UNL     1       2.003  12.382   0.414  0.00  0.00    +0.015 A 
ATOM     23  C   UNL     1       1.622  13.685   0.642  0.00  0.00    +0.048 A 
ATOM     24  C   UNL     1       2.541  14.715   0.498  0.00  0.00    +0.142 A 
ATOM     25  C   UNL     1       3.858  14.433   0.124  0.00  0.00    +0.076 A 
ATOM     26  C   UNL     1       4.250  13.129  -0.102  0.00  0.00    +0.038 A 
ATOM     27  N   UNL     1       4.771  15.488  -0.017  0.00  0.00    -0.280 N 
ATOM     28  C   UNL     1       4.463  16.694   0.507  0.00  0.00    +0.255 C 
ATOM     29  O   UNL     1       5.223  17.630   0.371  0.00  0.00    -0.272 OA
ATOM     30  C   UNL     1       3.170  16.873   1.260  0.00  0.00    +0.325 C 
ATOM     31  O   UNL     1       2.173  16.003   0.718  0.00  0.00    -0.481 OA
ATOM     32  H   UNL     1       5.611  15.354  -0.484  0.00  0.00    +0.155 HD
ENDBRANCH  19  21
ENDBRANCH  18  19
ENDBRANCH  17  18
ENDBRANCH   4  17
TORSDOF 7
