REMARK  Name = ZINC10818472
REMARK  14 active torsions:
REMARK  status: ('A' for Active; 'I' for Inactive)
REMARK    1  A    between atoms: C_1  and  N_62
REMARK    2  A    between atoms: C_2  and  N_62
REMARK    3  A    between atoms: C_3  and  C_4
REMARK    4  A    between atoms: C_3  and  N_62
REMARK    5  A    between atoms: C_4  and  N_5
REMARK    6  A    between atoms: C_11  and  S_15
REMARK    7  A    between atoms: S_15  and  C_18
REMARK    8  A    between atoms: C_19  and  C_21
REMARK    9  A    between atoms: C_21  and  C_22
REMARK   10  A    between atoms: C_22  and  C_23
REMARK   11  A    between atoms: C_23  and  S_24
REMARK   12  A    between atoms: S_24  and  C_25
REMARK   13  A    between atoms: C_28  and  O_31
REMARK   14  A    between atoms: O_31  and  C_32
REMARK                            x       y       z     vdW  Elec       q    Type
REMARK                         _______ _______ _______ _____ _____    ______ ____
ROOT
ATOM      1  N   UNL     1      -8.592  -0.027   0.221  0.00  0.00    -0.252 N 
ATOM      2  C   UNL     1      -7.253   0.244   0.454  0.00  0.00    +0.168 A 
ATOM      3  N   UNL     1      -6.359  -0.493   1.070  0.00  0.00    -0.224 NA
ATOM      4  C   UNL     1      -5.077  -0.100   1.227  0.00  0.00    +0.080 A 
ATOM      5  C   UNL     1      -4.022  -0.793   1.865  0.00  0.00    +0.031 A 
ATOM      6  C   UNL     1      -2.768  -0.246   1.937  0.00  0.00    +0.029 A 
ATOM      7  C   UNL     1      -2.486   0.998   1.391  0.00  0.00    +0.089 A 
ATOM      8  C   UNL     1      -3.495   1.706   0.764  0.00  0.00    +0.044 A 
ATOM      9  C   UNL     1      -4.753   1.164   0.682  0.00  0.00    +0.043 A 
ATOM     10  S   UNL     1      -6.305   1.687  -0.008  0.00  0.00    -0.052 S 
ATOM     11  C   UNL     1      -9.356   0.867  -0.438  0.00  0.00    +0.221 C 
ATOM     12  O   UNL     1      -8.871   1.909  -0.827  0.00  0.00    -0.275 OA
ENDROOT
BRANCH   7  13
ATOM     13  S   UNL     1      -0.862   1.671   1.500  0.00  0.00    -0.006 S 
ATOM     14  O   UNL     1      -0.296   1.065   2.655  0.00  0.00    -0.170 OA
ATOM     15  O   UNL     1      -1.048   3.078   1.438  0.00  0.00    -0.170 OA
ATOM     16  C   UNL     1      -0.013   1.086   0.008  0.00  0.00    +0.200 C 
ENDBRANCH   7  13
BRANCH   1  17
ATOM     17  C   UNL     1      -9.177  -1.285   0.690  0.00  0.00    +0.097 C 
BRANCH  17  18
ATOM     18  C   UNL     1      -9.726  -1.095   2.106  0.00  0.00    -0.060 C 
BRANCH  18  21
ATOM     19  C   UNL     1     -10.635  -2.286   4.008  0.00  0.00    -0.097 C 
ATOM     20  C   UNL     1     -11.499  -2.713   1.787  0.00  0.00    -0.097 C 
ATOM     21  N   UNL     1     -10.293  -2.378   2.573  0.00  0.00    +0.377 N 
ATOM     22  H   UNL     1      -9.594  -3.119   2.444  0.00  0.00    -0.083 HD
ENDBRANCH  18  21
ENDBRANCH  17  18
ENDBRANCH   1  17
BRANCH  11  23
ATOM     23  C   UNL     1     -10.812   0.572  -0.692  0.00  0.00    +0.097 C 
BRANCH  23  24
ATOM     24  C   UNL     1     -11.444   1.740  -1.451  0.00  0.00    +0.020 C 
BRANCH  24  25
ATOM     25  C   UNL     1     -12.922   1.441  -1.709  0.00  0.00    +0.075 C 
BRANCH  25  26
ATOM     26  S   UNL     1     -13.671   2.825  -2.610  0.00  0.00    -0.125 S 
BRANCH  26  27
ATOM     27  C   UNL     1     -15.350   2.335  -2.826  0.00  0.00    +0.008 A 
ATOM     28  C   UNL     1     -15.784   1.109  -2.338  0.00  0.00    +0.018 A 
ATOM     29  C   UNL     1     -17.101   0.727  -2.504  0.00  0.00    +0.047 A 
ATOM     30  C   UNL     1     -17.987   1.563  -3.167  0.00  0.00    +0.120 A 
ATOM     31  C   UNL     1     -17.553   2.785  -3.660  0.00  0.00    +0.047 A 
ATOM     32  C   UNL     1     -16.238   3.171  -3.490  0.00  0.00    +0.018 A 
BRANCH  30  33
ATOM     33  O   UNL     1     -19.283   1.184  -3.334  0.00  0.00    -0.495 OA
ATOM     34  C   UNL     1     -19.661  -0.087  -2.802  0.00  0.00    +0.277 C 
ENDBRANCH  30  33
ENDBRANCH  26  27
ENDBRANCH  25  26
ENDBRANCH  24  25
ENDBRANCH  23  24
ENDBRANCH  11  23
TORSDOF 10
