REMARK  Name = ZINC22060828
REMARK  9 active torsions:
REMARK  status: ('A' for Active; 'I' for Inactive)
REMARK    1  A    between atoms: C_1  and  C_2
REMARK    2  A    between atoms: C_5  and  O_30
REMARK    3  A    between atoms: C_10  and  O_29
REMARK    4  A    between atoms: C_18  and  C_28
REMARK    5  A    between atoms: O_30  and  C_31
REMARK    6  A    between atoms: C_31  and  C_33
REMARK    7  A    between atoms: C_33  and  C_34
REMARK    8  A    between atoms: C_33  and  C_35
REMARK    9  A    between atoms: C_33  and  C_36
REMARK                            x       y       z     vdW  Elec       q    Type
REMARK                         _______ _______ _______ _____ _____    ______ ____
ROOT
ATOM      1  C   UNL     1      -4.151   4.325  -4.211  0.00  0.00    +0.016 C 
ATOM      2  C   UNL     1      -3.847   2.884  -3.778  0.00  0.00    -0.008 C 
ATOM      3  C   UNL     1      -3.884   2.025  -5.052  0.00  0.00    +0.015 C 
ATOM      4  C   UNL     1      -4.931   0.926  -4.912  0.00  0.00    +0.046 C 
ATOM      5  C   UNL     1      -6.326   1.521  -4.739  0.00  0.00    +0.180 C 
ATOM      6  C   UNL     1      -6.368   2.388  -3.478  0.00  0.00    +0.075 C 
ATOM      7  C   UNL     1      -4.972   2.440  -2.883  0.00  0.00    -0.061 C 
ATOM      8  C   UNL     1      -4.835   2.136  -1.627  0.00  0.00    +0.004 C 
ATOM      9  C   UNL     1      -3.514   2.374  -0.926  0.00  0.00    +0.141 C 
ATOM     10  C   UNL     1      -2.434   1.949  -1.899  0.00  0.00    +0.030 C 
ATOM     11  C   UNL     1      -2.470   2.817  -3.167  0.00  0.00    +0.005 C 
ATOM     12  C   UNL     1      -1.766   4.148  -2.979  0.00  0.00    +0.006 C 
ATOM     13  C   UNL     1      -0.307   3.949  -2.516  0.00  0.00    +0.015 C 
ATOM     14  C   UNL     1      -0.317   3.208  -1.186  0.00  0.00    +0.030 C 
ATOM     15  C   UNL     1      -1.032   1.874  -1.401  0.00  0.00    +0.012 C 
ATOM     16  C   UNL     1      -0.650   0.987  -0.234  0.00  0.00    +0.004 C 
ATOM     17  C   UNL     1      -0.272   1.448   1.158  0.00  0.00    +0.016 C 
ATOM     18  C   UNL     1       0.801   1.458   0.075  0.00  0.00    +0.060 C 
ATOM     19  C   UNL     1       1.049   2.739  -0.716  0.00  0.00    +0.143 C 
ATOM     20  O   UNL     1       2.110   3.285  -0.931  0.00  0.00    -0.297 OA
ATOM     21  C   UNL     1      -0.891   4.126  -0.116  0.00  0.00    +0.019 C 
ENDROOT
BRANCH   9  22
ATOM     22  O   UNL     1      -3.488   3.764  -0.618  0.00  0.00    -0.387 OA
ATOM     23  H   UNL     1      -2.620   4.196  -0.098  0.00  0.00    +0.210 HD
ENDBRANCH   9  22
BRANCH   5  24
ATOM     24  O   UNL     1      -6.656   2.330  -5.900  0.00  0.00    -0.461 OA
BRANCH  24  25
ATOM     25  C   UNL     1      -7.269   1.711  -6.921  0.00  0.00    +0.313 C 
ATOM     26  O   UNL     1      -7.522   0.531  -6.848  0.00  0.00    -0.250 OA
BRANCH  25  27
ATOM     27  C   UNL     1      -7.641   2.486  -8.159  0.00  0.00    +0.059 C 
ATOM     28  C   UNL     1      -8.322   1.551  -9.160  0.00  0.00    +0.022 C 
ATOM     29  C   UNL     1      -8.601   3.616  -7.783  0.00  0.00    +0.022 C 
ATOM     30  C   UNL     1      -6.379   3.077  -8.790  0.00  0.00    +0.022 C 
ENDBRANCH  25  27
ENDBRANCH  24  25
ENDBRANCH   5  24
TORSDOF 4
