REMARK  Name = ZINC22504730
REMARK  11 active torsions:
REMARK  status: ('A' for Active; 'I' for Inactive)
REMARK    1  A    between atoms: C_1  and  C_2
REMARK    2  A    between atoms: C_2  and  C_4
REMARK    3  A    between atoms: C_2  and  N_32
REMARK    4  A    between atoms: C_7  and  S_16
REMARK    5  A    between atoms: N_8  and  C_9
REMARK    6  A    between atoms: S_16  and  C_17
REMARK    7  A    between atoms: C_17  and  C_18
REMARK    8  A    between atoms: N_20  and  C_21
REMARK    9  A    between atoms: N_20  and  C_29
REMARK   10  A    between atoms: N_32  and  C_33
REMARK   11  A    between atoms: N_32  and  C_34
REMARK                            x       y       z     vdW  Elec       q    Type
REMARK                         _______ _______ _______ _____ _____    ______ ____
ROOT
ATOM      1  C   UNL     1      -0.258  -1.882  -1.483  0.00  0.00    +0.125 A 
ATOM      2  N   UNL     1      -0.580  -1.718  -2.735  0.00  0.00    -0.135 NA
ATOM      3  N   UNL     1       0.425  -1.988  -3.490  0.00  0.00    -0.122 NA
ATOM      4  C   UNL     1       1.453  -2.343  -2.755  0.00  0.00    +0.197 A 
ATOM      5  N   UNL     1       1.052  -2.281  -1.449  0.00  0.00    -0.275 N 
ENDROOT
BRANCH   5   6
ATOM      6  C   UNL     1       1.821  -2.570  -0.311  0.00  0.00    +0.050 A 
ATOM      7  C   UNL     1       2.114  -1.567   0.602  0.00  0.00    +0.028 A 
ATOM      8  C   UNL     1       2.871  -1.854   1.722  0.00  0.00    +0.022 A 
ATOM      9  C   UNL     1       3.336  -3.140   1.933  0.00  0.00    +0.041 A 
ATOM     10  C   UNL     1       3.045  -4.141   1.023  0.00  0.00    +0.022 A 
ATOM     11  C   UNL     1       2.284  -3.861  -0.095  0.00  0.00    +0.028 A 
ATOM     12 CL   UNL     1       4.288  -3.497   3.340  0.00  0.00    -0.084 Cl
ENDBRANCH   5   6
BRANCH   1  14
ATOM     13  C   UNL     1      -1.337  -0.166  -0.055  0.00  0.00    -0.005 C 
ATOM     14  C   UNL     1      -1.157  -1.667  -0.294  0.00  0.00    -0.003 C 
BRANCH  14  15
ATOM     15  N   UNL     1      -2.466  -2.281  -0.552  0.00  0.00    +0.382 N 
ATOM     16  C   UNL     1      -2.294  -3.722  -0.782  0.00  0.00    -0.096 C 
ATOM     17  C   UNL     1      -3.344  -2.072   0.607  0.00  0.00    -0.096 C 
ATOM     18  H   UNL     1      -2.881  -1.858  -1.369  0.00  0.00    -0.082 HD
ENDBRANCH  14  15
ENDBRANCH   1  14
BRANCH   4  19
ATOM     19  S   UNL     1       3.050  -2.805  -3.340  0.00  0.00    -0.076 S 
BRANCH  19  20
ATOM     20  C   UNL     1       2.913  -2.668  -5.144  0.00  0.00    +0.173 C 
BRANCH  20  21
ATOM     21  C   UNL     1       4.228  -3.040  -5.777  0.00  0.00    +0.226 C 
ATOM     22  O   UNL     1       5.171  -3.349  -5.080  0.00  0.00    -0.275 OA
ATOM     23  N   UNL     1       4.357  -3.030  -7.119  0.00  0.00    -0.293 N 
BRANCH  23  24
ATOM     24  C   UNL     1       5.599  -3.497  -7.739  0.00  0.00    +0.099 C 
ATOM     25  C   UNL     1       6.767  -2.610  -7.276  0.00  0.00    +0.046 C 
ATOM     26  C   UNL     1       8.096  -3.304  -7.687  0.00  0.00    +0.168 C 
ATOM     27  S   UNL     1       7.694  -5.060  -7.295  0.00  0.00    -0.029 S 
ATOM     28  O   UNL     1       8.135  -5.884  -8.365  0.00  0.00    -0.174 OA
ATOM     29  O   UNL     1       8.120  -5.347  -5.970  0.00  0.00    -0.174 OA
ATOM     30  C   UNL     1       5.859  -4.966  -7.327  0.00  0.00    +0.188 C 
ENDBRANCH  23  24
BRANCH  23  31
ATOM     31  C   UNL     1       3.255  -2.551  -7.957  0.00  0.00    +0.077 C 
ATOM     32  C   UNL     1       3.317  -2.865  -9.453  0.00  0.00    +0.024 C 
ATOM     33  C   UNL     1       3.562  -1.437  -8.960  0.00  0.00    +0.024 C 
ENDBRANCH  23  31
ENDBRANCH  20  21
ENDBRANCH  19  20
ENDBRANCH   4  19
TORSDOF 8
