REMARK  Name = ZINC17444942
REMARK  6 active torsions:
REMARK  status: ('A' for Active; 'I' for Inactive)
REMARK    1  A    between atoms: C_1  and  C_2
REMARK    2  A    between atoms: C_4  and  C_15
REMARK    3  A    between atoms: C_5  and  C_14
REMARK    4  A    between atoms: N_6  and  C_7
REMARK    5  A    between atoms: N_17  and  N_18
REMARK    6  A    between atoms: C_19  and  C_21
REMARK                            x       y       z     vdW  Elec       q    Type
REMARK                         _______ _______ _______ _____ _____    ______ ____
ROOT
ATOM      1  C   UNL     1       8.461   3.244   0.385  0.00  0.00    +0.262 C 
ATOM      2  O   UNL     1       8.473   2.126   0.865  0.00  0.00    -0.269 OA
ATOM      3  N   UNL     1       7.288   3.850   0.115  0.00  0.00    -0.230 N 
ATOM      4  H   UNL     1       7.279   4.741  -0.268  0.00  0.00    +0.173 HD
ENDROOT
BRANCH   1   8
ATOM      5  C   UNL     1      11.868   6.742  -1.096  0.00  0.00    +0.064 C 
ATOM      6  C   UNL     1      11.217   5.492  -0.563  0.00  0.00    +0.022 A 
ATOM      7  C   UNL     1       9.893   5.272  -0.483  0.00  0.00    +0.036 A 
ATOM      8  C   UNL     1       9.730   3.934   0.097  0.00  0.00    +0.059 A 
ATOM      9  C   UNL     1      10.993   3.456   0.312  0.00  0.00    +0.033 A 
ATOM     10  N   UNL     1      11.877   4.394  -0.085  0.00  0.00    -0.317 N 
ATOM     11  C   UNL     1      11.339   2.109   0.894  0.00  0.00    +0.064 C 
BRANCH  10  12
ATOM     12  C   UNL     1      13.271   4.262  -0.019  0.00  0.00    +0.047 A 
ATOM     13  C   UNL     1      13.902   4.168   1.214  0.00  0.00    +0.029 A 
ATOM     14  C   UNL     1      15.275   4.032   1.277  0.00  0.00    +0.040 A 
ATOM     15  C   UNL     1      16.023   4.001   0.112  0.00  0.00    +0.124 A 
ATOM     16  C   UNL     1      15.396   4.099  -1.118  0.00  0.00    +0.040 A 
ATOM     17  C   UNL     1      14.023   4.230  -1.186  0.00  0.00    +0.029 A 
ATOM     18  F   UNL     1      17.367   3.873   0.176  0.00  0.00    -0.205 F 
ENDBRANCH  10  12
ENDBRANCH   1   8
BRANCH   3  19
ATOM     19  N   UNL     1       6.081   3.193   0.389  0.00  0.00    -0.234 N 
ATOM     20  C   UNL     1       4.908   3.799   0.120  0.00  0.00    +0.236 C 
ATOM     21  O   UNL     1       4.897   4.913  -0.359  0.00  0.00    -0.274 OA
ATOM     22  H   UNL     1       6.090   2.301   0.772  0.00  0.00    +0.173 HD
BRANCH  20  23
ATOM     23  C   UNL     1       3.610   3.092   0.414  0.00  0.00    +0.118 C 
ATOM     24  C   UNL     1       2.434   3.977  -0.007  0.00  0.00    +0.055 C 
ATOM     25  C   UNL     1       1.161   3.169   0.007  0.00  0.00    -0.005 A 
ATOM     26  C   UNL     1      -0.052   3.837   0.024  0.00  0.00    +0.007 A 
ATOM     27  C   UNL     1      -1.238   3.130   0.032  0.00  0.00    +0.000 A 
ATOM     28  C   UNL     1      -1.218   1.747   0.017  0.00  0.00    +0.004 A 
ATOM     29  C   UNL     1      -0.013   1.076   0.008  0.00  0.00    +0.046 A 
ATOM     30  C   UNL     1       1.184   1.786   0.000  0.00  0.00    +0.124 A 
ATOM     31  O   UNL     1       2.351   1.089  -0.010  0.00  0.00    -0.491 OA
ATOM     32  C   UNL     1       3.540   1.785  -0.386  0.00  0.00    +0.242 C 
ENDBRANCH  20  23
ENDBRANCH   3  19
TORSDOF 4
