REMARK  Name = ZINC16046982
REMARK  5 active torsions:
REMARK  status: ('A' for Active; 'I' for Inactive)
REMARK    1  A    between atoms: C_5  and  C_6
REMARK    2  A    between atoms: C_14  and  C_17
REMARK    3  A    between atoms: C_17  and  N_47
REMARK    4  A    between atoms: C_21  and  C_24
REMARK    5  A    between atoms: C_24  and  O_25
REMARK                            x       y       z     vdW  Elec       q    Type
REMARK                         _______ _______ _______ _____ _____    ______ ____
ROOT
ATOM      1  C   UNL     1       3.818   3.518  -0.003  0.00  0.00    +0.341 C 
ATOM      2  O   UNL     1       2.776   4.046   0.826  0.00  0.00    -0.333 OA
ATOM      3  C   UNL     1       1.466   3.678   0.381  0.00  0.00    +0.203 C 
ATOM      4  C   UNL     1       1.428   2.193   0.121  0.00  0.00    +0.023 A 
ATOM      5  C   UNL     1       0.209   1.551   0.006  0.00  0.00    +0.047 A 
ATOM      6  C   UNL     1       0.162   0.190  -0.240  0.00  0.00    +0.124 A 
ATOM      7  C   UNL     1       1.337  -0.531  -0.371  0.00  0.00    +0.043 A 
ATOM      8  C   UNL     1       2.556   0.107  -0.255  0.00  0.00    -0.019 A 
ATOM      9  C   UNL     1       2.604   1.473  -0.008  0.00  0.00    +0.131 A 
ATOM     10  O   UNL     1       3.810   2.091   0.108  0.00  0.00    -0.459 OA
ATOM     11  F   UNL     1      -1.030  -0.436  -0.352  0.00  0.00    -0.205 F 
ENDROOT
BRANCH   1  16
ATOM     12  C   UNL     1       5.406   5.411   0.430  0.00  0.00    +0.017 A 
ATOM     13  C   UNL     1       6.614   5.860   0.850  0.00  0.00    +0.045 A 
ATOM     14  S   UNL     1       7.436   4.341   1.301  0.00  0.00    -0.105 S 
ATOM     15  C   UNL     1       6.112   3.211   0.905  0.00  0.00    +0.055 A 
ATOM     16  C   UNL     1       5.150   4.053   0.456  0.00  0.00    +0.027 A 
ENDBRANCH   1  16
BRANCH   8  17
ATOM     17  C   UNL     1       3.834  -0.678  -0.397  0.00  0.00    -0.039 C 
BRANCH  17  23
ATOM     18  C   UNL     1       4.739   0.820  -2.071  0.00  0.00    -0.078 C 
ATOM     19  C   UNL     1       5.383   0.877  -3.457  0.00  0.00    -0.018 C 
ATOM     20  C   UNL     1       4.377   0.387  -4.503  0.00  0.00    +0.002 C 
ATOM     21  C   UNL     1       3.932  -1.034  -4.145  0.00  0.00    -0.002 C 
ATOM     22  C   UNL     1       3.329  -1.035  -2.738  0.00  0.00    -0.073 C 
ATOM     23  N   UNL     1       4.355  -0.577  -1.776  0.00  0.00    +0.383 N 
ATOM     24  H   UNL     1       5.185  -1.176  -1.864  0.00  0.00    -0.081 HD
BRANCH  21  25
ATOM     25  C   UNL     1       2.882  -1.508  -5.151  0.00  0.00    +0.157 C 
BRANCH  25  26
ATOM     26  O   UNL     1       3.477  -1.614  -6.446  0.00  0.00    -0.395 OA
ATOM     27  H   UNL     1       2.868  -1.911  -7.136  0.00  0.00    +0.209 HD
ENDBRANCH  25  26
ENDBRANCH  21  25
ENDBRANCH  17  23
ENDBRANCH   8  17
TORSDOF 5
