REMARK  Name = ZINC39597676
REMARK  8 active torsions:
REMARK  status: ('A' for Active; 'I' for Inactive)
REMARK    1  A    between atoms: C_1  and  C_2
REMARK    2  A    between atoms: C_2  and  C_3
REMARK    3  A    between atoms: C_3  and  C_5
REMARK    4  A    between atoms: C_3  and  C_6
REMARK    5  A    between atoms: C_10  and  C_19
REMARK    6  A    between atoms: N_21  and  C_22
REMARK    7  A    between atoms: C_22  and  C_23
REMARK    8  A    between atoms: C_23  and  C_24
REMARK                            x       y       z     vdW  Elec       q    Type
REMARK                         _______ _______ _______ _____ _____    ______ ____
ROOT
ATOM      1  C   UNL     1      -1.544  -1.783   0.021  0.00  0.00    +0.218 C 
ATOM      2  O   UNL     1      -0.442  -2.287  -0.032  0.00  0.00    -0.275 OA
ATOM      3  N   UNL     1      -2.644  -2.560  -0.043  0.00  0.00    -0.300 N 
ATOM      4  C   UNL     1      -4.062  -2.131  -0.002  0.00  0.00    +0.121 C 
ATOM      5  C   UNL     1      -4.774  -3.040  -1.029  0.00  0.00    +0.100 C 
ATOM      6  C   UNL     1      -3.882  -4.288  -1.134  0.00  0.00    -0.004 C 
ATOM      7  C   UNL     1      -2.708  -4.035  -0.178  0.00  0.00    +0.115 C 
ATOM      8  C   UNL     1      -3.366  -4.450  -2.561  0.00  0.00    -0.010 C 
ATOM      9  C   UNL     1      -2.528  -5.728  -2.654  0.00  0.00    -0.082 C 
ATOM     10  N   UNL     1      -3.351  -6.883  -2.276  0.00  0.00    +0.379 N 
ATOM     11  C   UNL     1      -3.767  -6.764  -0.873  0.00  0.00    -0.082 C 
ATOM     12  C   UNL     1      -4.656  -5.530  -0.705  0.00  0.00    -0.010 C 
ATOM     13  H   UNL     1      -4.169  -6.919  -2.865  0.00  0.00    -0.086 HD
ATOM     14  H   UNL     1      -2.816  -7.730  -2.396  0.00  0.00    -0.086 HD
ENDROOT
BRANCH   5  15
ATOM     15  C   UNL     1      -4.871  -2.347  -2.364  0.00  0.00    +0.218 C 
ATOM     16  O   UNL     1      -4.021  -1.548  -2.695  0.00  0.00    -0.275 OA
ATOM     17  N   UNL     1      -5.902  -2.615  -3.189  0.00  0.00    -0.315 N 
ATOM     18  H   UNL     1      -6.582  -3.254  -2.924  0.00  0.00    +0.149 HD
BRANCH  17  19
ATOM     19  C   UNL     1      -5.996  -1.942  -4.487  0.00  0.00    +0.109 C 
BRANCH  19  20
ATOM     20  C   UNL     1      -7.249  -2.422  -5.221  0.00  0.00    +0.056 C 
BRANCH  20  21
ATOM     21  C   UNL     1      -7.346  -1.729  -6.556  0.00  0.00    -0.021 A 
ATOM     22  C   UNL     1      -6.695  -2.142  -7.801  0.00  0.00    +0.003 A 
ATOM     23  C   UNL     1      -5.854  -3.199  -8.152  0.00  0.00    +0.010 A 
ATOM     24  C   UNL     1      -5.403  -3.310  -9.437  0.00  0.00    +0.001 A 
ATOM     25  C   UNL     1      -5.775  -2.379 -10.397  0.00  0.00    +0.002 A 
ATOM     26  C   UNL     1      -6.604  -1.328 -10.073  0.00  0.00    +0.026 A 
ATOM     27  C   UNL     1      -7.075  -1.196  -8.771  0.00  0.00    +0.047 A 
ATOM     28  N   UNL     1      -7.895  -0.282  -8.148  0.00  0.00    -0.360 N 
ATOM     29  C   UNL     1      -8.050  -0.619  -6.830  0.00  0.00    +0.087 A 
ATOM     30  H   UNL     1      -8.306   0.483  -8.579  0.00  0.00    +0.165 HD
ENDBRANCH  20  21
ENDBRANCH  19  20
ENDBRANCH  17  19
ENDBRANCH   5  15
BRANCH   1  31
ATOM     31  C   UNL     1      -1.684  -0.289   0.158  0.00  0.00    +0.072 C 
ATOM     32  C   UNL     1      -2.442   0.036   1.447  0.00  0.00    +0.017 C 
BRANCH  31  34
ATOM     33  C   UNL     1      -0.435   1.875   0.222  0.00  0.00    +0.004 C 
ATOM     34  C   UNL     1      -0.295   0.351   0.208  0.00  0.00    +0.009 C 
ENDBRANCH  31  34
ENDBRANCH   1  31
TORSDOF 6
