REMARK  Name = ZINC02136476
REMARK  8 active torsions:
REMARK  status: ('A' for Active; 'I' for Inactive)
REMARK    1  A    between atoms: C_1  and  C_2
REMARK    2  A    between atoms: C_16  and  C_18
REMARK    3  A    between atoms: C_18  and  C_19
REMARK    4  A    between atoms: C_19  and  C_20
REMARK    5  A    between atoms: N_25  and  C_28
REMARK    6  A    between atoms: C_31  and  O_34
REMARK    7  A    between atoms: O_34  and  C_35
REMARK    8  A    between atoms: C_35  and  C_37
REMARK                            x       y       z     vdW  Elec       q    Type
REMARK                         _______ _______ _______ _____ _____    ______ ____
ROOT
ATOM      1  C   UNL     1      -0.843  -7.311   2.916  0.00  0.00    +0.047 C 
ATOM      2  C   UNL     1      -1.910  -6.683   2.057  0.00  0.00    -0.011 A 
ATOM      3  C   UNL     1      -2.738  -7.482   1.293  0.00  0.00    +0.046 A 
ATOM      4  C   UNL     1      -3.720  -6.913   0.501  0.00  0.00    +0.020 A 
ATOM      5  C   UNL     1      -3.873  -5.538   0.475  0.00  0.00    +0.006 A 
ATOM      6  C   UNL     1      -3.050  -4.739   1.235  0.00  0.00    -0.027 A 
ATOM      7  C   UNL     1      -2.057  -5.298   2.034  0.00  0.00    +0.040 A 
ATOM      8  N   UNL     1      -1.354  -4.295   2.705  0.00  0.00    -0.286 N 
ATOM      9  C   UNL     1      -1.814  -3.065   2.405  0.00  0.00    +0.211 C 
ATOM     10  O   UNL     1      -1.396  -2.011   2.834  0.00  0.00    -0.277 OA
ATOM     11  C   UNL     1      -2.947  -3.253   1.433  0.00  0.00    +0.050 C 
ATOM     12  C   UNL     1      -2.681  -2.525   0.111  0.00  0.00    +0.088 C 
ATOM     13  C   UNL     1      -3.476  -1.194   0.210  0.00  0.00    +0.073 C 
ATOM     14  C   UNL     1      -4.123  -1.243   1.627  0.00  0.00    -0.057 C 
ATOM     15  C   UNL     1      -2.392  -0.140   0.200  0.00  0.00    +0.228 C 
ATOM     16  O   UNL     1      -2.578   1.057   0.261  0.00  0.00    -0.275 OA
ATOM     17  N   UNL     1      -1.196  -0.732   0.109  0.00  0.00    -0.210 N 
ATOM     18  C   UNL     1      -1.240  -2.069   0.059  0.00  0.00    +0.229 C 
ATOM     19  O   UNL     1      -0.276  -2.799  -0.018  0.00  0.00    -0.275 OA
ATOM     20 CL   UNL     1      -2.546  -9.207   1.327  0.00  0.00    -0.083 Cl
ATOM     21  H   UNL     1      -0.620  -4.464   3.315  0.00  0.00    +0.155 HD
ATOM     22  N   UNL     1      -4.178  -2.672   1.942  0.00  0.00    +0.394 N 
ATOM     23  H   UNL     1      -4.243  -2.810   2.957  0.00  0.00    -0.083 HD
ATOM     24  H   UNL     1      -4.990  -3.105   1.486  0.00  0.00    -0.083 HD
ENDROOT
BRANCH  17  25
ATOM     25  C   UNL     1       0.008  -0.011   0.076  0.00  0.00    +0.044 A 
ATOM     26  C   UNL     1       0.837  -0.095  -1.034  0.00  0.00    +0.027 A 
ATOM     27  C   UNL     1       2.021   0.615  -1.067  0.00  0.00    +0.048 A 
ATOM     28  C   UNL     1       2.382   1.411   0.010  0.00  0.00    +0.132 A 
ATOM     29  C   UNL     1       1.553   1.496   1.120  0.00  0.00    +0.048 A 
ATOM     30  C   UNL     1       0.369   0.786   1.153  0.00  0.00    +0.027 A 
BRANCH  28  31
ATOM     31  O   UNL     1       3.548   2.109  -0.022  0.00  0.00    -0.426 OA
BRANCH  31  32
ATOM     32  C   UNL     1       4.571   1.621   0.696  0.00  0.00    +0.309 C 
ATOM     33  O   UNL     1       4.467   0.549   1.246  0.00  0.00    -0.251 OA
ATOM     34  C   UNL     1       5.851   2.408   0.818  0.00  0.00    +0.136 C 
ENDBRANCH  31  32
ENDBRANCH  28  31
ENDBRANCH  17  25
BRANCH  14  35
ATOM     35  C   UNL     1      -5.523  -0.625   1.590  0.00  0.00    -0.006 C 
BRANCH  35  36
ATOM     36  C   UNL     1      -6.125  -0.641   2.996  0.00  0.00    +0.094 C 
BRANCH  36  37
ATOM     37  C   UNL     1      -7.503  -0.033   2.959  0.00  0.00    +0.210 C 
ATOM     38  O   UNL     1      -7.959   0.373   1.911  0.00  0.00    -0.276 OA
ATOM     39  N   UNL     1      -8.230   0.059   4.091  0.00  0.00    -0.329 N 
ATOM     40  H   UNL     1      -7.865  -0.266   4.929  0.00  0.00    +0.145 HD
ATOM     41  H   UNL     1      -9.117   0.451   4.067  0.00  0.00    +0.145 HD
ENDBRANCH  36  37
ENDBRANCH  35  36
ENDBRANCH  14  35
TORSDOF 6
