REMARK  Name = ZINC24831330
REMARK  3 active torsions:
REMARK  status: ('A' for Active; 'I' for Inactive)
REMARK    1  A    between atoms: N_12  and  C_16
REMARK    2  A    between atoms: C_16  and  C_17
REMARK    3  A    between atoms: C_22  and  C_25
REMARK                            x       y       z     vdW  Elec       q    Type
REMARK                         _______ _______ _______ _____ _____    ______ ____
ROOT
ATOM      1  C   UNL     1       7.159   1.545  -0.696  0.00  0.00    +0.237 C 
ATOM      2  O   UNL     1       6.242   2.201  -0.249  0.00  0.00    -0.274 OA
ATOM      3  N   UNL     1       8.280   2.158  -1.123  0.00  0.00    -0.263 N 
ATOM      4  C   UNL     1       8.386   3.542  -1.051  0.00  0.00    +0.165 A 
ATOM      5  N   UNL     1       9.391   4.306  -1.422  0.00  0.00    -0.229 NA
ATOM      6  C   UNL     1       9.337   5.618  -1.287  0.00  0.00    +0.057 A 
ATOM      7  C   UNL     1       8.204   6.136  -0.753  0.00  0.00    +0.072 A 
ATOM      8  S   UNL     1       7.256   4.649  -0.476  0.00  0.00    -0.060 S 
ATOM      9  H   UNL     1       9.014   1.634  -1.480  0.00  0.00    +0.157 HD
ENDROOT
BRANCH   6  10
ATOM     10  C   UNL     1      10.484   6.500  -1.709  0.00  0.00    +0.014 C 
ATOM     11  C   UNL     1      10.752   7.542  -0.621  0.00  0.00    +0.016 C 
ATOM     12  C   UNL     1      11.917   8.438  -1.049  0.00  0.00    -0.010 C 
ATOM     13  C   UNL     1      13.169   7.583  -1.256  0.00  0.00    +0.007 C 
ATOM     14  C   UNL     1      12.900   6.541  -2.343  0.00  0.00    -0.010 C 
ATOM     15  C   UNL     1      11.736   5.645  -1.915  0.00  0.00    +0.016 C 
ATOM     16  C   UNL     1      12.545   7.249  -3.652  0.00  0.00    +0.007 C 
ATOM     17  C   UNL     1      11.293   8.104  -3.445  0.00  0.00    -0.010 C 
ATOM     18  C   UNL     1      11.561   9.146  -2.357  0.00  0.00    +0.007 C 
ATOM     19  C   UNL     1      10.129   7.208  -3.017  0.00  0.00    +0.016 C 
ENDBRANCH   6  10
BRANCH   1  20
ATOM     20  C   UNL     1       7.044   0.044  -0.773  0.00  0.00    +0.214 C 
BRANCH  20  32
ATOM     21  C   UNL     1      -0.017   1.377   0.010  0.00  0.00    +0.000 A 
ATOM     22  C   UNL     1       1.172   2.082   0.002  0.00  0.00    +0.000 A 
ATOM     23  C   UNL     1       2.375   1.405  -0.015  0.00  0.00    +0.006 A 
ATOM     24  C   UNL     1       2.398   0.019  -0.025  0.00  0.00    -0.012 A 
ATOM     25  C   UNL     1       1.207  -0.686  -0.013  0.00  0.00    -0.042 A 
ATOM     26  C   UNL     1       0.002  -0.004   0.002  0.00  0.00    +0.004 A 
ATOM     27  C   UNL     1       1.492  -2.174  -0.016  0.00  0.00    +0.038 C 
ATOM     28  C   UNL     1       2.965  -2.303  -0.464  0.00  0.00    +0.045 C 
ATOM     29  C   UNL     1       3.551  -0.948  -0.050  0.00  0.00    +0.138 C 
ATOM     30  C   UNL     1       4.627  -0.503  -1.006  0.00  0.00    +0.251 C 
ATOM     31  O   UNL     1       4.518  -0.305  -2.197  0.00  0.00    -0.272 OA
ATOM     32  N   UNL     1       5.740  -0.373  -0.252  0.00  0.00    -0.215 N 
ATOM     33  C   UNL     1       5.504  -0.674   1.032  0.00  0.00    +0.310 C 
ATOM     34  O   UNL     1       6.350  -0.631   1.903  0.00  0.00    -0.252 OA
ATOM     35  N   UNL     1       4.221  -1.029   1.248  0.00  0.00    -0.281 N 
ATOM     36  H   UNL     1       3.822  -1.286   2.095  0.00  0.00    +0.152 HD
ENDBRANCH  20  32
ENDBRANCH   1  20
TORSDOF 3
