REMARK  Name = ZINC57327638
REMARK  2 active torsions:
REMARK  status: ('A' for Active; 'I' for Inactive)
REMARK    1  A    between atoms: C_5  and  C_8
REMARK    2  A    between atoms: N_15  and  N_16
REMARK                            x       y       z     vdW  Elec       q    Type
REMARK                         _______ _______ _______ _____ _____    ______ ____
ROOT
ATOM      1  C   UNL     1      -0.017   1.383   0.010  0.00  0.00    +0.038 A 
ATOM      2  C   UNL     1       1.143   2.115   0.003  0.00  0.00    +0.069 A 
ATOM      3  C   UNL     1       2.403   1.473  -0.013  0.00  0.00    +0.099 A 
ATOM      4  C   UNL     1       2.383   0.060  -0.020  0.00  0.00    +0.055 A 
ATOM      5  C   UNL     1       1.218  -0.665  -0.013  0.00  0.00    +0.085 A 
ATOM      6  C   UNL     1       0.002  -0.004   0.002  0.00  0.00    +0.032 A 
ATOM      7 BR   UNL     1      -1.617  -0.982   0.012  0.00  0.00    -0.050 Br
ATOM      8  S   UNL     1       4.114  -0.343  -0.038  0.00  0.00    -0.051 S 
ATOM      9  C   UNL     1       4.735   1.332  -0.035  0.00  0.00    +0.173 A 
ATOM     10  N   UNL     1       3.630   2.041  -0.021  0.00  0.00    -0.222 NA
ATOM     11  N   UNL     1       6.044   1.770  -0.044  0.00  0.00    -0.262 N 
ATOM     12 CL   UNL     1       1.065   3.850   0.012  0.00  0.00    -0.081 Cl
ATOM     13  H   UNL     1       6.771   1.127  -0.054  0.00  0.00    +0.168 HD
ENDROOT
BRANCH   5  14
ATOM     14  C   UNL     1       1.262  -2.171  -0.022  0.00  0.00    +0.420 C 
ATOM     15  F   UNL     1       1.289  -2.645   1.294  0.00  0.00    -0.166 F 
ATOM     16  F   UNL     1       0.128  -2.667  -0.674  0.00  0.00    -0.166 F 
ATOM     17  F   UNL     1       2.411  -2.600  -0.696  0.00  0.00    -0.166 F 
ENDBRANCH   5  14
BRANCH  11  18
ATOM     18  N   UNL     1       6.317   3.108  -0.040  0.00  0.00    -0.255 NA
ATOM     19  H   UNL     1       7.312   3.275  -0.047  0.00  0.00    +0.140 HD
ATOM     20  H   UNL     1       5.867   3.572  -0.815  0.00  0.00    +0.140 HD
ENDBRANCH  11  18
TORSDOF 2
