REMARK  Name = ZINC67448819
REMARK  5 active torsions:
REMARK  status: ('A' for Active; 'I' for Inactive)
REMARK    1  A    between atoms: C_4  and  S_7
REMARK    2  A    between atoms: S_7  and  C_8
REMARK    3  A    between atoms: C_11  and  C_13
REMARK    4  A    between atoms: C_13  and  N_14
REMARK    5  A    between atoms: N_14  and  C_15
REMARK                            x       y       z     vdW  Elec       q    Type
REMARK                         _______ _______ _______ _____ _____    ______ ____
ROOT
ATOM      1  C   UNL     1       3.419  -2.527   0.125  0.00  0.00    +0.141 A 
ATOM      2  N   UNL     1       2.215  -3.056   0.068  0.00  0.00    -0.221 NA
ATOM      3  C   UNL     1       2.038  -4.361   0.171  0.00  0.00    +0.142 A 
ATOM      4  C   UNL     1       3.149  -5.122   0.336  0.00  0.00    +0.043 A 
ATOM      5  S   UNL     1       4.418  -3.866   0.326  0.00  0.00    -0.063 S 
ATOM      6 CL   UNL     1       0.456  -5.071   0.097  0.00  0.00    -0.061 Cl
ENDROOT
BRANCH   1   7
ATOM      7  S   UNL     1       3.876  -0.829   0.010  0.00  0.00    -0.063 S 
BRANCH   7  11
ATOM      8  C   UNL     1      -0.085   1.360  -0.179  0.00  0.00    +0.000 A 
ATOM      9  C   UNL     1       0.458   1.021   1.046  0.00  0.00    +0.001 A 
ATOM     10  C   UNL     1       1.665   0.353   1.108  0.00  0.00    +0.015 A 
ATOM     11  C   UNL     1       2.334   0.023  -0.064  0.00  0.00    +0.015 A 
ATOM     12  C   UNL     1       1.786   0.365  -1.294  0.00  0.00    +0.015 A 
ATOM     13  C   UNL     1       0.579   1.032  -1.348  0.00  0.00    +0.001 A 
ENDBRANCH   7  11
ENDBRANCH   1   7
BRANCH   4  14
ATOM     14  C   UNL     1       3.276  -6.616   0.483  0.00  0.00    +0.127 C 
BRANCH  14  15
ATOM     15  N   UNL     1       3.438  -7.226  -0.844  0.00  0.00    -0.301 NA
ATOM     16  H   UNL     1       2.675  -6.973  -1.454  0.00  0.00    +0.123 HD
BRANCH  15  17
ATOM     17  C   UNL     1       3.566  -8.686  -0.740  0.00  0.00    +0.141 C 
ATOM     18  C   UNL     1       5.019  -9.054  -0.432  0.00  0.00    +0.028 C 
ATOM     19  C   UNL     1       5.974  -8.097  -1.122  0.00  0.00    +0.003 C 
ATOM     20  C   UNL     1       5.958  -8.200  -2.636  0.00  0.00    +0.019 C 
ATOM     21  C   UNL     1       4.616  -7.729  -3.201  0.00  0.00    +0.104 C 
ATOM     22  N   UNL     1       3.681  -8.866  -3.201  0.00  0.00    -0.314 N 
ATOM     23  C   UNL     1       3.171  -9.326  -2.054  0.00  0.00    +0.230 C 
ATOM     24  O   UNL     1       2.397 -10.260  -2.063  0.00  0.00    -0.274 OA
ATOM     25  H   UNL     1       3.430  -9.283  -4.040  0.00  0.00    +0.149 HD
ENDBRANCH  15  17
ENDBRANCH  14  15
ENDBRANCH   4  14
TORSDOF 5
