REMARK  Name = ZINC35982151
REMARK  8 active torsions:
REMARK  status: ('A' for Active; 'I' for Inactive)
REMARK    1  A    between atoms: C_1  and  C_2
REMARK    2  A    between atoms: C_10  and  O_36
REMARK    3  A    between atoms: C_21  and  N_23
REMARK    4  A    between atoms: N_23  and  C_24
REMARK    5  A    between atoms: C_24  and  C_25
REMARK    6  A    between atoms: C_25  and  N_26
REMARK    7  A    between atoms: C_30  and  N_33
REMARK    8  A    between atoms: O_36  and  C_37
REMARK                            x       y       z     vdW  Elec       q    Type
REMARK                         _______ _______ _______ _____ _____    ______ ____
ROOT
ATOM      1  C   UNL     1      -0.019   1.526   0.010  0.00  0.00    +0.010 C 
ATOM      2  C   UNL     1       0.002  -0.004   0.002  0.00  0.00    -0.041 C 
ATOM      3  C   UNL     1       0.600  -0.550  -1.296  0.00  0.00    +0.006 C 
ATOM      4  C   UNL     1       2.115  -0.356  -1.338  0.00  0.00    +0.009 C 
ATOM      5  C   UNL     1       2.726  -1.129  -0.167  0.00  0.00    +0.023 C 
ATOM      6  C   UNL     1       4.227  -1.071  -0.210  0.00  0.00    -0.041 A 
ATOM      7  C   UNL     1       4.852  -1.180  -1.445  0.00  0.00    +0.008 A 
ATOM      8  C   UNL     1       6.227  -1.141  -1.542  0.00  0.00    +0.046 A 
ATOM      9  C   UNL     1       6.993  -0.994  -0.395  0.00  0.00    +0.120 A 
ATOM     10  C   UNL     1       6.369  -0.883   0.836  0.00  0.00    +0.049 A 
ATOM     11  C   UNL     1       4.984  -0.917   0.932  0.00  0.00    -0.040 A 
ATOM     12  C   UNL     1       4.376  -0.767   2.302  0.00  0.00    +0.036 C 
ATOM     13  C   UNL     1       2.909  -1.196   2.304  0.00  0.00    +0.009 C 
ATOM     14  C   UNL     1       2.221  -0.503   1.129  0.00  0.00    +0.000 C 
ATOM     15  C   UNL     1       0.738  -0.569   1.233  0.00  0.00    -0.003 C 
ATOM     16  C   UNL     1       0.230  -2.020   1.317  0.00  0.00    +0.003 C 
ATOM     17  C   UNL     1      -1.270  -1.898   0.961  0.00  0.00    -0.015 C 
ATOM     18  C   UNL     1      -1.424  -0.599   0.148  0.00  0.00    -0.065 C 
ENDROOT
BRANCH  18  19
ATOM     19  N   UNL     1      -1.984  -0.897  -1.177  0.00  0.00    +0.382 N 
ATOM     20  H   UNL     1      -1.958  -0.066  -1.748  0.00  0.00    -0.085 HD
ATOM     21  H   UNL     1      -1.441  -1.625  -1.616  0.00  0.00    -0.085 HD
BRANCH  19  22
ATOM     22  C   UNL     1      -3.376  -1.346  -1.030  0.00  0.00    -0.063 C 
BRANCH  22  23
ATOM     23  C   UNL     1      -3.959  -1.656  -2.410  0.00  0.00    +0.084 C 
BRANCH  23  24
ATOM     24  N   UNL     1      -5.346  -2.104  -2.264  0.00  0.00    -0.331 N 
ATOM     25  C   UNL     1      -6.089  -2.445  -3.389  0.00  0.00    +0.119 A 
ATOM     26  C   UNL     1      -5.506  -2.365  -4.650  0.00  0.00    +0.046 A 
ATOM     27  C   UNL     1      -6.256  -2.708  -5.760  0.00  0.00    +0.037 A 
ATOM     28  C   UNL     1      -7.569  -3.121  -5.571  0.00  0.00    +0.144 A 
ATOM     29  C   UNL     1      -8.082  -3.178  -4.292  0.00  0.00    +0.145 A 
ATOM     30  N   UNL     1      -7.342  -2.849  -3.250  0.00  0.00    -0.238 NA
ATOM     31  H   UNL     1      -5.747  -2.162  -1.382  0.00  0.00    +0.147 HD
BRANCH  28  32
ATOM     32  N   UNL     1      -8.408  -3.497  -6.731  0.00  0.00    +0.058 N 
ATOM     33  O   UNL     1      -7.952  -3.445  -7.849  0.00  0.00    -0.126 OA
ATOM     34  O   UNL     1      -9.549  -3.857  -6.560  0.00  0.00    -0.126 OA
ENDBRANCH  28  32
ENDBRANCH  23  24
ENDBRANCH  22  23
ENDBRANCH  19  22
ENDBRANCH  18  19
BRANCH   9  35
ATOM     35  O   UNL     1       8.348  -0.958  -0.479  0.00  0.00    -0.495 OA
ATOM     36  C   UNL     1       8.921  -1.078  -1.782  0.00  0.00    +0.277 C 
ENDBRANCH   9  35
TORSDOF 6
