REMARK  Name = ZINC39604898
REMARK  7 active torsions:
REMARK  status: ('A' for Active; 'I' for Inactive)
REMARK    1  A    between atoms: C_1  and  C_2
REMARK    2  A    between atoms: C_2  and  N_3
REMARK    3  A    between atoms: C_4  and  C_10
REMARK    4  A    between atoms: C_6  and  C_8
REMARK    5  A    between atoms: C_14  and  C_23
REMARK    6  A    between atoms: N_25  and  C_26
REMARK    7  A    between atoms: C_26  and  C_27
REMARK                            x       y       z     vdW  Elec       q    Type
REMARK                         _______ _______ _______ _____ _____    ______ ____
ROOT
ATOM      1  C   UNL     1      -1.788  -0.487   2.698  0.00  0.00    +0.266 C 
ATOM      2  O   UNL     1      -2.572  -0.831   3.562  0.00  0.00    -0.268 OA
ATOM      3  N   UNL     1      -0.618   0.088   3.041  0.00  0.00    -0.295 N 
ATOM      4  C   UNL     1       0.499   0.477   2.148  0.00  0.00    +0.121 C 
ATOM      5  C   UNL     1       0.999   1.825   2.713  0.00  0.00    +0.100 C 
ATOM      6  C   UNL     1       0.566   1.817   4.189  0.00  0.00    -0.004 C 
ATOM      7  C   UNL     1      -0.161   0.481   4.396  0.00  0.00    +0.115 C 
ATOM      8  C   UNL     1      -0.385   2.977   4.467  0.00  0.00    -0.010 C 
ATOM      9  C   UNL     1      -0.756   2.982   5.953  0.00  0.00    -0.082 C 
ATOM     10  N   UNL     1       0.461   3.116   6.762  0.00  0.00    +0.379 N 
ATOM     11  C   UNL     1       1.329   1.950   6.559  0.00  0.00    -0.082 C 
ATOM     12  C   UNL     1       1.788   1.901   5.099  0.00  0.00    -0.010 C 
ATOM     13  H   UNL     1       0.955   3.953   6.489  0.00  0.00    -0.086 HD
ATOM     14  H   UNL     1       0.209   3.180   7.737  0.00  0.00    -0.086 HD
ENDROOT
BRANCH   1  16
ATOM     15  N   UNL     1      -2.622   0.225   0.408  0.00  0.00    -0.258 N 
ATOM     16  C   UNL     1      -2.116  -0.699   1.280  0.00  0.00    +0.138 A 
ATOM     17  C   UNL     1      -1.973  -1.873   0.560  0.00  0.00    +0.071 A 
ATOM     18  C   UNL     1      -2.414  -1.570  -0.731  0.00  0.00    +0.075 A 
ATOM     19  N   UNL     1      -2.787  -0.316  -0.745  0.00  0.00    -0.175 NA
ATOM     20  C   UNL     1      -2.459  -2.522  -1.899  0.00  0.00    +0.069 C 
ATOM     21 BR   UNL     1      -1.319  -3.532   1.189  0.00  0.00    -0.046 Br
BRANCH  15  23
ATOM     22  C   UNL     1      -4.343   1.695   1.334  0.00  0.00    +0.029 C 
ATOM     23  C   UNL     1      -2.935   1.617   0.741  0.00  0.00    +0.141 C 
ENDBRANCH  15  23
ENDBRANCH   1  16
BRANCH   5  24
ATOM     24  C   UNL     1       2.499   1.916   2.604  0.00  0.00    +0.218 C 
ATOM     25  O   UNL     1       3.168   0.904   2.590  0.00  0.00    -0.275 OA
ATOM     26  N   UNL     1       3.098   3.121   2.523  0.00  0.00    -0.313 N 
ATOM     27  H   UNL     1       2.571   3.931   2.609  0.00  0.00    +0.149 HD
BRANCH  26  28
ATOM     28  C   UNL     1       4.544   3.207   2.303  0.00  0.00    +0.135 C 
BRANCH  28  29
ATOM     29  C   UNL     1       4.965   4.677   2.250  0.00  0.00    +0.135 C 
ATOM     30  C   UNL     1       6.464   4.780   1.899  0.00  0.00    +0.035 C 
ATOM     31  C   UNL     1       6.936   5.947   2.809  0.00  0.00    +0.031 C 
ATOM     32  C   UNL     1       6.040   5.729   4.055  0.00  0.00    +0.160 C 
ATOM     33  O   UNL     1       4.776   5.283   3.534  0.00  0.00    -0.375 OA
ENDBRANCH  28  29
ENDBRANCH  26  28
ENDBRANCH   5  24
TORSDOF 5
