REMARK  Name = ZINC28647183
REMARK  6 active torsions:
REMARK  status: ('A' for Active; 'I' for Inactive)
REMARK    1  A    between atoms: C_4  and  C_7
REMARK    2  A    between atoms: C_7  and  C_8
REMARK    3  A    between atoms: C_7  and  N_22
REMARK    4  A    between atoms: C_8  and  C_9
REMARK    5  A    between atoms: C_9  and  N_11
REMARK    6  A    between atoms: C_23  and  C_25
REMARK                            x       y       z     vdW  Elec       q    Type
REMARK                         _______ _______ _______ _____ _____    ______ ____
ROOT
ATOM      1  C   UNL     1       3.694  -0.739  -0.042  0.00  0.00    +0.112 C 
ENDROOT
BRANCH   1   5
ATOM      2  C   UNL     1      -0.042   1.333   0.002  0.00  0.00    +0.000 A 
ATOM      3  C   UNL     1       1.143   2.044  -0.017  0.00  0.00    +0.000 A 
ATOM      4  C   UNL     1       2.352   1.374  -0.031  0.00  0.00    +0.005 A 
ATOM      5  C   UNL     1       2.376  -0.008  -0.026  0.00  0.00    -0.027 A 
ATOM      6  C   UNL     1       1.191  -0.720  -0.006  0.00  0.00    +0.005 A 
ATOM      7  C   UNL     1      -0.018  -0.050   0.007  0.00  0.00    +0.000 A 
ENDBRANCH   1   5
BRANCH   1   8
ATOM      8  N   UNL     1       3.595  -1.905  -0.924  0.00  0.00    -0.304 N 
ATOM      9  C   UNL     1       3.802  -1.767  -2.249  0.00  0.00    +0.245 C 
ATOM     10  O   UNL     1       4.071  -0.676  -2.712  0.00  0.00    -0.270 OA
ATOM     11  H   UNL     1       3.381  -2.775  -0.554  0.00  0.00    +0.150 HD
BRANCH   9  12
ATOM     12  C   UNL     1       3.702  -2.943  -3.138  0.00  0.00    +0.037 A 
ATOM     13  C   UNL     1       3.388  -4.197  -2.611  0.00  0.00    +0.013 A 
ATOM     14  C   UNL     1       3.296  -5.291  -3.446  0.00  0.00    +0.001 A 
ATOM     15  C   UNL     1       3.514  -5.147  -4.805  0.00  0.00    +0.000 A 
ATOM     16  C   UNL     1       3.826  -3.908  -5.335  0.00  0.00    +0.001 A 
ATOM     17  C   UNL     1       3.916  -2.805  -4.511  0.00  0.00    +0.013 A 
ENDBRANCH   9  12
ENDBRANCH   1   8
BRANCH   1  18
ATOM     18  C   UNL     1       4.040  -1.199   1.375  0.00  0.00    +0.125 C 
BRANCH  18  19
ATOM     19  C   UNL     1       5.412  -1.821   1.381  0.00  0.00    +0.241 C 
ATOM     20  O   UNL     1       6.053  -1.889   0.350  0.00  0.00    -0.274 OA
BRANCH  19  21
ATOM     21  N   UNL     1       5.923  -2.295   2.513  0.00  0.00    -0.147 NA
ATOM     22  C   UNL     1       7.088  -2.937   2.500  0.00  0.00    +0.198 A 
ATOM     23  N   UNL     1       7.902  -3.070   1.420  0.00  0.00    -0.326 N 
ATOM     24  H   UNL     1       7.731  -2.715   0.533  0.00  0.00    +0.169 HD
ATOM     25  C   UNL     1       9.021  -3.802   1.803  0.00  0.00    +0.065 A 
ATOM     26  C   UNL     1      10.152  -4.228   1.123  0.00  0.00    +0.028 A 
ATOM     27  C   UNL     1      11.119  -4.957   1.786  0.00  0.00    +0.002 A 
ATOM     28  C   UNL     1      10.964  -5.266   3.127  0.00  0.00    +0.002 A 
ATOM     29  C   UNL     1       9.842  -4.846   3.813  0.00  0.00    +0.028 A 
ATOM     30  C   UNL     1       8.864  -4.113   3.156  0.00  0.00    +0.065 A 
ATOM     31  N   UNL     1       7.656  -3.558   3.567  0.00  0.00    -0.326 N 
ATOM     32  H   UNL     1       7.283  -3.609   4.460  0.00  0.00    +0.169 HD
ENDBRANCH  19  21
ENDBRANCH  18  19
ENDBRANCH   1  18
TORSDOF 6
