REMARK  Name = ZINC14116604
REMARK  7 active torsions:
REMARK  status: ('A' for Active; 'I' for Inactive)
REMARK    1  A    between atoms: C_6  and  C_7
REMARK    2  A    between atoms: C_7  and  N_62
REMARK    3  A    between atoms: C_10  and  N_13
REMARK    4  A    between atoms: C_14  and  C_16
REMARK    5  A    between atoms: C_16  and  C_17
REMARK    6  A    between atoms: C_17  and  C_18
REMARK    7  A    between atoms: C_18  and  N_19
REMARK                            x       y       z     vdW  Elec       q    Type
REMARK                         _______ _______ _______ _____ _____    ______ ____
ROOT
ATOM      1  N   UNL     1       1.406   3.515  -0.051  0.00  0.00    -0.313 N 
ATOM      2  C   UNL     1       2.455   4.216   0.423  0.00  0.00    +0.213 C 
ATOM      3  O   UNL     1       3.410   3.634   0.892  0.00  0.00    -0.276 OA
ATOM      4  H   UNL     1       0.642   3.981  -0.426  0.00  0.00    +0.149 HD
ENDROOT
BRANCH   1   7
ATOM      5  C   UNL     1       0.002  -0.004   0.002  0.00  0.00    -0.077 C 
ATOM      6  C   UNL     1      -0.019   1.526   0.010  0.00  0.00    +0.003 C 
ATOM      7  C   UNL     1       1.420   2.051  -0.001  0.00  0.00    +0.069 C 
ATOM      8  C   UNL     1       2.145   1.503  -1.232  0.00  0.00    +0.003 C 
ATOM      9  C   UNL     1       2.103  -0.026  -1.205  0.00  0.00    -0.077 C 
ATOM     10  N   UNL     1       0.692  -0.468  -1.220  0.00  0.00    +0.382 N 
ATOM     11  H   UNL     1       0.226  -0.063  -2.040  0.00  0.00    -0.081 HD
BRANCH  10  12
ATOM     12  C   UNL     1       0.626  -1.941  -1.309  0.00  0.00    -0.043 C 
BRANCH  12  18
ATOM     13  C   UNL     1       0.267  -2.476  -3.728  0.00  0.00    +0.003 A 
ATOM     14  C   UNL     1       0.738  -2.863  -4.968  0.00  0.00    +0.020 A 
ATOM     15  C   UNL     1       2.079  -3.155  -5.138  0.00  0.00    +0.041 A 
ATOM     16  C   UNL     1       2.950  -3.054  -4.068  0.00  0.00    +0.020 A 
ATOM     17  C   UNL     1       2.479  -2.661  -2.829  0.00  0.00    +0.003 A 
ATOM     18  C   UNL     1       1.139  -2.369  -2.660  0.00  0.00    -0.064 A 
ATOM     19 CL   UNL     1       2.670  -3.648  -6.695  0.00  0.00    -0.084 Cl
ENDBRANCH  12  18
ENDBRANCH  10  12
ENDBRANCH   1   7
BRANCH   2  20
ATOM     20  C   UNL     1       2.441   5.722   0.371  0.00  0.00    +0.097 C 
BRANCH  20  21
ATOM     21  C   UNL     1       3.740   6.265   0.969  0.00  0.00    +0.029 C 
BRANCH  21  22
ATOM     22  C   UNL     1       3.726   7.794   0.916  0.00  0.00    +0.118 C 
BRANCH  22  23
ATOM     23  N   UNL     1       4.970   8.315   1.488  0.00  0.00    -0.224 N 
ATOM     24  C   UNL     1       6.092   8.554   0.775  0.00  0.00    +0.246 C 
ATOM     25  O   UNL     1       6.258   8.386  -0.414  0.00  0.00    -0.273 OA
ATOM     26  C   UNL     1       7.094   9.073   1.774  0.00  0.00    +0.113 C 
ATOM     27  C   UNL     1       7.561  10.487   1.402  0.00  0.00    +0.035 C 
ATOM     28  C   UNL     1       9.051  10.515   1.833  0.00  0.00    +0.003 C 
ATOM     29  C   UNL     1       9.538   9.085   1.484  0.00  0.00    +0.003 C 
ATOM     30  C   UNL     1       8.335   8.180   1.833  0.00  0.00    +0.035 C 
ATOM     31  N   UNL     1       6.375   9.073   3.049  0.00  0.00    -0.285 N 
ATOM     32  C   UNL     1       5.134   8.617   2.782  0.00  0.00    +0.309 C 
ATOM     33  O   UNL     1       4.265   8.492   3.622  0.00  0.00    -0.252 OA
ATOM     34  H   UNL     1       6.720   9.350   3.913  0.00  0.00    +0.151 HD
ENDBRANCH  22  23
ENDBRANCH  21  22
ENDBRANCH  20  21
ENDBRANCH   2  20
TORSDOF 7
