REMARK  Name = ZINC39775703
REMARK  6 active torsions:
REMARK  status: ('A' for Active; 'I' for Inactive)
REMARK    1  A    between atoms: C_1  and  C_2
REMARK    2  A    between atoms: C_2  and  C_17
REMARK    3  A    between atoms: N_3  and  N_4
REMARK    4  A    between atoms: C_5  and  C_7
REMARK    5  A    between atoms: C_7  and  C_8
REMARK    6  A    between atoms: C_17  and  N_18
REMARK                            x       y       z     vdW  Elec       q    Type
REMARK                         _______ _______ _______ _____ _____    ______ ____
ROOT
ATOM      1  C   UNL     1      -0.018   1.503   0.010  0.00  0.00    +0.064 C 
ATOM      2  C   UNL     1       0.002  -0.004   0.002  0.00  0.00    +0.052 C 
ATOM      3  N   UNL     1       0.021  -0.650   1.107  0.00  0.00    -0.188 NA
ENDROOT
BRANCH   3   4
ATOM      4  N   UNL     1       0.023   0.044   2.324  0.00  0.00    -0.207 N 
ATOM      5  C   UNL     1       0.044  -0.636   3.487  0.00  0.00    +0.237 C 
ATOM      6  O   UNL     1       0.060  -1.849   3.481  0.00  0.00    -0.274 OA
ATOM      7  H   UNL     1       0.010   1.014   2.329  0.00  0.00    +0.177 HD
BRANCH   5   8
ATOM      8  C   UNL     1       0.046   0.110   4.797  0.00  0.00    +0.134 C 
BRANCH   8   9
ATOM      9  C   UNL     1       0.070  -0.875   5.937  0.00  0.00    -0.014 A 
ATOM     10  C   UNL     1       1.258  -1.506   6.518  0.00  0.00    +0.003 A 
ATOM     11  C   UNL     1       2.626  -1.428   6.253  0.00  0.00    +0.010 A 
ATOM     12  C   UNL     1       3.504  -2.165   6.996  0.00  0.00    +0.001 A 
ATOM     13  C   UNL     1       3.046  -2.992   8.013  0.00  0.00    +0.002 A 
ATOM     14  C   UNL     1       1.700  -3.084   8.291  0.00  0.00    +0.026 A 
ATOM     15  C   UNL     1       0.788  -2.343   7.548  0.00  0.00    +0.047 A 
ATOM     16  N   UNL     1      -0.583  -2.219   7.579  0.00  0.00    -0.360 N 
ATOM     17  C   UNL     1      -0.992  -1.336   6.616  0.00  0.00    +0.087 A 
ATOM     18  H   UNL     1      -1.170  -2.684   8.194  0.00  0.00    +0.165 HD
ENDBRANCH   8   9
ENDBRANCH   5   8
ENDBRANCH   3   4
BRANCH   2  19
ATOM     19  C   UNL     1      -0.000  -0.750  -1.307  0.00  0.00    +0.177 C 
BRANCH  19  20
ATOM     20  N   UNL     1       0.022  -2.192  -1.047  0.00  0.00    -0.244 N 
ATOM     21  C   UNL     1      -1.099  -3.015  -0.897  0.00  0.00    +0.068 A 
ATOM     22  C   UNL     1      -2.461  -2.770  -0.938  0.00  0.00    +0.026 A 
ATOM     23  C   UNL     1      -3.355  -3.809  -0.749  0.00  0.00    +0.002 A 
ATOM     24  C   UNL     1      -2.893  -5.091  -0.519  0.00  0.00    +0.002 A 
ATOM     25  C   UNL     1      -1.534  -5.345  -0.476  0.00  0.00    +0.026 A 
ATOM     26  C   UNL     1      -0.633  -4.310  -0.664  0.00  0.00    +0.065 A 
ATOM     27  N   UNL     1       0.765  -4.255  -0.677  0.00  0.00    -0.263 N 
ATOM     28  N   UNL     1       1.140  -2.964  -0.916  0.00  0.00    -0.160 NA
ATOM     29  H   UNL     1       1.365  -5.005  -0.543  0.00  0.00    +0.168 HD
ATOM     30  H   UNL     1       1.722  -2.901  -1.738  0.00  0.00    +0.168 HD
ENDBRANCH  19  20
ENDBRANCH   2  19
TORSDOF 5
