REMARK  Name = ZINC01073658
REMARK  7 active torsions:
REMARK  status: ('A' for Active; 'I' for Inactive)
REMARK    1  A    between atoms: C_1  and  C_2
REMARK    2  A    between atoms: C_3  and  C_14
REMARK    3  A    between atoms: N_6  and  C_7
REMARK    4  A    between atoms: C_19  and  C_21
REMARK    5  A    between atoms: N_22  and  C_28
REMARK    6  A    between atoms: C_23  and  N_27
REMARK    7  A    between atoms: C_24  and  C_25
REMARK                            x       y       z     vdW  Elec       q    Type
REMARK                         _______ _______ _______ _____ _____    ______ ____
ROOT
ATOM      1  C   UNL     1       0.082  -0.305  -2.552  0.00  0.00    +0.121 C 
ATOM      2  C   UNL     1      -1.161  -1.007  -3.027  0.00  0.00    +0.115 A 
ATOM      3  C   UNL     1      -1.139  -2.010  -3.944  0.00  0.00    +0.223 A 
ATOM      4  O   UNL     1      -2.401  -2.407  -4.130  0.00  0.00    -0.425 OA
ATOM      5  C   UNL     1      -3.185  -1.649  -3.341  0.00  0.00    +0.195 A 
ATOM      6  N   UNL     1      -2.436  -0.809  -2.679  0.00  0.00    -0.216 NA
ATOM      7  C   UNL     1      -4.684  -1.753  -3.237  0.00  0.00    +0.109 C 
ATOM      8  N   UNL     1       0.048  -2.458  -4.525  0.00  0.00    -0.226 N 
ATOM      9  C   UNL     1       1.178  -1.687  -4.348  0.00  0.00    +0.109 C 
ATOM     10  C   UNL     1       1.234  -0.673  -3.449  0.00  0.00    +0.079 C 
ENDROOT
BRANCH   1  13
ATOM     11  C   UNL     1       0.258   1.582  -0.063  0.00  0.00    +0.066 C 
ATOM     12  C   UNL     1       0.466   0.090  -0.062  0.00  0.00    +0.047 A 
ATOM     13  C   UNL     1       0.390  -0.727  -1.138  0.00  0.00    +0.026 A 
ATOM     14  C   UNL     1       0.648  -2.034  -0.706  0.00  0.00    +0.156 A 
ATOM     15  N   UNL     1       0.870  -2.002   0.584  0.00  0.00    -0.154 NA
ATOM     16  N   UNL     1       0.766  -0.673   1.013  0.00  0.00    -0.235 N 
ATOM     17 CL   UNL     1       0.669  -3.451  -1.708  0.00  0.00    -0.060 Cl
BRANCH  16  18
ATOM     18  C   UNL     1       0.940  -0.215   2.326  0.00  0.00    +0.066 A 
ATOM     19  C   UNL     1       1.511   1.029   2.559  0.00  0.00    +0.028 A 
ATOM     20  C   UNL     1       1.681   1.478   3.854  0.00  0.00    +0.002 A 
ATOM     21  C   UNL     1       1.283   0.690   4.918  0.00  0.00    +0.000 A 
ATOM     22  C   UNL     1       0.715  -0.550   4.690  0.00  0.00    +0.002 A 
ATOM     23  C   UNL     1       0.537  -1.001   3.397  0.00  0.00    +0.028 A 
ENDBRANCH  16  18
ENDBRANCH   1  13
BRANCH   8  24
ATOM     24  C   UNL     1       0.090  -3.648  -5.260  0.00  0.00    +0.043 A 
ATOM     25  C   UNL     1       0.818  -4.732  -4.787  0.00  0.00    +0.024 A 
ATOM     26  C   UNL     1       0.857  -5.905  -5.515  0.00  0.00    +0.002 A 
ATOM     27  C   UNL     1       0.174  -6.001  -6.713  0.00  0.00    +0.000 A 
ATOM     28  C   UNL     1      -0.552  -4.923  -7.187  0.00  0.00    +0.002 A 
ATOM     29  C   UNL     1      -0.600  -3.749  -6.461  0.00  0.00    +0.024 A 
ENDBRANCH   8  24
BRANCH   9  30
ATOM     30  N   UNL     1       2.288  -1.954  -5.114  0.00  0.00    -0.345 N 
ATOM     31  H   UNL     1       2.240  -2.610  -5.827  0.00  0.00    +0.144 HD
ATOM     32  H   UNL     1       3.121  -1.487  -4.941  0.00  0.00    +0.144 HD
ENDBRANCH   9  30
BRANCH  10  33
ATOM     33  C   UNL     1       2.447   0.081  -3.345  0.00  0.00    +0.099 C 
ATOM     34  N   UNL     1       3.409   0.680  -3.262  0.00  0.00    -0.191 NA
ENDBRANCH  10  33
TORSDOF 5
