REMARK  Name = ZINC16488956
REMARK  8 active torsions:
REMARK  status: ('A' for Active; 'I' for Inactive)
REMARK    1  A    between atoms: C_1  and  C_2
REMARK    2  A    between atoms: C_4  and  C_14
REMARK    3  A    between atoms: C_6  and  S_9
REMARK    4  A    between atoms: C_7  and  C_8
REMARK    5  A    between atoms: S_9  and  N_12
REMARK    6  A    between atoms: N_12  and  C_13
REMARK    7  A    between atoms: N_16  and  N_17
REMARK    8  A    between atoms: N_19  and  C_27
REMARK                            x       y       z     vdW  Elec       q    Type
REMARK                         _______ _______ _______ _____ _____    ______ ____
ROOT
ATOM      1  C   UNL     1      -4.240   8.454   0.423  0.00  0.00    +0.263 C 
ATOM      2  O   UNL     1      -5.421   8.226   0.611  0.00  0.00    -0.268 OA
ATOM      3  N   UNL     1      -3.354   7.439   0.394  0.00  0.00    -0.201 N 
ATOM      4  H   UNL     1      -2.413   7.621   0.244  0.00  0.00    +0.178 HD
ENDROOT
BRANCH   3   5
ATOM      5  N   UNL     1      -3.792   6.122   0.580  0.00  0.00    -0.154 NA
ATOM      6  C   UNL     1      -2.934   5.138   0.551  0.00  0.00    +0.191 A 
ATOM      7  N   UNL     1      -3.161   3.785   0.711  0.00  0.00    -0.321 N 
ATOM      8  C   UNL     1      -2.099   2.897   0.645  0.00  0.00    +0.057 A 
ATOM      9  C   UNL     1      -2.148   1.499   0.778  0.00  0.00    +0.027 A 
ATOM     10  C   UNL     1      -1.004   0.741   0.694  0.00  0.00    +0.002 A 
ATOM     11  C   UNL     1       0.229   1.325   0.465  0.00  0.00    +0.001 A 
ATOM     12  C   UNL     1       0.306   2.701   0.325  0.00  0.00    +0.017 A 
ATOM     13  C   UNL     1      -0.837   3.459   0.414  0.00  0.00    +0.039 A 
ATOM     14  S   UNL     1      -1.168   5.201   0.297  0.00  0.00    -0.048 S 
ATOM     15  C   UNL     1      -4.520   3.291   0.950  0.00  0.00    +0.151 C 
ENDBRANCH   3   5
BRANCH   1  19
ATOM     16  C   UNL     1      -0.539  11.698  -0.405  0.00  0.00    +0.044 C 
ATOM     17  C   UNL     1      -2.000  11.410  -0.172  0.00  0.00    -0.045 A 
ATOM     18  C   UNL     1      -2.425  10.110   0.011  0.00  0.00    +0.016 A 
ATOM     19  C   UNL     1      -3.778   9.845   0.227  0.00  0.00    +0.040 A 
ATOM     20  C   UNL     1      -4.694  10.898   0.250  0.00  0.00    +0.042 A 
ATOM     21  C   UNL     1      -4.256  12.193   0.071  0.00  0.00    +0.109 A 
ATOM     22  C   UNL     1      -2.913  12.449  -0.142  0.00  0.00    -0.021 A 
ATOM     23  C   UNL     1      -2.442  13.867  -0.343  0.00  0.00    +0.046 C 
BRANCH  21  24
ATOM     24  S   UNL     1      -5.409  13.525   0.106  0.00  0.00    +0.058 S 
ATOM     25  O   UNL     1      -6.697  12.943   0.259  0.00  0.00    -0.153 OA
ATOM     26  O   UNL     1      -4.894  14.485   1.018  0.00  0.00    -0.153 OA
BRANCH  24  27
ATOM     27  N   UNL     1      -5.385  14.233  -1.391  0.00  0.00    -0.193 NA
ATOM     28  C   UNL     1      -5.845  13.484  -2.563  0.00  0.00    +0.127 C 
ATOM     29  H   UNL     1      -5.067  15.144  -1.491  0.00  0.00    +0.148 HD
ENDBRANCH  24  27
ENDBRANCH  21  24
ENDBRANCH   1  19
TORSDOF 4
