REMARK  Name = ZINC12935736
REMARK  4 active torsions:
REMARK  status: ('A' for Active; 'I' for Inactive)
REMARK    1  A    between atoms: C_1  and  C_2
REMARK    2  A    between atoms: C_10  and  C_11
REMARK    3  A    between atoms: N_13  and  C_14
REMARK    4  A    between atoms: C_14  and  C_21
REMARK                            x       y       z     vdW  Elec       q    Type
REMARK                         _______ _______ _______ _____ _____    ______ ____
ROOT
ATOM      1  C   UNL     1      -2.816   1.121   2.460  0.00  0.00    +0.251 C 
ATOM      2  O   UNL     1      -2.510   1.980   3.265  0.00  0.00    -0.270 OA
ATOM      3  N   UNL     1      -2.001   0.849   1.422  0.00  0.00    -0.304 N 
ATOM      4  H   UNL     1      -2.245   0.165   0.779  0.00  0.00    +0.150 HD
ENDROOT
BRANCH   1  14
ATOM      5  C   UNL     1      -4.833   1.522   4.690  0.00  0.00    +0.046 C 
ATOM      6  C   UNL     1      -5.018   0.509   3.590  0.00  0.00    -0.024 A 
ATOM      7  C   UNL     1      -6.166  -0.303   3.567  0.00  0.00    -0.007 A 
ATOM      8  C   UNL     1      -7.251  -0.317   4.482  0.00  0.00    +0.009 A 
ATOM      9  C   UNL     1      -8.291  -1.172   4.312  0.00  0.00    +0.001 A 
ATOM     10  C   UNL     1      -8.337  -2.061   3.245  0.00  0.00    +0.001 A 
ATOM     11  C   UNL     1      -7.303  -2.081   2.332  0.00  0.00    +0.015 A 
ATOM     12  C   UNL     1      -6.239  -1.218   2.491  0.00  0.00    +0.020 A 
ATOM     13  S   UNL     1      -4.747  -0.907   1.581  0.00  0.00    -0.083 S 
ATOM     14  C   UNL     1      -4.075   0.380   2.619  0.00  0.00    +0.078 A 
ENDBRANCH   1  14
BRANCH   3  15
ATOM     15  C   UNL     1      -0.746   1.588   1.263  0.00  0.00    +0.053 C 
ATOM     16  C   UNL     1      -0.013   1.086   0.008  0.00  0.00    +0.049 C 
ATOM     17  C   UNL     1      -0.778   1.608  -1.241  0.00  0.00    +0.168 C 
ATOM     18  S   UNL     1      -1.187   3.320  -0.696  0.00  0.00    -0.029 S 
ATOM     19  O   UNL     1      -0.161   4.201  -1.131  0.00  0.00    -0.174 OA
ATOM     20  O   UNL     1      -2.539   3.601  -1.030  0.00  0.00    -0.174 OA
ATOM     21  C   UNL     1      -1.053   3.099   1.125  0.00  0.00    +0.191 C 
ATOM     22  C   UNL     1       0.136   1.359   2.492  0.00  0.00    +0.033 C 
ENDBRANCH   3  15
TORSDOF 2
