REMARK  Name = ZINC20932431
REMARK  14 active torsions:
REMARK  status: ('A' for Active; 'I' for Inactive)
REMARK    1  A    between atoms: C_1  and  C_2
REMARK    2  A    between atoms: C_2  and  C_3
REMARK    3  A    between atoms: C_3  and  O_4
REMARK    4  A    between atoms: O_4  and  C_5
REMARK    5  A    between atoms: C_6  and  O_27
REMARK    6  A    between atoms: C_8  and  C_12
REMARK    7  A    between atoms: C_12  and  N_13
REMARK    8  A    between atoms: N_13  and  C_14
REMARK    9  A    between atoms: C_14  and  C_15
REMARK   10  A    between atoms: C_15  and  N_16
REMARK   11  A    between atoms: N_16  and  C_17
REMARK   12  A    between atoms: C_20  and  N_24
REMARK   13  A    between atoms: O_27  and  C_28
REMARK   14  A    between atoms: C_28  and  C_29
REMARK                            x       y       z     vdW  Elec       q    Type
REMARK                         _______ _______ _______ _____ _____    ______ ____
ROOT
ATOM      1  N   UNL     1      -0.723   1.572  -1.182  0.00  0.00    +0.383 N 
ATOM      2  H   UNL     1      -1.755   1.192  -1.174  0.00  0.00    -0.085 HD
ATOM      3  H   UNL     1      -0.738   2.672  -1.176  0.00  0.00    -0.085 HD
ENDROOT
BRANCH   1   4
ATOM      4  C   UNL     1      -0.013   1.086   0.008  0.00  0.00    -0.047 C 
BRANCH   4   8
ATOM      5  C   UNL     1      -2.017   2.461   3.527  0.00  0.00    +0.176 A 
ATOM      6  C   UNL     1      -1.009   3.230   2.955  0.00  0.00    +0.163 A 
ATOM      7  C   UNL     1      -0.358   2.779   1.817  0.00  0.00    +0.051 A 
ATOM      8  C   UNL     1      -0.718   1.572   1.248  0.00  0.00    -0.060 A 
ATOM      9  C   UNL     1      -1.719   0.807   1.816  0.00  0.00    +0.021 A 
ATOM     10  C   UNL     1      -2.369   1.249   2.955  0.00  0.00    +0.063 A 
ATOM     11 BR   UNL     1      -3.738   0.199   3.730  0.00  0.00    -0.046 Br
BRANCH   5  12
ATOM     12  O   UNL     1      -2.655   2.897   4.647  0.00  0.00    -0.487 OA
BRANCH  12  13
ATOM     13  C   UNL     1      -2.096   2.512   5.904  0.00  0.00    +0.229 C 
BRANCH  13  15
ATOM     14  C   UNL     1      -2.345   2.680   8.384  0.00  0.00    +0.007 C 
ATOM     15  C   UNL     1      -2.944   3.092   7.038  0.00  0.00    +0.038 C 
ENDBRANCH  13  15
ENDBRANCH  12  13
ENDBRANCH   5  12
BRANCH   6  16
ATOM     16  O   UNL     1      -0.660   4.420   3.513  0.00  0.00    -0.489 OA
BRANCH  16  17
ATOM     17  C   UNL     1       0.383   5.157   2.871  0.00  0.00    +0.226 C 
ATOM     18  C   UNL     1       0.635   6.457   3.636  0.00  0.00    +0.048 C 
ENDBRANCH  16  17
ENDBRANCH   6  16
ENDBRANCH   4   8
ENDBRANCH   1   4
BRANCH   1  19
ATOM     19  C   UNL     1      -0.062   1.117  -2.413  0.00  0.00    -0.063 C 
BRANCH  19  20
ATOM     20  C   UNL     1      -0.829   1.643  -3.628  0.00  0.00    +0.082 C 
BRANCH  20  21
ATOM     21  N   UNL     1      -0.171   1.188  -4.855  0.00  0.00    -0.345 N 
ATOM     22  H   UNL     1       0.735   0.567  -4.795  0.00  0.00    +0.146 HD
BRANCH  21  23
ATOM     23  C   UNL     1      -0.692   1.545  -6.101  0.00  0.00    +0.046 A 
ATOM     24  C   UNL     1      -1.835   2.330  -6.178  0.00  0.00    +0.026 A 
ATOM     25  C   UNL     1      -2.348   2.681  -7.412  0.00  0.00    +0.034 A 
ATOM     26  C   UNL     1      -1.726   2.252  -8.570  0.00  0.00    +0.128 A 
ATOM     27  C   UNL     1      -0.587   1.470  -8.497  0.00  0.00    +0.054 A 
ATOM     28  C   UNL     1      -0.065   1.120  -7.266  0.00  0.00    +0.064 A 
ATOM     29 CL   UNL     1       1.368   0.145  -7.176  0.00  0.00    -0.082 Cl
BRANCH  26  30
ATOM     30  N   UNL     1      -2.278   2.631  -9.889  0.00  0.00    +0.056 N 
ATOM     31  O   UNL     1      -3.281   3.320  -9.955  0.00  0.00    -0.126 OA
ATOM     32  O   UNL     1      -1.731   2.254 -10.910  0.00  0.00    -0.126 OA
ENDBRANCH  26  30
ENDBRANCH  21  23
ENDBRANCH  20  21
ENDBRANCH  19  20
ENDBRANCH   1  19
TORSDOF 12
