REMARK  Name = ZINC20611894
REMARK  8 active torsions:
REMARK  status: ('A' for Active; 'I' for Inactive)
REMARK    1  A    between atoms: C_1  and  O_2
REMARK    2  A    between atoms: O_2  and  C_3
REMARK    3  A    between atoms: C_6  and  C_9
REMARK    4  A    between atoms: C_9  and  N_10
REMARK    5  A    between atoms: C_15  and  C_32
REMARK    6  A    between atoms: C_32  and  C_33
REMARK    7  A    between atoms: C_36  and  O_40
REMARK    8  A    between atoms: C_37  and  O_39
REMARK                            x       y       z     vdW  Elec       q    Type
REMARK                         _______ _______ _______ _____ _____    ______ ____
ROOT
ATOM      1  N   UNL     1       3.923  -2.713  -4.080  0.00  0.00    -0.237 N 
ATOM      2  C   UNL     1       4.865  -1.806  -4.362  0.00  0.00    +0.227 C 
ATOM      3  O   UNL     1       4.667  -0.730  -4.884  0.00  0.00    -0.275 OA
ATOM      4  C   UNL     1       6.214  -2.332  -3.929  0.00  0.00    +0.107 C 
ATOM      5  C   UNL     1       6.739  -1.484  -2.752  0.00  0.00    +0.072 C 
ATOM      6  N   UNL     1       6.157  -2.116  -1.538  0.00  0.00    -0.295 NA
ATOM      7  C   UNL     1       6.218  -3.562  -1.819  0.00  0.00    +0.136 C 
ATOM      8  C   UNL     1       5.880  -3.723  -3.323  0.00  0.00    +0.122 C 
ATOM      9  C   UNL     1       4.381  -3.826  -3.494  0.00  0.00    +0.229 C 
ATOM     10  O   UNL     1       3.700  -4.770  -3.156  0.00  0.00    -0.275 OA
ATOM     11  C   UNL     1       7.571  -4.130  -1.500  0.00  0.00    +0.003 A 
ATOM     12  C   UNL     1       8.844  -3.858  -1.949  0.00  0.00    +0.008 A 
ATOM     13  C   UNL     1       9.921  -4.570  -1.452  0.00  0.00    +0.000 A 
ATOM     14  C   UNL     1       9.716  -5.556  -0.504  0.00  0.00    +0.002 A 
ATOM     15  C   UNL     1       8.443  -5.832  -0.051  0.00  0.00    +0.023 A 
ATOM     16  C   UNL     1       7.353  -5.120  -0.546  0.00  0.00    +0.039 A 
ATOM     17  N   UNL     1       5.991  -5.213  -0.249  0.00  0.00    -0.283 N 
ATOM     18  C   UNL     1       5.256  -4.331  -0.955  0.00  0.00    +0.243 C 
ATOM     19  O   UNL     1       4.053  -4.185  -0.902  0.00  0.00    -0.273 OA
ATOM     20  H   UNL     1       6.696  -1.885  -0.716  0.00  0.00    +0.124 HD
ATOM     21  H   UNL     1       5.618  -5.839   0.390  0.00  0.00    +0.155 HD
ENDROOT
BRANCH   1  22
ATOM     22  C   UNL     1       2.505  -2.503  -4.381  0.00  0.00    +0.151 C 
BRANCH  22  26
ATOM     23  C   UNL     1       0.606  -0.607  -1.056  0.00  0.00    +0.120 A 
ATOM     24  C   UNL     1       1.173   0.161  -2.062  0.00  0.00    +0.046 A 
ATOM     25  C   UNL     1       1.786  -0.455  -3.136  0.00  0.00    +0.009 A 
ATOM     26  C   UNL     1       1.835  -1.835  -3.209  0.00  0.00    -0.029 A 
ATOM     27  C   UNL     1       1.270  -2.602  -2.207  0.00  0.00    +0.009 A 
ATOM     28  C   UNL     1       0.661  -1.992  -1.128  0.00  0.00    +0.046 A 
BRANCH  23  30
ATOM     29  C   UNL     1      -0.017   1.425   0.010  0.00  0.00    +0.277 C 
ATOM     30  O   UNL     1       0.002  -0.004   0.002  0.00  0.00    -0.495 OA
ENDBRANCH  23  30
ENDBRANCH  22  26
ENDBRANCH   1  22
BRANCH   5  31
ATOM     31  C   UNL     1       6.259  -0.037  -2.882  0.00  0.00    +0.054 C 
BRANCH  31  32
ATOM     32  C   UNL     1       6.881   0.799  -1.793  0.00  0.00    -0.042 A 
ATOM     33  C   UNL     1       6.239   0.934  -0.576  0.00  0.00    +0.007 A 
ATOM     34  C   UNL     1       6.805   1.699   0.426  0.00  0.00    +0.049 A 
ATOM     35  C   UNL     1       8.018   2.333   0.212  0.00  0.00    +0.158 A 
ATOM     36  C   UNL     1       8.665   2.197  -1.013  0.00  0.00    +0.158 A 
ATOM     37  C   UNL     1       8.094   1.424  -2.011  0.00  0.00    +0.052 A 
BRANCH  36  38
ATOM     38  O   UNL     1       9.856   2.817  -1.227  0.00  0.00    -0.503 OA
ATOM     39  H   UNL     1      10.626   2.284  -0.986  0.00  0.00    +0.292 HD
ENDBRANCH  36  38
BRANCH  35  40
ATOM     40  O   UNL     1       8.576   3.087   1.197  0.00  0.00    -0.503 OA
ATOM     41  H   UNL     1       9.163   2.593   1.786  0.00  0.00    +0.292 HD
ENDBRANCH  35  40
ENDBRANCH  31  32
ENDBRANCH   5  31
TORSDOF 7
