REMARK  Name = ZINC20222149
REMARK  4 active torsions:
REMARK  status: ('A' for Active; 'I' for Inactive)
REMARK    1  A    between atoms: C_1  and  C_2
REMARK    2  A    between atoms: C_6  and  C_9
REMARK    3  A    between atoms: C_10  and  O_22
REMARK    4  A    between atoms: C_12  and  N_21
REMARK                            x       y       z     vdW  Elec       q    Type
REMARK                         _______ _______ _______ _____ _____    ______ ____
ROOT
ATOM      1  C   UNL     1       0.667   1.012   5.971  0.00  0.00    +0.045 C 
ATOM      2  C   UNL     1       0.812   1.895   4.758  0.00  0.00    -0.028 A 
ATOM      3  C   UNL     1       1.601   1.490   3.700  0.00  0.00    +0.050 A 
ATOM      4  C   UNL     1       1.738   2.301   2.579  0.00  0.00    +0.127 A 
ATOM      5  C   UNL     1       1.075   3.515   2.524  0.00  0.00    +0.025 A 
ATOM      6  C   UNL     1       0.286   3.917   3.588  0.00  0.00    -0.023 A 
ATOM      7  C   UNL     1       0.154   3.111   4.703  0.00  0.00    +0.047 A 
ATOM      8 CL   UNL     1      -0.836   3.623   6.034  0.00  0.00    -0.083 Cl
ATOM      9  C   UNL     1      -0.431   5.241   3.531  0.00  0.00    +0.046 C 
ATOM     10  C   UNL     1       1.192   4.420   1.324  0.00  0.00    +0.138 C 
ATOM     11  C   UNL     1       2.421   4.029   0.501  0.00  0.00    +0.003 C 
ATOM     12  C   UNL     1       2.400   2.510   0.294  0.00  0.00    +0.101 C 
ATOM     13  O   UNL     1       2.535   1.874   1.564  0.00  0.00    -0.487 OA
ATOM     14  C   UNL     1       1.077   2.101  -0.352  0.00  0.00    +0.046 C 
ATOM     15  C   UNL     1       1.057   0.585  -0.560  0.00  0.00    +0.004 C 
ATOM     16  C   UNL     1       2.218   0.180  -1.470  0.00  0.00    +0.000 C 
ATOM     17  C   UNL     1       3.542   0.588  -0.820  0.00  0.00    +0.004 C 
ATOM     18  C   UNL     1       3.562   2.104  -0.613  0.00  0.00    +0.046 C 
ENDROOT
BRANCH  11  19
ATOM     19  N   UNL     1       3.642   4.413   1.222  0.00  0.00    +0.384 N 
ATOM     20  H   UNL     1       4.524   4.130   0.628  0.00  0.00    -0.089 HD
ATOM     21  H   UNL     1       3.673   3.896   2.193  0.00  0.00    -0.089 HD
ATOM     22  H   UNL     1       3.644   5.500   1.386  0.00  0.00    -0.089 HD
ENDBRANCH  11  19
BRANCH  10  23
ATOM     23  O   UNL     1       1.323   5.774   1.761  0.00  0.00    -0.389 OA
ATOM     24  H   UNL     1       1.420   6.583   1.022  0.00  0.00    +0.210 HD
ENDBRANCH  10  23
TORSDOF 2
