REMARK  Name = ZINC13571737
REMARK  10 active torsions:
REMARK  status: ('A' for Active; 'I' for Inactive)
REMARK    1  A    between atoms: C_1  and  C_2
REMARK    2  A    between atoms: C_6  and  C_11
REMARK    3  A    between atoms: C_12  and  O_14
REMARK    4  A    between atoms: O_14  and  C_15
REMARK    5  A    between atoms: C_15  and  C_16
REMARK    6  A    between atoms: N_18  and  C_19
REMARK    7  A    between atoms: C_19  and  C_20
REMARK    8  A    between atoms: C_20  and  C_21
REMARK    9  A    between atoms: C_24  and  S_27
REMARK   10  A    between atoms: S_27  and  N_30
REMARK                            x       y       z     vdW  Elec       q    Type
REMARK                         _______ _______ _______ _____ _____    ______ ____
ROOT
ATOM      1  C   UNL     1       0.388  -2.899   4.771  0.00  0.00    +0.251 C 
ATOM      2  O   UNL     1       0.307  -4.099   4.617  0.00  0.00    -0.272 OA
ATOM      3  N   UNL     1       0.483  -2.384   6.013  0.00  0.00    -0.312 N 
ATOM      4  H   UNL     1       0.548  -1.424   6.137  0.00  0.00    +0.149 HD
ENDROOT
BRANCH   1   5
ATOM      5  C   UNL     1       0.383  -1.983   3.575  0.00  0.00    +0.324 C 
BRANCH   5   6
ATOM      6  O   UNL     1       0.274  -2.760   2.381  0.00  0.00    -0.482 OA
BRANCH   6  18
ATOM      7  C   UNL     1       0.411   1.493  -0.002  0.00  0.00    +0.044 C 
ATOM      8  C   UNL     1       0.319  -0.012  -0.007  0.00  0.00    -0.043 A 
ATOM      9  C   UNL     1       0.216  -0.685  -1.208  0.00  0.00    +0.050 A 
ATOM     10  C   UNL     1       0.131  -2.070  -1.225  0.00  0.00    +0.143 A 
ATOM     11  C   UNL     1       0.150  -2.779  -0.010  0.00  0.00    +0.062 A 
ATOM     12  C   UNL     1       0.059  -4.239  -0.039  0.00  0.00    -0.030 A 
ATOM     13  C   UNL     1      -0.041  -4.852  -1.247  0.00  0.00    +0.096 A 
ATOM     14  C   UNL     1      -0.054  -4.079  -2.426  0.00  0.00    +0.337 A 
ATOM     15  O   UNL     1      -0.145  -4.641  -3.503  0.00  0.00    -0.245 OA
ATOM     16  O   UNL     1       0.029  -2.740  -2.393  0.00  0.00    -0.422 OA
ATOM     17  C   UNL     1       0.077  -5.041   1.237  0.00  0.00    +0.045 C 
ATOM     18  C   UNL     1       0.255  -2.084   1.204  0.00  0.00    +0.132 A 
ATOM     19  C   UNL     1       0.345  -0.703   1.193  0.00  0.00    +0.050 A 
ENDBRANCH   6  18
ENDBRANCH   5   6
ENDBRANCH   1   5
BRANCH   3  20
ATOM     20  C   UNL     1       0.488  -3.275   7.177  0.00  0.00    +0.109 C 
BRANCH  20  21
ATOM     21  C   UNL     1       0.605  -2.442   8.455  0.00  0.00    +0.054 C 
BRANCH  21  22
ATOM     22  C   UNL     1       0.610  -3.358   9.652  0.00  0.00    -0.046 A 
ATOM     23  C   UNL     1      -0.581  -3.710  10.259  0.00  0.00    +0.005 A 
ATOM     24  C   UNL     1      -0.576  -4.550  11.357  0.00  0.00    +0.029 A 
ATOM     25  C   UNL     1       0.620  -5.039  11.847  0.00  0.00    +0.105 A 
ATOM     26  C   UNL     1       1.811  -4.688  11.240  0.00  0.00    +0.029 A 
ATOM     27  C   UNL     1       1.806  -3.851  10.140  0.00  0.00    +0.005 A 
BRANCH  25  28
ATOM     28  S   UNL     1       0.627  -6.109  13.247  0.00  0.00    +0.056 S 
ATOM     29  O   UNL     1       1.911  -5.991  13.843  0.00  0.00    -0.153 OA
ATOM     30  O   UNL     1      -0.572  -5.847  13.964  0.00  0.00    -0.153 OA
BRANCH  28  31
ATOM     31  N   UNL     1       0.509  -7.660  12.679  0.00  0.00    -0.204 NA
ATOM     32  H   UNL     1       0.453  -7.823  11.725  0.00  0.00    +0.144 HD
ATOM     33  H   UNL     1       0.496  -8.404  13.300  0.00  0.00    +0.144 HD
ENDBRANCH  28  31
ENDBRANCH  25  28
ENDBRANCH  21  22
ENDBRANCH  20  21
ENDBRANCH   3  20
TORSDOF 8
