REMARK  Name = ZINC64410433
REMARK  7 active torsions:
REMARK  status: ('A' for Active; 'I' for Inactive)
REMARK    1  A    between atoms: C_1  and  C_2
REMARK    2  A    between atoms: C_2  and  C_4
REMARK    3  A    between atoms: C_2  and  N_12
REMARK    4  A    between atoms: C_4  and  C_5
REMARK    5  A    between atoms: C_5  and  C_6
REMARK    6  A    between atoms: C_13  and  C_15
REMARK    7  A    between atoms: N_18  and  C_21
REMARK                            x       y       z     vdW  Elec       q    Type
REMARK                         _______ _______ _______ _____ _____    ______ ____
ROOT
ATOM      1  C   UNL     1       0.775  -1.061  -3.575  0.00  0.00    +0.077 C 
ATOM      2  C   UNL     1       1.847  -0.042  -3.974  0.00  0.00    +0.028 C 
ATOM      3  C   UNL     1       2.529  -0.505  -5.263  0.00  0.00    +0.087 C 
ATOM      4  N   UNL     1       1.527  -0.633  -6.330  0.00  0.00    -0.275 NA
ATOM      5  C   UNL     1       0.514  -1.640  -5.989  0.00  0.00    +0.087 C 
ATOM      6  C   UNL     1      -0.228  -1.211  -4.722  0.00  0.00    +0.028 C 
ENDROOT
BRANCH   4   7
ATOM      7  C   UNL     1       2.165  -0.941  -7.617  0.00  0.00    +0.239 C 
ATOM      8  C   UNL     1       2.994   0.257  -8.019  0.00  0.00    +0.255 C 
ATOM      9  O   UNL     1       2.477   1.349  -8.146  0.00  0.00    -0.272 OA
ATOM     10  N   UNL     1       4.302   0.099  -8.234  0.00  0.00    -0.281 N 
ATOM     11  C   UNL     1       4.889  -1.078  -8.102  0.00  0.00    +0.057 A 
ATOM     12  C   UNL     1       6.276  -1.210  -8.337  0.00  0.00    +0.025 A 
ATOM     13  C   UNL     1       6.883  -2.413  -8.205  0.00  0.00    +0.002 A 
ATOM     14  C   UNL     1       6.189  -3.577  -7.835  0.00  0.00    +0.002 A 
ATOM     15  C   UNL     1       4.861  -3.563  -7.587  0.00  0.00    +0.027 A 
ATOM     16  C   UNL     1       4.128  -2.291  -7.710  0.00  0.00    +0.058 A 
ATOM     17  N   UNL     1       2.849  -2.237  -7.479  0.00  0.00    -0.360 N 
ATOM     18  H   UNL     1       2.358  -3.033  -7.222  0.00  0.00    +0.162 HD
ATOM     19  H   UNL     1       4.835   0.867  -8.492  0.00  0.00    +0.155 HD
ENDBRANCH   4   7
BRANCH   1  21
ATOM     20  N   UNL     1       0.747  -0.376  -1.198  0.00  0.00    -0.312 N 
ATOM     21  C   UNL     1       0.059  -0.580  -2.339  0.00  0.00    +0.216 C 
ATOM     22  O   UNL     1      -1.136  -0.378  -2.371  0.00  0.00    -0.276 OA
ATOM     23  H   UNL     1       1.703  -0.538  -1.172  0.00  0.00    +0.149 HD
BRANCH  20  25
ATOM     24  C   UNL     1      -0.059   1.616  -0.031  0.00  0.00    +0.028 C 
ATOM     25  C   UNL     1       0.051   0.091   0.004  0.00  0.00    +0.070 C 
BRANCH  25  26
ATOM     26  C   UNL     1       0.835  -0.336   1.246  0.00  0.00    +0.026 C 
BRANCH  26  27
ATOM     27  C   UNL     1       0.838  -1.863   1.347  0.00  0.00    +0.037 C 
BRANCH  27  28
ATOM     28  C   UNL     1       1.610  -2.284   2.571  0.00  0.00    -0.047 A 
ATOM     29  C   UNL     1       2.971  -2.512   2.485  0.00  0.00    +0.003 A 
ATOM     30  C   UNL     1       3.680  -2.898   3.607  0.00  0.00    +0.000 A 
ATOM     31  C   UNL     1       3.028  -3.055   4.816  0.00  0.00    +0.000 A 
ATOM     32  C   UNL     1       1.667  -2.825   4.902  0.00  0.00    +0.000 A 
ATOM     33  C   UNL     1       0.960  -2.435   3.781  0.00  0.00    +0.003 A 
ENDBRANCH  27  28
ENDBRANCH  26  27
ENDBRANCH  25  26
ENDBRANCH  20  25
ENDBRANCH   1  21
TORSDOF 6
