REMARK  Name = ZINC20715085
REMARK  7 active torsions:
REMARK  status: ('A' for Active; 'I' for Inactive)
REMARK    1  A    between atoms: C_1  and  O_2
REMARK    2  A    between atoms: O_2  and  C_3
REMARK    3  A    between atoms: C_6  and  C_11
REMARK    4  A    between atoms: C_8  and  O_9
REMARK    5  A    between atoms: O_9  and  C_10
REMARK    6  A    between atoms: C_22  and  S_27
REMARK    7  A    between atoms: S_27  and  N_30
REMARK                            x       y       z     vdW  Elec       q    Type
REMARK                         _______ _______ _______ _____ _____    ______ ____
ROOT
ATOM      1  C   UNL     1       1.393   1.660  -0.002  0.00  0.00    +0.105 C 
ATOM      2  C   UNL     1      -0.013   1.086   0.008  0.00  0.00    +0.029 C 
ATOM      3  C   UNL     1      -1.003   1.642  -1.024  0.00  0.00    +0.033 C 
ATOM      4  C   UNL     1      -2.345   1.445  -0.259  0.00  0.00    -0.030 C 
ATOM      5  C   UNL     1      -2.131   1.434   1.051  0.00  0.00    -0.023 C 
ATOM      6  C   UNL     1      -0.682   1.652   1.296  0.00  0.00    +0.049 C 
ATOM      7  C   UNL     1      -0.003   1.051   2.464  0.00  0.00    -0.018 A 
ATOM      8  C   UNL     1      -0.668   0.749   3.632  0.00  0.00    +0.034 A 
ATOM      9  C   UNL     1       0.016   0.208   4.705  0.00  0.00    +0.105 A 
ATOM     10  C   UNL     1       1.375  -0.033   4.608  0.00  0.00    +0.030 A 
ATOM     11  C   UNL     1       2.048   0.260   3.440  0.00  0.00    +0.025 A 
ATOM     12  C   UNL     1       1.369   0.798   2.354  0.00  0.00    +0.031 A 
ATOM     13  N   UNL     1       2.071   1.074   1.174  0.00  0.00    -0.336 N 
ATOM     14  H   UNL     1       3.147   0.847   1.133  0.00  0.00    +0.147 HD
ENDROOT
BRANCH   1  18
ATOM     15  C   UNL     1       3.424   0.525  -3.590  0.00  0.00    +0.162 A 
ATOM     16  C   UNL     1       3.326  -0.367  -2.535  0.00  0.00    +0.050 A 
ATOM     17  C   UNL     1       2.668   0.003  -1.376  0.00  0.00    +0.009 A 
ATOM     18  C   UNL     1       2.109   1.262  -1.268  0.00  0.00    -0.023 A 
ATOM     19  C   UNL     1       2.199   2.155  -2.319  0.00  0.00    +0.055 A 
ATOM     20  C   UNL     1       2.860   1.792  -3.481  0.00  0.00    +0.162 A 
BRANCH  15  22
ATOM     21  C   UNL     1       4.624  -1.154  -4.772  0.00  0.00    +0.277 C 
ATOM     22  O   UNL     1       4.071   0.163  -4.731  0.00  0.00    -0.491 OA
ENDBRANCH  15  22
BRANCH  20  23
ATOM     23  O   UNL     1       2.954   2.671  -4.514  0.00  0.00    -0.491 OA
ATOM     24  C   UNL     1       2.352   3.954  -4.332  0.00  0.00    +0.277 C 
ENDBRANCH  20  23
ENDBRANCH   1  18
BRANCH   9  25
ATOM     25  S   UNL     1      -0.842  -0.176   6.195  0.00  0.00    +0.056 S 
ATOM     26  O   UNL     1       0.125  -0.163   7.236  0.00  0.00    -0.153 OA
ATOM     27  O   UNL     1      -2.000   0.648   6.221  0.00  0.00    -0.153 OA
BRANCH  25  28
ATOM     28  N   UNL     1      -1.377  -1.738   6.064  0.00  0.00    -0.204 NA
ATOM     29  H   UNL     1      -1.920  -2.017   6.979  0.00  0.00    +0.144 HD
ATOM     30  H   UNL     1      -0.516  -2.409   5.930  0.00  0.00    +0.144 HD
ENDBRANCH  25  28
ENDBRANCH   9  25
TORSDOF 5
