REMARK  Name = ZINC20912519
REMARK  8 active torsions:
REMARK  status: ('A' for Active; 'I' for Inactive)
REMARK    1  A    between atoms: C_1  and  C_2
REMARK    2  A    between atoms: C_7  and  N_8
REMARK    3  A    between atoms: C_9  and  C_11
REMARK    4  A    between atoms: C_11  and  S_12
REMARK    5  A    between atoms: S_12  and  C_13
REMARK    6  A    between atoms: N_17  and  N_18
REMARK    7  A    between atoms: N_19  and  N_20
REMARK    8  A    between atoms: C_21  and  C_22
REMARK                            x       y       z     vdW  Elec       q    Type
REMARK                         _______ _______ _______ _____ _____    ______ ____
ROOT
ATOM      1  C   UNL     1      -2.991  -2.639  -0.055  0.00  0.00    +0.210 A 
ATOM      2  N   UNL     1      -3.734  -1.558  -0.056  0.00  0.00    -0.119 NA
ATOM      3  N   UNL     1      -2.881  -0.446  -0.058  0.00  0.00    -0.109 NA
ATOM      4  C   UNL     1      -1.645  -0.884  -0.066  0.00  0.00    +0.254 A 
ATOM      5  N   UNL     1      -1.681  -2.251  -0.061  0.00  0.00    -0.211 N 
ATOM      6  N   UNL     1      -0.502  -0.099  -0.072  0.00  0.00    -0.204 N 
ATOM      7  H   UNL     1       0.491  -0.573  -0.074  0.00  0.00    +0.177 HD
ENDROOT
BRANCH   5   8
ATOM      8  N   UNL     1      -0.598  -3.083  -0.063  0.00  0.00    -0.294 N 
ATOM      9  H   UNL     1       0.418  -2.662  -0.068  0.00  0.00    +0.163 HD
ATOM     10  H   UNL     1      -0.742  -4.173  -0.059  0.00  0.00    +0.163 HD
ENDBRANCH   5   8
BRANCH   6  11
ATOM     11  N   UNL     1      -0.611   1.298  -0.076  0.00  0.00    -0.187 NA
ATOM     12  C   UNL     1       0.460   2.034  -0.083  0.00  0.00    +0.139 C 
BRANCH  12  13
ATOM     13  C   UNL     1       0.345   3.500  -0.087  0.00  0.00    +0.002 A 
ATOM     14  C   UNL     1       1.476   4.300  -0.202  0.00  0.00    +0.010 A 
ATOM     15  C   UNL     1       1.364   5.684  -0.213  0.00  0.00    +0.001 A 
ATOM     16  C   UNL     1       0.159   6.307  -0.099  0.00  0.00    +0.008 A 
ATOM     17  C   UNL     1      -1.025   5.561   0.027  0.00  0.00    -0.017 A 
ATOM     18  C   UNL     1      -0.960   4.147   0.036  0.00  0.00    -0.009 A 
ATOM     19  C   UNL     1      -2.137   3.400   0.161  0.00  0.00    +0.009 A 
ATOM     20  C   UNL     1      -3.334   4.043   0.273  0.00  0.00    +0.001 A 
ATOM     21  C   UNL     1      -3.402   5.435   0.265  0.00  0.00    +0.001 A 
ATOM     22  C   UNL     1      -2.276   6.191   0.145  0.00  0.00    +0.008 A 
ENDBRANCH  12  13
ENDBRANCH   6  11
BRANCH   1  23
ATOM     23  S   UNL     1      -3.579  -4.300  -0.048  0.00  0.00    -0.075 S 
BRANCH  23  24
ATOM     24  C   UNL     1      -5.364  -4.001  -0.042  0.00  0.00    +0.173 C 
BRANCH  24  26
ATOM     25  N   UNL     1      -7.442  -5.343  -0.030  0.00  0.00    -0.285 N 
ATOM     26  C   UNL     1      -6.095  -5.319  -0.035  0.00  0.00    +0.227 C 
ATOM     27  O   UNL     1      -5.469  -6.358  -0.034  0.00  0.00    -0.275 OA
ATOM     28  H   UNL     1      -8.009  -4.405   0.061  0.00  0.00    +0.155 HD
BRANCH  25  35
ATOM     29  C   UNL     1     -10.074  -5.518   1.037  0.00  0.00    +0.046 C 
ATOM     30  C   UNL     1      -9.407  -6.691   0.366  0.00  0.00    -0.027 A 
ATOM     31  C   UNL     1     -10.077  -7.894   0.251  0.00  0.00    +0.043 A 
ATOM     32  C   UNL     1      -9.463  -8.974  -0.360  0.00  0.00    +0.124 A 
ATOM     33  C   UNL     1      -8.178  -8.849  -0.862  0.00  0.00    +0.040 A 
ATOM     34  C   UNL     1      -7.507  -7.647  -0.753  0.00  0.00    +0.026 A 
ATOM     35  C   UNL     1      -8.121  -6.563  -0.141  0.00  0.00    +0.037 A 
ATOM     36  F   UNL     1     -10.118 -10.150  -0.467  0.00  0.00    -0.205 F 
ENDBRANCH  25  35
ENDBRANCH  24  26
ENDBRANCH  23  24
ENDBRANCH   1  23
TORSDOF 7
