REMARK  Name = ZINC66042752
REMARK  5 active torsions:
REMARK  status: ('A' for Active; 'I' for Inactive)
REMARK    1  A    between atoms: C_6  and  O_30
REMARK    2  A    between atoms: C_7  and  C_11
REMARK    3  A    between atoms: N_13  and  N_14
REMARK    4  A    between atoms: C_15  and  C_17
REMARK    5  A    between atoms: C_20  and  C_25
REMARK                            x       y       z     vdW  Elec       q    Type
REMARK                         _______ _______ _______ _____ _____    ______ ____
ROOT
ATOM      1  N   UNL     1       1.498  -6.318  -0.065  0.00  0.00    -0.230 N 
ATOM      2  C   UNL     1       0.361  -7.041  -0.041  0.00  0.00    +0.265 C 
ATOM      3  O   UNL     1      -0.713  -6.483   0.080  0.00  0.00    -0.268 OA
ATOM      4  H   UNL     1       2.358  -6.766  -0.086  0.00  0.00    +0.173 HD
ENDROOT
BRANCH   2   5
ATOM      5  C   UNL     1       0.419  -8.503  -0.161  0.00  0.00    +0.102 A 
ATOM      6  C   UNL     1      -0.759  -9.251  -0.260  0.00  0.00    +0.020 A 
ATOM      7  C   UNL     1      -0.677 -10.629  -0.372  0.00  0.00    +0.030 A 
ATOM      8  C   UNL     1       0.566 -11.249  -0.385  0.00  0.00    +0.085 A 
ATOM      9  N   UNL     1       1.716 -10.512  -0.287  0.00  0.00    -0.319 N 
ATOM     10  H   UNL     1       2.575 -10.961  -0.297  0.00  0.00    +0.169 HD
ATOM     11  C   UNL     1       1.668  -9.170  -0.183  0.00  0.00    +0.261 A 
ATOM     12  O   UNL     1       2.702  -8.529  -0.103  0.00  0.00    -0.267 OA
BRANCH   8  13
ATOM     13  C   UNL     1       0.648 -12.706  -0.503  0.00  0.00    +0.151 A 
ATOM     14  C   UNL     1       1.797 -13.447  -0.523  0.00  0.00    +0.051 A 
ATOM     15  C   UNL     1       1.408 -14.790  -0.649  0.00  0.00    +0.042 A 
ATOM     16  C   UNL     1       0.058 -14.811  -0.700  0.00  0.00    +0.196 A 
ATOM     17  O   UNL     1      -0.396 -13.553  -0.606  0.00  0.00    -0.461 OA
ENDBRANCH   8  13
ENDBRANCH   2   5
BRANCH   1  20
ATOM     18  C   UNL     1       2.574  -4.194  -0.083  0.00  0.00    +0.264 C 
ATOM     19  O   UNL     1       3.652  -4.756  -0.110  0.00  0.00    -0.269 OA
ATOM     20  N   UNL     1       1.437  -4.918  -0.059  0.00  0.00    -0.230 N 
ATOM     21  H   UNL     1       0.577  -4.470  -0.038  0.00  0.00    +0.173 HD
BRANCH  18  28
ATOM     22  C   UNL     1      -0.026   1.356  -0.007  0.00  0.00    +0.001 A 
ATOM     23  C   UNL     1       1.158   2.091  -0.033  0.00  0.00    +0.001 A 
ATOM     24  C   UNL     1       2.368   1.470  -0.062  0.00  0.00    +0.008 A 
ATOM     25  C   UNL     1       2.431   0.065  -0.068  0.00  0.00    -0.014 A 
ATOM     26  C   UNL     1       3.666  -0.603  -0.098  0.00  0.00    +0.054 A 
ATOM     27  C   UNL     1       3.704  -1.966  -0.102  0.00  0.00    +0.130 A 
ATOM     28  C   UNL     1       2.510  -2.720  -0.077  0.00  0.00    +0.080 A 
ATOM     29  C   UNL     1       1.280  -2.084  -0.047  0.00  0.00    +0.025 A 
ATOM     30  C   UNL     1       1.226  -0.683  -0.042  0.00  0.00    -0.017 A 
ATOM     31  C   UNL     1      -0.006  -0.004  -0.011  0.00  0.00    +0.008 A 
BRANCH  27  32
ATOM     32  O   UNL     1       4.901  -2.605  -0.131  0.00  0.00    -0.506 OA
ATOM     33  H   UNL     1       5.268  -2.793   0.743  0.00  0.00    +0.292 HD
ENDBRANCH  27  32
ENDBRANCH  18  28
ENDBRANCH   1  20
TORSDOF 5
