REMARK  Name = ZINC12559937
REMARK  5 active torsions:
REMARK  status: ('A' for Active; 'I' for Inactive)
REMARK    1  A    between atoms: C_1  and  N_2
REMARK    2  A    between atoms: C_10  and  N_11
REMARK    3  A    between atoms: N_11  and  N_12
REMARK    4  A    between atoms: N_12  and  C_13
REMARK    5  A    between atoms: N_12  and  C_19
REMARK                            x       y       z     vdW  Elec       q    Type
REMARK                         _______ _______ _______ _____ _____    ______ ____
ROOT
ATOM      1  N   UNL     1       1.240  -4.369   0.045  0.00  0.00    -0.266 N 
ATOM      2  H   UNL     1       0.276  -4.304   0.137  0.00  0.00    +0.170 HD
ENDROOT
BRANCH   1  12
ATOM      3  C   UNL     1       1.217   1.590  -1.007  0.00  0.00    +0.138 C 
ATOM      4  N   UNL     1       0.993   0.155  -0.813  0.00  0.00    -0.270 N 
ATOM      5  C   UNL     1      -0.256  -0.453  -0.843  0.00  0.00    +0.044 A 
ATOM      6  C   UNL     1      -1.532   0.062  -1.044  0.00  0.00    +0.024 A 
ATOM      7  C   UNL     1      -2.628  -0.777  -1.024  0.00  0.00    +0.002 A 
ATOM      8  C   UNL     1      -2.472  -2.135  -0.805  0.00  0.00    +0.001 A 
ATOM      9  C   UNL     1      -1.214  -2.664  -0.603  0.00  0.00    +0.010 A 
ATOM     10  C   UNL     1      -0.103  -1.827  -0.622  0.00  0.00    +0.010 A 
ATOM     11  C   UNL     1       1.349  -2.062  -0.445  0.00  0.00    +0.061 C 
ATOM     12  C   UNL     1       1.975  -3.252  -0.206  0.00  0.00    +0.102 C 
ATOM     13  C   UNL     1       1.969  -0.741  -0.590  0.00  0.00    +0.252 C 
ATOM     14  O   UNL     1       3.161  -0.497  -0.517  0.00  0.00    -0.270 OA
ENDBRANCH   1  12
BRANCH   1  15
ATOM     15  N   UNL     1       1.875  -5.611   0.170  0.00  0.00    -0.222 N 
BRANCH  15  16
ATOM     16  C   UNL     1       2.591  -5.917   1.330  0.00  0.00    +0.053 A 
ATOM     17  C   UNL     1       2.018  -5.703   2.578  0.00  0.00    +0.025 A 
ATOM     18  C   UNL     1       2.729  -6.005   3.722  0.00  0.00    +0.002 A 
ATOM     19  C   UNL     1       4.009  -6.521   3.628  0.00  0.00    +0.000 A 
ATOM     20  C   UNL     1       4.582  -6.735   2.387  0.00  0.00    +0.002 A 
ATOM     21  C   UNL     1       3.874  -6.440   1.238  0.00  0.00    +0.025 A 
ENDBRANCH  15  16
BRANCH  15  22
ATOM     22  C   UNL     1       1.792  -6.545  -0.866  0.00  0.00    +0.053 A 
ATOM     23  C   UNL     1       1.882  -7.903  -0.588  0.00  0.00    +0.025 A 
ATOM     24  C   UNL     1       1.800  -8.824  -1.614  0.00  0.00    +0.002 A 
ATOM     25  C   UNL     1       1.627  -8.395  -2.917  0.00  0.00    +0.000 A 
ATOM     26  C   UNL     1       1.537  -7.044  -3.198  0.00  0.00    +0.002 A 
ATOM     27  C   UNL     1       1.612  -6.118  -2.176  0.00  0.00    +0.025 A 
ENDBRANCH  15  22
ENDBRANCH   1  15
TORSDOF 4
