REMARK  Name = ZINC02785203
REMARK  6 active torsions:
REMARK  status: ('A' for Active; 'I' for Inactive)
REMARK    1  A    between atoms: C_1  and  C_2
REMARK    2  A    between atoms: C_2  and  N_53
REMARK    3  A    between atoms: C_13  and  C_16
REMARK    4  A    between atoms: C_19  and  C_21
REMARK    5  A    between atoms: C_24  and  N_28
REMARK    6  A    between atoms: C_26  and  C_27
REMARK                            x       y       z     vdW  Elec       q    Type
REMARK                         _______ _______ _______ _____ _____    ______ ____
ROOT
ATOM      1  C   UNL     1       2.373   0.256   0.425  0.00  0.00    -0.074 C 
ATOM      2  C   UNL     1       2.464   1.721  -0.011  0.00  0.00    +0.018 C 
ATOM      3  C   UNL     1       1.059   2.312   0.004  0.00  0.00    -0.027 A 
ATOM      4  C   UNL     1      -0.018   1.492   0.010  0.00  0.00    -0.021 A 
ATOM      5  S   UNL     1      -1.419   2.578   0.022  0.00  0.00    -0.080 S 
ATOM      6  C   UNL     1      -0.594   4.078   0.024  0.00  0.00    +0.080 A 
ATOM      7  C   UNL     1       0.767   3.734   0.015  0.00  0.00    +0.068 A 
ATOM      8  C   UNL     1       1.750   4.842   0.023  0.00  0.00    +0.248 C 
ATOM      9  O   UNL     1       2.938   4.634   0.189  0.00  0.00    -0.270 OA
ATOM     10  N   UNL     1       1.275   6.092  -0.162  0.00  0.00    -0.287 N 
ATOM     11  C   UNL     1      -0.108   6.385  -0.524  0.00  0.00    +0.227 C 
ATOM     12  N   UNL     1      -1.032   5.377   0.026  0.00  0.00    -0.314 N 
ATOM     13  C   UNL     1       0.002  -0.004   0.002  0.00  0.00    -0.035 C 
ATOM     14  H   UNL     1       1.886   6.836  -0.048  0.00  0.00    +0.151 HD
ATOM     15  H   UNL     1      -1.905   5.620   0.372  0.00  0.00    +0.149 HD
ATOM     16  N   UNL     1       1.362  -0.438  -0.399  0.00  0.00    +0.383 N 
ATOM     17  H   UNL     1       1.513  -0.197  -1.386  0.00  0.00    -0.081 HD
ENDROOT
BRANCH  11  18
ATOM     18  C   UNL     1      -0.232   6.401  -2.026  0.00  0.00    +0.144 A 
ATOM     19  C   UNL     1       0.752   6.713  -2.892  0.00  0.00    +0.049 A 
ATOM     20  C   UNL     1       0.211   6.601  -4.189  0.00  0.00    +0.050 A 
ATOM     21  C   UNL     1      -1.087   6.224  -4.040  0.00  0.00    +0.136 A 
ATOM     22  O   UNL     1      -1.340   6.101  -2.723  0.00  0.00    -0.456 OA
BRANCH  21  23
ATOM     23  C   UNL     1      -2.050   5.984  -5.135  0.00  0.00    +0.020 A 
ATOM     24  C   UNL     1      -2.219   6.936  -6.142  0.00  0.00    +0.014 A 
ATOM     25  C   UNL     1      -3.116   6.704  -7.164  0.00  0.00    +0.033 A 
ATOM     26  C   UNL     1      -3.857   5.535  -7.185  0.00  0.00    +0.126 A 
ATOM     27  C   UNL     1      -3.699   4.590  -6.187  0.00  0.00    +0.036 A 
ATOM     28  C   UNL     1      -2.801   4.808  -5.163  0.00  0.00    -0.038 A 
ATOM     29  C   UNL     1      -2.631   3.777  -4.076  0.00  0.00    +0.044 C 
BRANCH  26  30
ATOM     30  N   UNL     1      -4.823   5.295  -8.281  0.00  0.00    +0.056 N 
ATOM     31  O   UNL     1      -5.476   4.267  -8.302  0.00  0.00    -0.126 OA
ATOM     32  O   UNL     1      -4.964   6.125  -9.161  0.00  0.00    -0.126 OA
ENDBRANCH  26  30
ENDBRANCH  21  23
ENDBRANCH  11  18
BRANCH  16  34
ATOM     33  C   UNL     1       0.590  -2.598  -1.255  0.00  0.00    -0.017 C 
ATOM     34  C   UNL     1       1.495  -1.902  -0.236  0.00  0.00    -0.082 C 
ENDBRANCH  16  34
TORSDOF 4
