REMARK  Name = ZINC12884570
REMARK  7 active torsions:
REMARK  status: ('A' for Active; 'I' for Inactive)
REMARK    1  A    between atoms: C_1  and  C_2
REMARK    2  A    between atoms: N_20  and  C_23
REMARK    3  A    between atoms: C_28  and  C_29
REMARK    4  A    between atoms: N_31  and  C_32
REMARK    5  A    between atoms: C_32  and  C_33
REMARK    6  A    between atoms: C_33  and  C_34
REMARK    7  A    between atoms: C_33  and  C_35
REMARK                            x       y       z     vdW  Elec       q    Type
REMARK                         _______ _______ _______ _____ _____    ______ ____
ROOT
ATOM      1  C   UNL     1      -3.976   2.864  -3.066  0.00  0.00    +0.035 C 
ATOM      2  C   UNL     1      -4.090   3.551  -1.704  0.00  0.00    +0.122 C 
ATOM      3  C   UNL     1      -5.414   3.202  -1.053  0.00  0.00    +0.041 A 
ATOM      4  C   UNL     1      -5.524   2.701   0.196  0.00  0.00    -0.015 A 
ATOM      5  C   UNL     1      -6.942   2.519   0.450  0.00  0.00    +0.003 A 
ATOM      6  C   UNL     1      -7.649   2.043   1.557  0.00  0.00    +0.010 A 
ATOM      7  C   UNL     1      -9.018   2.006   1.449  0.00  0.00    +0.001 A 
ATOM      8  C   UNL     1      -9.677   2.418   0.302  0.00  0.00    +0.002 A 
ATOM      9  C   UNL     1      -9.001   2.894  -0.808  0.00  0.00    +0.026 A 
ATOM     10  C   UNL     1      -7.611   2.943  -0.727  0.00  0.00    +0.047 A 
ATOM     11  N   UNL     1      -6.655   3.348  -1.613  0.00  0.00    -0.356 N 
ATOM     12  H   UNL     1      -6.828   3.687  -2.505  0.00  0.00    +0.166 HD
ATOM     13  C   UNL     1      -4.379   2.393   1.128  0.00  0.00    +0.069 C 
ATOM     14  C   UNL     1      -3.133   3.162   0.674  0.00  0.00    +0.169 C 
ATOM     15  N   UNL     1      -3.044   3.059  -0.799  0.00  0.00    -0.265 N 
ATOM     16  C   UNL     1      -1.892   2.449  -1.085  0.00  0.00    +0.317 C 
ATOM     17  O   UNL     1      -1.489   2.257  -2.215  0.00  0.00    -0.252 OA
ATOM     18  N   UNL     1      -1.234   2.068   0.019  0.00  0.00    -0.192 N 
ATOM     19  C   UNL     1      -1.888   2.434   1.140  0.00  0.00    +0.248 C 
ATOM     20  O   UNL     1      -1.551   2.223   2.285  0.00  0.00    -0.273 OA
ENDROOT
BRANCH  18  21
ATOM     21  C   UNL     1      -0.017   1.383   0.010  0.00  0.00    +0.058 A 
ATOM     22  C   UNL     1       0.002  -0.004   0.002  0.00  0.00    +0.025 A 
ATOM     23  C   UNL     1       1.206  -0.680  -0.013  0.00  0.00    +0.002 A 
ATOM     24  C   UNL     1       2.402   0.020  -0.020  0.00  0.00    +0.001 A 
ATOM     25  C   UNL     1       2.402   1.398  -0.013  0.00  0.00    +0.015 A 
ATOM     26  C   UNL     1       1.192   2.094   0.002  0.00  0.00    +0.059 A 
BRANCH  26  27
ATOM     27  C   UNL     1       1.185   3.570   0.009  0.00  0.00    +0.246 C 
ATOM     28  O   UNL     1       0.129   4.173   0.022  0.00  0.00    -0.270 OA
ATOM     29  N   UNL     1       2.349   4.250   0.002  0.00  0.00    -0.311 N 
ATOM     30  H   UNL     1       3.191   3.768  -0.008  0.00  0.00    +0.149 HD
BRANCH  29  31
ATOM     31  C   UNL     1       2.342   5.714   0.009  0.00  0.00    +0.107 C 
BRANCH  31  32
ATOM     32  C   UNL     1       3.782   6.231  -0.001  0.00  0.00    -0.000 C 
ATOM     33  C   UNL     1       3.775   7.757  -0.119  0.00  0.00    +0.009 C 
ATOM     34  C   UNL     1       4.480   5.823   1.297  0.00  0.00    +0.009 C 
ENDBRANCH  31  32
ENDBRANCH  29  31
ENDBRANCH  26  27
ENDBRANCH  18  21
TORSDOF 4
