REMARK  Name = ZINC63350565
REMARK  5 active torsions:
REMARK  status: ('A' for Active; 'I' for Inactive)
REMARK    1  A    between atoms: C_1  and  C_2
REMARK    2  A    between atoms: C_2  and  C_3
REMARK    3  A    between atoms: C_3  and  C_4
REMARK    4  A    between atoms: C_4  and  N_5
REMARK    5  A    between atoms: C_8  and  C_14
REMARK                            x       y       z     vdW  Elec       q    Type
REMARK                         _______ _______ _______ _____ _____    ______ ____
ROOT
ATOM      1  C   UNL     1       4.968  -3.422   3.477  0.00  0.00    +0.121 C 
ATOM      2  C   UNL     1       5.283  -4.625   2.585  0.00  0.00    +0.128 C 
ATOM      3  C   UNL     1       4.896  -4.218   1.168  0.00  0.00    -0.035 C 
ATOM      4  C   UNL     1       4.067  -5.151   0.723  0.00  0.00    -0.001 A 
ATOM      5  C   UNL     1       3.430  -5.354  -0.589  0.00  0.00    +0.010 A 
ATOM      6  C   UNL     1       2.607  -6.430  -0.696  0.00  0.00    +0.001 A 
ATOM      7  C   UNL     1       2.356  -7.314   0.358  0.00  0.00    +0.002 A 
ATOM      8  C   UNL     1       2.902  -7.208   1.595  0.00  0.00    +0.026 A 
ATOM      9  C   UNL     1       3.791  -6.118   1.829  0.00  0.00    +0.043 A 
ATOM     10  N   UNL     1       4.471  -5.796   2.912  0.00  0.00    -0.376 N 
ATOM     11  C   UNL     1       5.367  -2.918   0.561  0.00  0.00    +0.048 C 
ATOM     12  C   UNL     1       5.098  -1.829   1.616  0.00  0.00    +0.086 C 
ATOM     13  N   UNL     1       5.640  -2.240   2.916  0.00  0.00    -0.307 NA
ATOM     14  H   UNL     1       5.630  -1.473   3.571  0.00  0.00    +0.123 HD
ATOM     15  H   UNL     1       4.442  -6.244   3.772  0.00  0.00    +0.160 HD
ENDROOT
BRANCH   1  19
ATOM     16  N   UNL     1       1.459  -2.949   4.745  0.00  0.00    -0.288 N 
ATOM     17  C   UNL     1       2.790  -3.157   4.737  0.00  0.00    +0.263 A 
ATOM     18  O   UNL     1       3.394  -3.314   5.784  0.00  0.00    -0.267 OA
ATOM     19  C   UNL     1       3.479  -3.192   3.511  0.00  0.00    +0.100 A 
ATOM     20  C   UNL     1       2.780  -3.013   2.354  0.00  0.00    +0.261 A 
ATOM     21  N   UNL     1       1.426  -2.804   2.408  0.00  0.00    -0.302 N 
ATOM     22  C   UNL     1       0.787  -2.780   3.592  0.00  0.00    +0.163 A 
ATOM     23  S   UNL     1      -0.905  -2.525   3.631  0.00  0.00    -0.013 S 
ATOM     24  O   UNL     1       3.417  -3.041   1.164  0.00  0.00    -0.267 OA
ATOM     25  H   UNL     1       0.925  -2.676   1.587  0.00  0.00    +0.171 HD
BRANCH  16  26
ATOM     26  C   UNL     1       0.737  -2.912   6.020  0.00  0.00    +0.127 C 
BRANCH  26  27
ATOM     27  C   UNL     1       0.269  -4.322   6.382  0.00  0.00    +0.021 C 
BRANCH  27  29
ATOM     28  C   UNL     1      -0.954  -5.695   8.075  0.00  0.00    +0.004 C 
ATOM     29  C   UNL     1      -0.485  -4.284   7.712  0.00  0.00    -0.002 C 
ENDBRANCH  27  29
ENDBRANCH  26  27
ENDBRANCH  16  26
ENDBRANCH   1  19
TORSDOF 4
