REMARK  Name = ZINC51002538
REMARK  4 active torsions:
REMARK  status: ('A' for Active; 'I' for Inactive)
REMARK    1  A    between atoms: C_2  and  C_3
REMARK    2  A    between atoms: C_3  and  N_4
REMARK    3  A    between atoms: C_6  and  C_14
REMARK    4  A    between atoms: C_8  and  C_9
REMARK                            x       y       z     vdW  Elec       q    Type
REMARK                         _______ _______ _______ _____ _____    ______ ____
ROOT
ATOM      1  N   UNL     1      -0.704   1.940   1.215  0.00  0.00    -0.267 N 
ATOM      2  C   UNL     1      -2.058   2.179   1.311  0.00  0.00    +0.101 C 
ATOM      3  C   UNL     1      -2.262   2.645   2.740  0.00  0.00    +0.172 C 
ATOM      4  N   UNL     1      -0.909   2.611   3.318  0.00  0.00    -0.363 N 
ATOM      5  C   UNL     1      -0.095   2.203   2.410  0.00  0.00    +0.080 C 
ATOM      6  N   UNL     1      -2.953   2.038   0.390  0.00  0.00    -0.388 N 
ATOM      7  H   UNL     1      -2.696   1.730  -0.493  0.00  0.00    +0.157 HD
ATOM      8  H   UNL     1      -3.882   2.240   0.582  0.00  0.00    +0.157 HD
ATOM      9  H   UNL     1      -0.673   2.851   4.228  0.00  0.00    +0.162 HD
ENDROOT
BRANCH   3  10
ATOM     10  C   UNL     1      -2.813   4.047   2.766  0.00  0.00    -0.018 A 
ATOM     11  C   UNL     1      -1.968   5.125   2.580  0.00  0.00    +0.007 A 
ATOM     12  C   UNL     1      -2.473   6.412   2.603  0.00  0.00    +0.015 A 
ATOM     13  C   UNL     1      -3.825   6.620   2.812  0.00  0.00    +0.018 A 
ATOM     14  C   UNL     1      -4.670   5.541   2.998  0.00  0.00    +0.015 A 
ATOM     15  C   UNL     1      -4.165   4.255   2.970  0.00  0.00    +0.007 A 
ATOM     16 BR   UNL     1      -4.517   8.380   2.845  0.00  0.00    -0.050 Br
ENDBRANCH   3  10
BRANCH   5  17
ATOM     17  C   UNL     1       1.385   2.036   2.640  0.00  0.00    +0.051 C 
ATOM     18  C   UNL     1       1.691   0.590   3.081  0.00  0.00    +0.011 C 
ATOM     19  C   UNL     1       2.825   0.743   4.126  0.00  0.00    +0.001 C 
ATOM     20  C   UNL     1       2.419   2.031   4.884  0.00  0.00    +0.001 C 
ATOM     21  C   UNL     1       1.848   2.953   3.786  0.00  0.00    +0.011 C 
ENDBRANCH   5  17
BRANCH   1  22
ATOM     22  C   UNL     1      -0.018   1.468   0.010  0.00  0.00    +0.201 C 
BRANCH  22  24
ATOM     23  C   UNL     1       0.018  -1.178  -0.004  0.00  0.00    +0.005 C 
ATOM     24  C   UNL     1       0.002  -0.004   0.002  0.00  0.00    -0.086 C 
ENDBRANCH  22  24
ENDBRANCH   1  22
TORSDOF 4
