REMARK  Name = ZINC12701080
REMARK  12 active torsions:
REMARK  status: ('A' for Active; 'I' for Inactive)
REMARK    1  A    between atoms: C_1  and  C_2
REMARK    2  A    between atoms: C_4  and  C_31
REMARK    3  A    between atoms: C_9  and  C_13
REMARK    4  A    between atoms: C_15  and  C_29
REMARK    5  A    between atoms: C_16  and  N_28
REMARK    6  A    between atoms: C_18  and  C_27
REMARK    7  A    between atoms: C_19  and  C_20
REMARK    8  A    between atoms: C_20  and  O_22
REMARK    9  A    between atoms: O_22  and  C_23
REMARK   10  A    between atoms: C_23  and  C_24
REMARK   11  A    between atoms: C_24  and  O_25
REMARK   12  A    between atoms: O_25  and  C_26
REMARK                            x       y       z     vdW  Elec       q    Type
REMARK                         _______ _______ _______ _____ _____    ______ ____
ROOT
ATOM      1  C   UNL     1      -2.288   2.938   3.362  0.00  0.00    +0.107 C 
ATOM      2  C   UNL     1      -2.346   3.569   4.729  0.00  0.00    +0.098 C 
ATOM      3  C   UNL     1      -2.148   4.900   4.886  0.00  0.00    +0.198 C 
ATOM      4  O   UNL     1      -1.891   5.706   3.841  0.00  0.00    -0.445 OA
ATOM      5  C   UNL     1      -1.454   5.172   2.690  0.00  0.00    +0.115 C 
ATOM      6  C   UNL     1      -1.606   3.874   2.401  0.00  0.00    +0.087 C 
ATOM      7  C   UNL     1      -0.767   6.065   1.689  0.00  0.00    +0.087 C 
ENDROOT
BRANCH   1  16
ATOM      8  C   UNL     1      -9.124   5.092   1.442  0.00  0.00    +0.044 C 
ATOM      9  C   UNL     1      -8.084   4.020   1.639  0.00  0.00    -0.050 A 
ATOM     10  C   UNL     1      -8.405   2.692   1.365  0.00  0.00    +0.008 A 
ATOM     11  C   UNL     1      -7.490   1.699   1.533  0.00  0.00    -0.024 A 
ATOM     12  C   UNL     1      -6.197   2.012   1.988  0.00  0.00    +0.076 A 
ATOM     13  C   UNL     1      -5.873   3.363   2.266  0.00  0.00    +0.001 A 
ATOM     14  C   UNL     1      -6.843   4.361   2.082  0.00  0.00    +0.013 A 
ATOM     15  C   UNL     1      -4.579   3.674   2.727  0.00  0.00    +0.017 A 
ATOM     16  C   UNL     1      -3.686   2.652   2.877  0.00  0.00    +0.003 A 
ATOM     17  C   UNL     1      -4.069   1.343   2.585  0.00  0.00    +0.134 A 
ATOM     18  N   UNL     1      -5.277   1.057   2.161  0.00  0.00    -0.235 NA
ATOM     19 CL   UNL     1      -2.918   0.060   2.790  0.00  0.00    -0.062 Cl
ATOM     20  C   UNL     1      -7.860   0.270   1.230  0.00  0.00    +0.046 C 
ENDBRANCH   1  16
BRANCH   3  21
ATOM     21  N   UNL     1      -2.211   5.441   6.146  0.00  0.00    -0.328 N 
ATOM     22  H   UNL     1      -2.071   6.392   6.273  0.00  0.00    +0.145 HD
ATOM     23  H   UNL     1      -2.396   4.872   6.909  0.00  0.00    +0.145 HD
ENDBRANCH   3  21
BRANCH   6  24
ATOM     24  C   UNL     1      -1.122   3.374   1.167  0.00  0.00    +0.339 C 
ATOM     25  O   UNL     1      -0.115   2.692   1.141  0.00  0.00    -0.245 OA
BRANCH  24  26
ATOM     26  O   UNL     1      -1.778   3.653   0.022  0.00  0.00    -0.459 OA
BRANCH  26  27
ATOM     27  C   UNL     1      -1.234   3.116  -1.185  0.00  0.00    +0.260 C 
BRANCH  27  28
ATOM     28  C   UNL     1      -2.108   3.536  -2.369  0.00  0.00    +0.200 C 
BRANCH  28  29
ATOM     29  O   UNL     1      -2.047   4.955  -2.526  0.00  0.00    -0.380 OA
ATOM     30  C   UNL     1      -2.833   5.454  -3.610  0.00  0.00    +0.194 C 
ENDBRANCH  28  29
ENDBRANCH  27  28
ENDBRANCH  26  27
ENDBRANCH  24  26
ENDBRANCH   6  24
BRANCH   2  31
ATOM     31  C   UNL     1      -2.619   2.754   5.875  0.00  0.00    +0.101 C 
ATOM     32  N   UNL     1      -2.836   2.108   6.784  0.00  0.00    -0.191 NA
ENDBRANCH   2  31
TORSDOF 8
