REMARK  Name = ZINC13841724
REMARK  9 active torsions:
REMARK  status: ('A' for Active; 'I' for Inactive)
REMARK    1  A    between atoms: C_1  and  C_2
REMARK    2  A    between atoms: C_2  and  O_3
REMARK    3  A    between atoms: O_3  and  C_4
REMARK    4  A    between atoms: C_6  and  C_19
REMARK    5  A    between atoms: C_9  and  O_10
REMARK    6  A    between atoms: O_10  and  C_11
REMARK    7  A    between atoms: C_11  and  C_12
REMARK    8  A    between atoms: N_20  and  N_21
REMARK    9  A    between atoms: C_22  and  C_23
REMARK                            x       y       z     vdW  Elec       q    Type
REMARK                         _______ _______ _______ _____ _____    ______ ____
ROOT
ATOM      1  C   UNL     1      -1.332   3.619   2.344  0.00  0.00    +0.163 A 
ATOM      2  C   UNL     1      -1.892   2.852   3.347  0.00  0.00    +0.059 A 
ATOM      3  C   UNL     1      -2.519   3.475   4.432  0.00  0.00    -0.002 A 
ATOM      4  C   UNL     1      -2.575   4.872   4.495  0.00  0.00    +0.013 A 
ATOM      5  C   UNL     1      -2.013   5.629   3.489  0.00  0.00    +0.050 A 
ATOM      6  C   UNL     1      -1.387   5.010   2.417  0.00  0.00    +0.162 A 
ENDROOT
BRANCH   3   7
ATOM      7  C   UNL     1      -3.117   2.665   5.503  0.00  0.00    +0.140 C 
ATOM      8  N   UNL     1      -3.703   3.249   6.515  0.00  0.00    -0.180 NA
BRANCH   8   9
ATOM      9  N   UNL     1      -4.228   2.539   7.455  0.00  0.00    -0.263 N 
ATOM     10  C   UNL     1      -4.816   3.126   8.473  0.00  0.00    +0.143 C 
ATOM     11  N   UNL     1      -4.873   4.503   8.537  0.00  0.00    -0.342 N 
ATOM     12  H   UNL     1      -5.365   4.995   9.389  0.00  0.00    +0.144 HD
ATOM     13  H   UNL     1      -4.425   5.110   7.736  0.00  0.00    +0.144 HD
ATOM     14  H   UNL     1      -4.183   1.441   7.404  0.00  0.00    +0.190 HD
BRANCH  10  15
ATOM     15  C   UNL     1      -5.417   2.313   9.549  0.00  0.00    +0.187 A 
ATOM     16  C   UNL     1      -5.567   0.840   9.625  0.00  0.00    +0.191 A 
ATOM     17  N   UNL     1      -6.158   0.673  10.785  0.00  0.00    -0.033 NA
ATOM     18  O   UNL     1      -6.343   1.750  11.303  0.00  0.00    -0.240 OA
ATOM     19  N   UNL     1      -5.960   2.713  10.681  0.00  0.00    -0.044 NA
ATOM     20  N   UNL     1      -5.177  -0.122   8.703  0.00  0.00    -0.339 N 
ATOM     21  H   UNL     1      -5.361  -1.187   8.908  0.00  0.00    +0.144 HD
ATOM     22  H   UNL     1      -4.685   0.181   7.767  0.00  0.00    +0.144 HD
ENDBRANCH  10  15
ENDBRANCH   8   9
ENDBRANCH   3   7
BRANCH   1  23
ATOM     23  O   UNL     1      -0.721   3.016   1.289  0.00  0.00    -0.489 OA
BRANCH  23  25
ATOM     24  C   UNL     1       0.026   1.096   0.027  0.00  0.00    +0.048 C 
ATOM     25  C   UNL     1      -0.697   1.588   1.282  0.00  0.00    +0.226 C 
ENDBRANCH  23  25
ENDBRANCH   1  23
BRANCH   6  26
ATOM     26  O   UNL     1      -0.829   5.761   1.431  0.00  0.00    -0.484 OA
BRANCH  26  27
ATOM     27  C   UNL     1      -0.921   7.181   1.568  0.00  0.00    +0.264 C 
BRANCH  27  28
ATOM     28  C   UNL     1      -0.253   7.843   0.391  0.00  0.00    -0.010 A 
ATOM     29  C   UNL     1       1.091   8.162   0.449  0.00  0.00    +0.010 A 
ATOM     30  C   UNL     1       1.706   8.765  -0.632  0.00  0.00    +0.039 A 
ATOM     31  C   UNL     1       0.973   9.059  -1.770  0.00  0.00    +0.123 A 
ATOM     32  C   UNL     1      -0.374   8.744  -1.825  0.00  0.00    +0.039 A 
ATOM     33  C   UNL     1      -0.986   8.137  -0.744  0.00  0.00    +0.010 A 
ATOM     34  F   UNL     1       1.572   9.653  -2.825  0.00  0.00    -0.205 F 
ENDBRANCH  27  28
ENDBRANCH  26  27
ENDBRANCH   6  26
TORSDOF 8
