REMARK  Name = ZINC36313449
REMARK  7 active torsions:
REMARK  status: ('A' for Active; 'I' for Inactive)
REMARK    1  A    between atoms: C_1  and  O_2
REMARK    2  A    between atoms: O_2  and  C_3
REMARK    3  A    between atoms: C_3  and  C_4
REMARK    4  A    between atoms: C_6  and  C_12
REMARK    5  A    between atoms: C_9  and  O_10
REMARK    6  A    between atoms: O_10  and  C_11
REMARK    7  A    between atoms: C_17  and  C_18
REMARK                            x       y       z     vdW  Elec       q    Type
REMARK                         _______ _______ _______ _____ _____    ______ ____
ROOT
ATOM      1  C   UNL     1       1.570  -4.689  -0.026  0.00  0.00    +0.008 A 
ATOM      2  C   UNL     1       2.013  -5.453  -1.139  0.00  0.00    -0.017 A 
ATOM      3  C   UNL     1       3.265  -6.000  -1.052  0.00  0.00    +0.047 A 
ATOM      4  N   UNL     1       4.041  -5.799   0.016  0.00  0.00    -0.236 NA
ATOM      5  C   UNL     1       3.683  -5.093   1.065  0.00  0.00    +0.135 A 
ATOM      6  C   UNL     1       2.407  -4.507   1.085  0.00  0.00    +0.099 A 
ATOM      7  N   UNL     1       4.548  -4.927   2.132  0.00  0.00    -0.342 N 
ATOM      8  C   UNL     1       3.906  -6.887  -2.093  0.00  0.00    +0.056 C 
ATOM      9  C   UNL     1       4.371  -6.101  -3.302  0.00  0.00    +0.006 C 
ATOM     10  C   UNL     1       3.537  -4.857  -3.573  0.00  0.00    +0.000 C 
ATOM     11  C   UNL     1       2.336  -5.357  -4.346  0.00  0.00    +0.000 C 
ATOM     12  C   UNL     1       1.426  -6.246  -3.504  0.00  0.00    +0.005 C 
ATOM     13  C   UNL     1       0.990  -5.519  -2.246  0.00  0.00    +0.037 C 
ATOM     14  H   UNL     1       5.428  -5.334   2.111  0.00  0.00    +0.144 HD
ATOM     15  H   UNL     1       4.274  -4.403   2.901  0.00  0.00    +0.144 HD
ENDROOT
BRANCH   1  18
ATOM     16  C   UNL     1      -1.156  -2.103   0.002  0.00  0.00    +0.020 A 
ATOM     17  C   UNL     1       0.097  -2.679  -0.007  0.00  0.00    +0.018 A 
ATOM     18  C   UNL     1       0.225  -4.068  -0.016  0.00  0.00    -0.016 A 
ATOM     19  C   UNL     1      -0.917  -4.870  -0.015  0.00  0.00    +0.012 A 
ATOM     20  C   UNL     1      -2.166  -4.289  -0.005  0.00  0.00    +0.046 A 
ATOM     21  C   UNL     1      -2.290  -2.905   0.008  0.00  0.00    +0.125 A 
BRANCH  21  22
ATOM     22  O   UNL     1      -3.523  -2.336   0.023  0.00  0.00    -0.495 OA
ATOM     23  C   UNL     1      -4.646  -3.219   0.029  0.00  0.00    +0.277 C 
ENDBRANCH  21  22
BRANCH  16  24
ATOM     24  C   UNL     1      -1.295  -0.603   0.011  0.00  0.00    +0.198 C 
BRANCH  24  26
ATOM     25  C   UNL     1      -0.017   1.425   0.010  0.00  0.00    +0.194 C 
ATOM     26  O   UNL     1       0.002  -0.004   0.002  0.00  0.00    -0.378 OA
ENDBRANCH  24  26
ENDBRANCH  16  24
ENDBRANCH   1  18
BRANCH   6  27
ATOM     27  C   UNL     1       1.968  -3.741   2.213  0.00  0.00    +0.103 C 
ATOM     28  N   UNL     1       1.620  -3.134   3.108  0.00  0.00    -0.191 NA
ENDBRANCH   6  27
TORSDOF 5
