REMARK  Name = ZINC61361007
REMARK  3 active torsions:
REMARK  status: ('A' for Active; 'I' for Inactive)
REMARK    1  A    between atoms: C_4  and  N_12
REMARK    2  A    between atoms: C_7  and  N_11
REMARK    3  A    between atoms: N_12  and  C_13
REMARK                            x       y       z     vdW  Elec       q    Type
REMARK                         _______ _______ _______ _____ _____    ______ ____
ROOT
ATOM      1  C   UNL     1      -0.017   1.388   0.010  0.00  0.00    +0.020 A 
ATOM      2  C   UNL     1       1.159   2.086   0.002  0.00  0.00    +0.013 A 
ATOM      3  C   UNL     1       2.362   1.359  -0.013  0.00  0.00    +0.023 A 
ATOM      4  C   UNL     1       3.611   2.013  -0.021  0.00  0.00    +0.037 A 
ATOM      5  C   UNL     1       4.770   1.267  -0.036  0.00  0.00    +0.025 A 
ATOM      6  C   UNL     1       4.721  -0.124  -0.043  0.00  0.00    +0.027 A 
ATOM      7  C   UNL     1       3.515  -0.789  -0.036  0.00  0.00    +0.051 A 
ATOM      8  C   UNL     1       2.309  -0.056  -0.020  0.00  0.00    +0.093 A 
ATOM      9  N   UNL     1       1.127  -0.678  -0.012  0.00  0.00    -0.253 NA
ATOM     10  C   UNL     1       0.002  -0.004   0.002  0.00  0.00    +0.111 A 
ENDROOT
BRANCH   7  11
ATOM     11  N   UNL     1       3.486  -2.188  -0.044  0.00  0.00    -0.356 N 
ATOM     12  H   UNL     1       4.315  -2.690  -0.055  0.00  0.00    +0.142 HD
ATOM     13  H   UNL     1       2.636  -2.655  -0.039  0.00  0.00    +0.142 HD
ENDBRANCH   7  11
BRANCH   4  14
ATOM     14  N   UNL     1       3.674   3.408  -0.014  0.00  0.00    -0.336 N 
ATOM     15  H   UNL     1       2.857   3.930  -0.004  0.00  0.00    +0.147 HD
BRANCH  14  16
ATOM     16  C   UNL     1       4.975   4.082  -0.023  0.00  0.00    +0.101 C 
ATOM     17  C   UNL     1       4.833   5.477   0.589  0.00  0.00    +0.027 C 
ATOM     18  C   UNL     1       3.969   6.360  -0.316  0.00  0.00    +0.007 C 
ATOM     19  C   UNL     1       4.761   6.682  -1.593  0.00  0.00    +0.043 C 
ATOM     20  C   UNL     1       5.349   5.410  -2.113  0.00  0.00    -0.005 A 
ATOM     21  C   UNL     1       5.470   4.220  -1.459  0.00  0.00    -0.017 A 
ATOM     22  C   UNL     1       6.058   3.172  -2.167  0.00  0.00    +0.013 A 
ATOM     23  C   UNL     1       6.476   3.365  -3.439  0.00  0.00    +0.046 A 
ATOM     24  S   UNL     1       6.049   5.087  -3.709  0.00  0.00    -0.101 S 
ENDBRANCH  14  16
ENDBRANCH   4  14
TORSDOF 3
