REMARK  Name = ZINC09639976
REMARK  3 active torsions:
REMARK  status: ('A' for Active; 'I' for Inactive)
REMARK    1  A    between atoms: C_6  and  C_7
REMARK    2  A    between atoms: C_13  and  C_16
REMARK    3  A    between atoms: N_18  and  N_19
REMARK                            x       y       z     vdW  Elec       q    Type
REMARK                         _______ _______ _______ _____ _____    ______ ____
ROOT
ATOM      1  C   UNL     1      -1.212  -0.827  -1.385  0.00  0.00    +0.234 C 
ATOM      2  O   UNL     1      -1.285  -1.982  -1.024  0.00  0.00    -0.274 OA
ATOM      3  N   UNL     1      -2.335  -0.133  -1.656  0.00  0.00    -0.223 N 
ATOM      4  H   UNL     1      -2.277   0.791  -1.945  0.00  0.00    +0.174 HD
ENDROOT
BRANCH   3   5
ATOM      5  N   UNL     1      -3.587  -0.747  -1.520  0.00  0.00    -0.137 N 
ATOM      6  C   UNL     1      -4.441  -0.511  -0.503  0.00  0.00    +0.263 C 
ATOM      7  O   UNL     1      -4.278   0.243   0.432  0.00  0.00    -0.271 OA
ATOM      8  C   UNL     1      -5.644  -1.385  -0.774  0.00  0.00    +0.114 C 
ATOM      9  C   UNL     1      -6.892  -0.528  -0.958  0.00  0.00    +0.035 C 
ATOM     10  C   UNL     1      -8.093  -1.429  -1.260  0.00  0.00    +0.003 C 
ATOM     11  C   UNL     1      -8.294  -2.412  -0.105  0.00  0.00    +0.000 C 
ATOM     12  C   UNL     1      -7.044  -3.280   0.051  0.00  0.00    +0.003 C 
ATOM     13  C   UNL     1      -5.839  -2.387   0.358  0.00  0.00    +0.035 C 
ATOM     14  N   UNL     1      -5.307  -2.078  -2.024  0.00  0.00    -0.284 N 
ATOM     15  C   UNL     1      -4.087  -1.637  -2.386  0.00  0.00    +0.326 C 
ATOM     16  O   UNL     1      -3.504  -2.007  -3.387  0.00  0.00    -0.251 OA
ATOM     17  H   UNL     1      -5.855  -2.724  -2.496  0.00  0.00    +0.151 HD
ENDBRANCH   3   5
BRANCH   1  24
ATOM     18  C   UNL     1       1.774   2.902  -0.933  0.00  0.00    +0.247 C 
ATOM     19  O   UNL     1       0.834   3.610  -1.239  0.00  0.00    -0.270 OA
ATOM     20  N   UNL     1       1.574   1.599  -0.655  0.00  0.00    -0.297 N 
ATOM     21  C   UNL     1       2.712   0.704  -0.405  0.00  0.00    +0.108 C 
ATOM     22  C   UNL     1       2.605  -0.504  -1.341  0.00  0.00    +0.020 C 
ATOM     23  C   UNL     1       1.236  -1.163  -1.161  0.00  0.00    +0.016 C 
ATOM     24  C   UNL     1       0.135  -0.166  -1.531  0.00  0.00    +0.094 C 
ATOM     25  C   UNL     1       0.214   1.045  -0.597  0.00  0.00    +0.120 C 
BRANCH  18  31
ATOM     26  C   UNL     1       4.035   3.025   0.104  0.00  0.00    +0.014 A 
ATOM     27  C   UNL     1       5.306   3.557   0.159  0.00  0.00    +0.021 A 
ATOM     28  C   UNL     1       5.688   4.540  -0.739  0.00  0.00    +0.041 A 
ATOM     29  C   UNL     1       4.798   4.992  -1.700  0.00  0.00    +0.021 A 
ATOM     30  C   UNL     1       3.526   4.464  -1.768  0.00  0.00    +0.014 A 
ATOM     31  C   UNL     1       3.136   3.472  -0.866  0.00  0.00    +0.037 A 
ATOM     32 CL   UNL     1       7.288   5.210  -0.660  0.00  0.00    -0.084 Cl
ENDBRANCH  18  31
ENDBRANCH   1  24
TORSDOF 3
