REMARK  Name = ZINC00942625
REMARK  8 active torsions:
REMARK  status: ('A' for Active; 'I' for Inactive)
REMARK    1  A    between atoms: C_4  and  C_7
REMARK    2  A    between atoms: C_7  and  C_9
REMARK    3  A    between atoms: C_7  and  N_20
REMARK    4  A    between atoms: C_18  and  O_19
REMARK    5  A    between atoms: C_21  and  C_23
REMARK    6  A    between atoms: C_23  and  O_24
REMARK    7  A    between atoms: O_24  and  C_25
REMARK    8  A    between atoms: C_30  and  N_31
REMARK                            x       y       z     vdW  Elec       q    Type
REMARK                         _______ _______ _______ _____ _____    ______ ____
ROOT
ATOM      1  C   UNL     1      -1.151   1.815   0.091  0.00  0.00    +0.138 C 
ENDROOT
BRANCH   1   2
ATOM      2  C   UNL     1       0.146   1.055  -0.012  0.00  0.00    +0.026 A 
ATOM      3  C   UNL     1       1.365   1.747  -0.098  0.00  0.00    -0.009 A 
ATOM      4  C   UNL     1       1.408   3.152  -0.087  0.00  0.00    +0.009 A 
ATOM      5  C   UNL     1       2.607   3.790  -0.173  0.00  0.00    +0.001 A 
ATOM      6  C   UNL     1       3.797   3.071  -0.273  0.00  0.00    +0.001 A 
ATOM      7  C   UNL     1       3.794   1.710  -0.286  0.00  0.00    +0.008 A 
ATOM      8  C   UNL     1       2.575   1.016  -0.200  0.00  0.00    -0.017 A 
ATOM      9  C   UNL     1       2.534  -0.389  -0.212  0.00  0.00    +0.012 A 
ATOM     10  C   UNL     1       1.338  -1.030  -0.127  0.00  0.00    +0.046 A 
ATOM     11  C   UNL     1       0.143  -0.311  -0.026  0.00  0.00    +0.123 A 
BRANCH  11  12
ATOM     12  O   UNL     1      -1.037  -0.979   0.058  0.00  0.00    -0.506 OA
ATOM     13  H   UNL     1      -1.398  -1.250  -0.798  0.00  0.00    +0.292 HD
ENDBRANCH  11  12
ENDBRANCH   1   2
BRANCH   1  17
ATOM     14  C   UNL     1      -2.654   1.537   4.080  0.00  0.00    +0.000 A 
ATOM     15  C   UNL     1      -1.980   2.674   3.672  0.00  0.00    +0.000 A 
ATOM     16  C   UNL     1      -1.494   2.763   2.382  0.00  0.00    +0.006 A 
ATOM     17  C   UNL     1      -1.681   1.717   1.498  0.00  0.00    -0.023 A 
ATOM     18  C   UNL     1      -2.360   0.583   1.904  0.00  0.00    +0.006 A 
ATOM     19  C   UNL     1      -2.842   0.491   3.196  0.00  0.00    +0.000 A 
ENDBRANCH   1  17
BRANCH   1  20
ATOM     20  N   UNL     1      -2.127   1.242  -0.840  0.00  0.00    -0.302 N 
ATOM     21  C   UNL     1      -3.100   2.018  -1.358  0.00  0.00    +0.251 C 
ATOM     22  O   UNL     1      -3.167   3.190  -1.054  0.00  0.00    -0.272 OA
ATOM     23  H   UNL     1      -2.074   0.305  -1.083  0.00  0.00    +0.150 HD
BRANCH  21  24
ATOM     24  C   UNL     1      -4.104   1.429  -2.315  0.00  0.00    +0.324 C 
BRANCH  24  25
ATOM     25  O   UNL     1      -5.026   2.442  -2.721  0.00  0.00    -0.480 OA
BRANCH  25  26
ATOM     26  C   UNL     1      -6.004   2.074  -3.591  0.00  0.00    +0.151 A 
ATOM     27  C   UNL     1      -6.071   0.765  -4.048  0.00  0.00    +0.048 A 
ATOM     28  C   UNL     1      -7.068   0.393  -4.928  0.00  0.00    +0.004 A 
ATOM     29  C   UNL     1      -7.993   1.325  -5.362  0.00  0.00    +0.002 A 
ATOM     30  C   UNL     1      -7.925   2.630  -4.912  0.00  0.00    +0.036 A 
ATOM     31  C   UNL     1      -6.933   3.007  -4.027  0.00  0.00    +0.168 A 
BRANCH  31  32
ATOM     32  N   UNL     1      -6.860   4.405  -3.547  0.00  0.00    +0.060 N 
ATOM     33  O   UNL     1      -7.676   5.224  -3.930  0.00  0.00    -0.126 OA
ATOM     34  O   UNL     1      -5.985   4.737  -2.768  0.00  0.00    -0.126 OA
ENDBRANCH  31  32
ENDBRANCH  25  26
ENDBRANCH  24  25
ENDBRANCH  21  24
ENDBRANCH   1  20
TORSDOF 8
