REMARK  Name = ZINC52094217
REMARK  3 active torsions:
REMARK  status: ('A' for Active; 'I' for Inactive)
REMARK    1  A    between atoms: C_5  and  C_6
REMARK    2  A    between atoms: C_6  and  C_8
REMARK    3  A    between atoms: C_6  and  N_21
REMARK                            x       y       z     vdW  Elec       q    Type
REMARK                         _______ _______ _______ _____ _____    ______ ____
ROOT
ATOM      1  C   UNL     1      -1.398  -1.472  -1.391  0.00  0.00    -0.010 A 
ATOM      2  C   UNL     1      -0.925  -2.715  -1.766  0.00  0.00    +0.034 A 
ATOM      3  C   UNL     1      -1.148  -3.178  -3.054  0.00  0.00    +0.067 A 
ATOM      4  C   UNL     1      -1.849  -2.387  -3.966  0.00  0.00    +0.068 A 
ATOM      5  C   UNL     1      -2.320  -1.141  -3.581  0.00  0.00    +0.043 A 
ATOM      6  C   UNL     1      -2.098  -0.690  -2.294  0.00  0.00    +0.025 A 
ATOM      7 BR   UNL     1      -2.747   1.006  -1.765  0.00  0.00    -0.050 Br
ATOM      8  N   UNL     1      -1.914  -3.107  -5.157  0.00  0.00    -0.306 N 
ATOM      9  H   UNL     1      -2.342  -2.812  -5.976  0.00  0.00    +0.170 HD
ATOM     10  C   UNL     1      -1.281  -4.282  -4.977  0.00  0.00    +0.325 A 
ATOM     11  O   UNL     1      -1.155  -5.146  -5.824  0.00  0.00    -0.247 OA
ATOM     12  N   UNL     1      -0.808  -4.354  -3.719  0.00  0.00    -0.306 N 
ATOM     13  H   UNL     1      -0.315  -5.099  -3.340  0.00  0.00    +0.170 HD
ENDROOT
BRANCH   1  14
ATOM     14  C   UNL     1      -1.156  -0.969   0.009  0.00  0.00    +0.120 C 
BRANCH  14  19
ATOM     15  C   UNL     1      -0.016   1.351   0.009  0.00  0.00    +0.014 A 
ATOM     16  C   UNL     1       1.183   2.038   0.002  0.00  0.00    +0.023 A 
ATOM     17  C   UNL     1       2.343   1.335  -0.013  0.00  0.00    +0.055 A 
ATOM     18  S   UNL     1       1.753  -0.350  -0.017  0.00  0.00    -0.084 S 
ATOM     19  C   UNL     1       0.002  -0.004   0.002  0.00  0.00    +0.012 A 
ATOM     20 BR   UNL     1       4.123   1.974  -0.027  0.00  0.00    -0.043 Br
ENDBRANCH  14  19
BRANCH  14  21
ATOM     21  N   UNL     1      -0.844  -2.102   0.890  0.00  0.00    -0.320 NA
ATOM     22  H   UNL     1      -1.629  -2.731   0.962  0.00  0.00    +0.119 HD
ATOM     23  H   UNL     1      -0.018  -2.589   0.574  0.00  0.00    +0.119 HD
ENDBRANCH  14  21
ENDBRANCH   1  14
TORSDOF 3
