REMARK  Name = ZINC66834245
REMARK  11 active torsions:
REMARK  status: ('A' for Active; 'I' for Inactive)
REMARK    1  A    between atoms: C_1  and  C_2
REMARK    2  A    between atoms: C_2  and  C_4
REMARK    3  A    between atoms: C_2  and  N_19
REMARK    4  A    between atoms: N_6  and  C_7
REMARK    5  A    between atoms: C_7  and  C_8
REMARK    6  A    between atoms: C_8  and  C_9
REMARK    7  A    between atoms: C_12  and  S_15
REMARK    8  A    between atoms: S_15  and  N_18
REMARK    9  A    between atoms: C_23  and  C_26
REMARK   10  A    between atoms: C_26  and  O_28
REMARK   11  A    between atoms: O_28  and  C_29
REMARK                            x       y       z     vdW  Elec       q    Type
REMARK                         _______ _______ _______ _____ _____    ______ ____
ROOT
ATOM      1  C   UNL     1       0.673  -0.401   1.292  0.00  0.00    +0.199 C 
ATOM      2  O   UNL     1       0.040  -0.974   2.153  0.00  0.00    -0.278 OA
ATOM      3  N   UNL     1       1.977  -0.120   1.487  0.00  0.00    -0.316 N 
ATOM      4  H   UNL     1       2.483   0.338   0.798  0.00  0.00    +0.149 HD
ENDROOT
BRANCH   1   6
ATOM      5  C   UNL     1      -0.557   1.414   0.134  0.00  0.00    -0.004 C 
ATOM      6  C   UNL     1       0.002  -0.004   0.002  0.00  0.00    +0.016 C 
BRANCH   6   7
ATOM      7  N   UNL     1      -1.094  -0.938  -0.287  0.00  0.00    +0.388 N 
ATOM      8  C   UNL     1      -0.559  -2.300  -0.395  0.00  0.00    -0.078 C 
ATOM      9  C   UNL     1      -1.707  -3.288  -0.616  0.00  0.00    -0.018 C 
ATOM     10  C   UNL     1      -2.445  -2.924  -1.907  0.00  0.00    +0.011 C 
ATOM     11  C   UNL     1      -2.934  -1.476  -1.813  0.00  0.00    +0.081 C 
ATOM     12  C   UNL     1      -1.741  -0.556  -1.548  0.00  0.00    -0.063 C 
ATOM     13  H   UNL     1      -1.771  -0.903   0.461  0.00  0.00    -0.081 HD
BRANCH  11  14
ATOM     14  C   UNL     1      -3.596  -1.083  -3.109  0.00  0.00    +0.308 C 
ATOM     15  O   UNL     1      -3.160  -0.159  -3.754  0.00  0.00    -0.251 OA
BRANCH  14  16
ATOM     16  O   UNL     1      -4.669  -1.760  -3.547  0.00  0.00    -0.468 OA
ATOM     17  C   UNL     1      -5.245  -1.333  -4.783  0.00  0.00    +0.280 C 
ENDBRANCH  14  16
ENDBRANCH  11  14
ENDBRANCH   6   7
ENDBRANCH   1   6
BRANCH   3  18
ATOM     18  C   UNL     1       2.629  -0.506   2.741  0.00  0.00    +0.109 C 
BRANCH  18  19
ATOM     19  C   UNL     1       4.096  -0.074   2.706  0.00  0.00    +0.054 C 
BRANCH  19  20
ATOM     20  C   UNL     1       4.768  -0.471   3.996  0.00  0.00    -0.046 A 
ATOM     21  C   UNL     1       4.771   0.400   5.070  0.00  0.00    +0.005 A 
ATOM     22  C   UNL     1       5.387   0.035   6.253  0.00  0.00    +0.029 A 
ATOM     23  C   UNL     1       5.998  -1.199   6.362  0.00  0.00    +0.105 A 
ATOM     24  C   UNL     1       5.994  -2.070   5.288  0.00  0.00    +0.029 A 
ATOM     25  C   UNL     1       5.375  -1.708   4.107  0.00  0.00    +0.005 A 
BRANCH  23  26
ATOM     26  S   UNL     1       6.784  -1.663   7.869  0.00  0.00    +0.056 S 
ATOM     27  O   UNL     1       7.754  -2.647   7.536  0.00  0.00    -0.153 OA
ATOM     28  O   UNL     1       7.122  -0.456   8.539  0.00  0.00    -0.153 OA
BRANCH  26  29
ATOM     29  N   UNL     1       5.645  -2.419   8.803  0.00  0.00    -0.204 NA
ATOM     30  H   UNL     1       5.912  -3.108   9.432  0.00  0.00    +0.144 HD
ATOM     31  H   UNL     1       4.710  -2.174   8.721  0.00  0.00    +0.144 HD
ENDBRANCH  26  29
ENDBRANCH  23  26
ENDBRANCH  19  20
ENDBRANCH  18  19
ENDBRANCH   3  18
TORSDOF 9
