REMARK  Name = ZINC04306408
REMARK  5 active torsions:
REMARK  status: ('A' for Active; 'I' for Inactive)
REMARK    1  A    between atoms: C_4  and  C_7
REMARK    2  A    between atoms: C_7  and  N_8
REMARK    3  A    between atoms: C_10  and  N_24
REMARK    4  A    between atoms: C_11  and  N_23
REMARK    5  A    between atoms: N_15  and  C_16
REMARK                            x       y       z     vdW  Elec       q    Type
REMARK                         _______ _______ _______ _____ _____    ______ ____
ROOT
ATOM      1  N   UNL     1       3.902  -1.496   1.352  0.00  0.00    -0.323 N 
ATOM      2  C   UNL     1       5.190  -1.952   1.584  0.00  0.00    +0.157 A 
ATOM      3  C   UNL     1       5.680  -2.051   2.883  0.00  0.00    +0.205 A 
ATOM      4  C   UNL     1       6.979  -2.514   3.067  0.00  0.00    +0.154 A 
ATOM      5  N   UNL     1       7.707  -2.845   2.003  0.00  0.00    -0.197 NA
ATOM      6  C   UNL     1       7.207  -2.738   0.781  0.00  0.00    +0.223 A 
ATOM      7  N   UNL     1       5.973  -2.306   0.568  0.00  0.00    -0.197 NA
ATOM      8  N   UNL     1       7.994  -3.092  -0.303  0.00  0.00    -0.281 N 
ATOM      9  H   UNL     1       3.337  -1.240   2.098  0.00  0.00    +0.148 HD
ATOM     10  H   UNL     1       7.675  -2.936  -1.205  0.00  0.00    +0.155 HD
ENDROOT
BRANCH   8  11
ATOM     11  C   UNL     1       9.250  -3.673  -0.095  0.00  0.00    +0.069 A 
ATOM     12  C   UNL     1       9.470  -4.478   1.015  0.00  0.00    +0.026 A 
ATOM     13  C   UNL     1      10.710  -5.051   1.218  0.00  0.00    +0.002 A 
ATOM     14  C   UNL     1      11.734  -4.824   0.317  0.00  0.00    +0.003 A 
ATOM     15  C   UNL     1      11.521  -4.023  -0.791  0.00  0.00    +0.040 A 
ATOM     16  C   UNL     1      10.280  -3.451  -1.003  0.00  0.00    +0.144 A 
ATOM     17  F   UNL     1      10.070  -2.674  -2.088  0.00  0.00    -0.204 F 
ENDBRANCH   8  11
BRANCH   4  18
ATOM     18  N   UNL     1       7.510  -2.628   4.343  0.00  0.00    -0.341 N 
ATOM     19  H   UNL     1       6.974  -2.385   5.115  0.00  0.00    +0.144 HD
ATOM     20  H   UNL     1       8.416  -2.952   4.464  0.00  0.00    +0.144 HD
ENDBRANCH   4  18
BRANCH   3  21
ATOM     21  N   UNL     1       4.839  -1.672   4.041  0.00  0.00    +0.063 N 
ATOM     22  O   UNL     1       4.137  -2.499   4.574  0.00  0.00    -0.126 OA
ATOM     23  O   UNL     1       4.855  -0.535   4.453  0.00  0.00    -0.126 OA
ENDBRANCH   3  21
BRANCH   1  24
ATOM     24  C   UNL     1       3.394  -1.402  -0.019  0.00  0.00    +0.138 C 
BRANCH  24  28
ATOM     25  C   UNL     1      -0.617   0.068   0.045  0.00  0.00    +0.000 A 
ATOM     26  C   UNL     1       0.443   0.953  -0.039  0.00  0.00    +0.000 A 
ATOM     27  C   UNL     1       1.740   0.477  -0.060  0.00  0.00    +0.005 A 
ATOM     28  C   UNL     1       1.979  -0.883   0.004  0.00  0.00    -0.030 A 
ATOM     29  C   UNL     1       0.920  -1.767   0.089  0.00  0.00    +0.005 A 
ATOM     30  C   UNL     1      -0.378  -1.292   0.108  0.00  0.00    +0.000 A 
ENDBRANCH  24  28
ENDBRANCH   1  24
TORSDOF 5
