REMARK  Name = ZINC31168905
REMARK  16 active torsions:
REMARK  status: ('A' for Active; 'I' for Inactive)
REMARK    1  A    between atoms: C_1  and  C_2
REMARK    2  A    between atoms: C_3  and  C_4
REMARK    3  A    between atoms: C_3  and  C_5
REMARK    4  A    between atoms: C_5  and  O_7
REMARK    5  A    between atoms: O_7  and  C_8
REMARK    6  A    between atoms: C_10  and  O_40
REMARK    7  A    between atoms: C_12  and  O_39
REMARK    8  A    between atoms: C_14  and  C_38
REMARK    9  A    between atoms: C_17  and  O_19
REMARK   10  A    between atoms: O_19  and  C_20
REMARK   11  A    between atoms: C_20  and  C_37
REMARK   12  A    between atoms: C_23  and  O_36
REMARK   13  A    between atoms: C_25  and  C_35
REMARK   14  A    between atoms: C_29  and  C_32
REMARK   15  A    between atoms: C_32  and  C_33
REMARK   16  A    between atoms: C_32  and  C_34
REMARK                            x       y       z     vdW  Elec       q    Type
REMARK                         _______ _______ _______ _____ _____    ______ ____
ROOT
ATOM      1  C   UNL     1      -6.760   2.150   0.281  0.00  0.00    +0.263 C 
ATOM      2  C   UNL     1      -7.125   0.668   0.420  0.00  0.00    +0.191 C 
ATOM      3  C   UNL     1      -7.025  -0.002  -0.953  0.00  0.00    +0.175 C 
ATOM      4  C   UNL     1      -5.612   0.198  -1.508  0.00  0.00    +0.149 C 
ATOM      5  O   UNL     1      -5.324   1.595  -1.583  0.00  0.00    -0.342 OA
ATOM      6  C   UNL     1      -5.357   2.266  -0.321  0.00  0.00    +0.295 C 
ATOM      7  C   UNL     1      -5.521  -0.418  -2.906  0.00  0.00    +0.041 C 
ENDROOT
BRANCH   3   8
ATOM      8  O   UNL     1      -7.975   0.587  -1.843  0.00  0.00    -0.387 OA
ATOM      9  H   UNL     1      -8.050   0.232  -2.881  0.00  0.00    +0.210 HD
ENDBRANCH   3   8
BRANCH   2  10
ATOM     10  O   UNL     1      -6.221   0.036   1.329  0.00  0.00    -0.385 OA
ATOM     11  H   UNL     1      -6.329  -1.035   1.555  0.00  0.00    +0.210 HD
ENDBRANCH   2  10
BRANCH   1  12
ATOM     12  O   UNL     1      -6.780   2.779   1.589  0.00  0.00    -0.450 OA
BRANCH  12  13
ATOM     13  C   UNL     1      -7.947   3.323   1.989  0.00  0.00    +0.335 C 
ATOM     14  O   UNL     1      -8.921   3.272   1.263  0.00  0.00    -0.245 OA
BRANCH  13  17
ATOM     15  C   UNL     1     -10.401   4.451   2.796  0.00  0.00    +0.036 C 
ATOM     16  C   UNL     1      -9.194   4.514   3.695  0.00  0.00    -0.020 C 
ATOM     17  C   UNL     1      -8.041   3.978   3.301  0.00  0.00    +0.029 C 
ATOM     18  C   UNL     1      -6.834   4.041   4.200  0.00  0.00    +0.051 C 
ENDBRANCH  13  17
ENDBRANCH  12  13
ENDBRANCH   1  12
BRANCH   6  19
ATOM     19  O   UNL     1      -4.408   1.666   0.562  0.00  0.00    -0.341 OA
BRANCH  19  20
ATOM     20  C   UNL     1      -3.026   1.919   0.203  0.00  0.00    +0.074 C 
ATOM     21  C   UNL     1      -2.830   3.428   0.223  0.00  0.00    +0.037 C 
ATOM     22  C   UNL     1      -1.362   3.826   0.160  0.00  0.00    +0.035 C 
ATOM     23  C   UNL     1      -0.592   3.189   1.316  0.00  0.00    +0.121 C 
ATOM     24  C   UNL     1      -0.711   1.671   1.249  0.00  0.00    +0.003 C 
ATOM     25  C   UNL     1      -2.155   1.210   1.244  0.00  0.00    +0.033 C 
ATOM     26  C   UNL     1      -2.839   1.462   2.595  0.00  0.00    +0.037 C 
ATOM     27  C   UNL     1      -1.954   1.197   3.765  0.00  0.00    -0.070 C 
ATOM     28  C   UNL     1      -0.677   1.018   3.682  0.00  0.00    -0.027 C 
ATOM     29  C   UNL     1       0.079   1.033   2.397  0.00  0.00    +0.036 C 
ATOM     30  C   UNL     1       0.012   1.192  -0.031  0.00  0.00    +0.014 C 
ATOM     31  C   UNL     1      -2.833   1.359  -1.204  0.00  0.00    +0.042 C 
BRANCH  27  32
ATOM     32  C   UNL     1      -2.583   1.143   5.135  0.00  0.00    +0.008 C 
ATOM     33  C   UNL     1      -3.262   2.480   5.437  0.00  0.00    +0.012 C 
ATOM     34  C   UNL     1      -3.624   0.022   5.174  0.00  0.00    +0.012 C 
ENDBRANCH  27  32
BRANCH  23  35
ATOM     35  O   UNL     1      -1.088   3.681   2.560  0.00  0.00    -0.391 OA
ATOM     36  H   UNL     1      -0.649   3.329   3.505  0.00  0.00    +0.210 HD
ENDBRANCH  23  35
ENDBRANCH  19  20
ENDBRANCH   6  19
TORSDOF 9
