REMARK  Name = ZINC38669985
REMARK  8 active torsions:
REMARK  status: ('A' for Active; 'I' for Inactive)
REMARK    1  A    between atoms: C_1  and  N_2
REMARK    2  A    between atoms: C_9  and  C_11
REMARK    3  A    between atoms: C_11  and  C_13
REMARK    4  A    between atoms: C_11  and  N_26
REMARK    5  A    between atoms: C_13  and  N_14
REMARK    6  A    between atoms: C_15  and  C_17
REMARK    7  A    between atoms: N_26  and  C_27
REMARK    8  A    between atoms: N_26  and  C_28
REMARK                            x       y       z     vdW  Elec       q    Type
REMARK                         _______ _______ _______ _____ _____    ______ ____
ROOT
ATOM      1  C   UNL     1      -0.171  -3.834   4.099  0.00  0.00    -0.021 C 
ENDROOT
BRANCH   1  10
ATOM      2  C   UNL     1      -0.724   0.913  -0.641  0.00  0.00    +0.129 C 
ATOM      3  N   UNL     1      -0.827  -0.538  -0.466  0.00  0.00    -0.332 N 
ATOM      4  C   UNL     1      -1.141  -1.492  -1.532  0.00  0.00    +0.109 C 
ATOM      5  C   UNL     1      -1.132  -2.872  -0.854  0.00  0.00    +0.056 C 
ATOM      6  C   UNL     1      -0.803  -2.581   0.593  0.00  0.00    -0.025 A 
ATOM      7  C   UNL     1      -0.635  -1.213   0.741  0.00  0.00    +0.033 A 
ATOM      8  C   UNL     1      -0.317  -0.701   2.000  0.00  0.00    +0.023 A 
ATOM      9  C   UNL     1      -0.169  -1.548   3.078  0.00  0.00    +0.004 A 
ATOM     10  C   UNL     1      -0.334  -2.911   2.919  0.00  0.00    -0.059 A 
ATOM     11  C   UNL     1      -0.658  -3.425   1.677  0.00  0.00    +0.007 A 
ENDBRANCH   1  10
BRANCH   1  12
ATOM     12  N   UNL     1      -0.771  -3.218   5.290  0.00  0.00    +0.382 N 
ATOM     13  C   UNL     1      -2.190  -2.937   5.033  0.00  0.00    -0.096 C 
ATOM     14  C   UNL     1      -0.652  -4.137   6.430  0.00  0.00    -0.096 C 
ATOM     15  H   UNL     1      -0.290  -2.356   5.501  0.00  0.00    -0.082 HD
ENDBRANCH   1  12
BRANCH   1  16
ATOM     16  C   UNL     1       1.317  -4.084   4.349  0.00  0.00    +0.094 C 
BRANCH  16  17
ATOM     17  N   UNL     1       1.893  -4.793   3.204  0.00  0.00    -0.313 N 
ATOM     18  C   UNL     1       3.181  -5.190   3.235  0.00  0.00    +0.244 C 
ATOM     19  O   UNL     1       3.865  -4.959   4.213  0.00  0.00    -0.270 OA
ATOM     20  H   UNL     1       1.347  -4.977   2.423  0.00  0.00    +0.149 HD
BRANCH  18  21
ATOM     21  C   UNL     1       3.761  -5.904   2.080  0.00  0.00    +0.039 A 
ATOM     22  C   UNL     1       2.961  -6.161   0.950  0.00  0.00    +0.015 A 
ATOM     23  C   UNL     1       3.453  -6.811  -0.126  0.00  0.00    +0.031 A 
ATOM     24  C   UNL     1       4.804  -7.256  -0.144  0.00  0.00    +0.100 A 
ATOM     25  C   UNL     1       5.644  -6.996   1.020  0.00  0.00    +0.101 A 
ATOM     26  C   UNL     1       5.079  -6.305   2.122  0.00  0.00    +0.043 A 
ATOM     27  N   UNL     1       6.888  -7.461   0.884  0.00  0.00    -0.191 NA
ATOM     28  S   UNL     1       6.940  -8.142  -0.572  0.00  0.00    +0.116 S 
ATOM     29  N   UNL     1       5.444  -7.907  -1.116  0.00  0.00    -0.191 NA
ENDBRANCH  18  21
ENDBRANCH  16  17
ENDBRANCH   1  16
TORSDOF 5
