REMARK  Name = ZINC39665166
REMARK  8 active torsions:
REMARK  status: ('A' for Active; 'I' for Inactive)
REMARK    1  A    between atoms: C_1  and  C_2
REMARK    2  A    between atoms: C_2  and  C_4
REMARK    3  A    between atoms: C_2  and  O_29
REMARK    4  A    between atoms: C_4  and  N_5
REMARK    5  A    between atoms: C_6  and  C_8
REMARK    6  A    between atoms: C_19  and  C_21
REMARK    7  A    between atoms: C_21  and  C_22
REMARK    8  A    between atoms: O_29  and  C_30
REMARK                            x       y       z     vdW  Elec       q    Type
REMARK                         _______ _______ _______ _____ _____    ______ ____
ROOT
ATOM      1  C   UNL     1      -3.009  -4.377  -0.074  0.00  0.00    +0.100 C 
ATOM      2  C   UNL     1      -2.596  -4.995   1.281  0.00  0.00    +0.121 C 
ATOM      3  N   UNL     1      -3.869  -5.150   2.024  0.00  0.00    -0.300 N 
ATOM      4  C   UNL     1      -4.844  -5.593   0.998  0.00  0.00    +0.115 C 
ATOM      5  C   UNL     1      -4.483  -4.775  -0.258  0.00  0.00    -0.004 C 
ATOM      6  C   UNL     1      -4.647  -5.630  -1.510  0.00  0.00    -0.010 C 
ATOM      7  C   UNL     1      -6.129  -5.964  -1.704  0.00  0.00    -0.082 C 
ATOM      8  N   UNL     1      -6.900  -4.722  -1.830  0.00  0.00    +0.379 N 
ATOM      9  C   UNL     1      -6.812  -3.949  -0.586  0.00  0.00    -0.082 C 
ATOM     10  C   UNL     1      -5.359  -3.529  -0.345  0.00  0.00    -0.010 C 
ATOM     11  C   UNL     1      -4.091  -4.937   3.337  0.00  0.00    +0.220 C 
ATOM     12  O   UNL     1      -5.198  -5.109   3.800  0.00  0.00    -0.275 OA
ATOM     13  H   UNL     1      -6.530  -4.173  -2.592  0.00  0.00    -0.086 HD
ATOM     14  H   UNL     1      -7.866  -4.945  -2.018  0.00  0.00    -0.086 HD
ENDROOT
BRANCH   1  16
ATOM     15  N   UNL     1      -2.603  -2.191  -1.159  0.00  0.00    -0.312 N 
ATOM     16  C   UNL     1      -2.872  -2.877  -0.030  0.00  0.00    +0.218 C 
ATOM     17  O   UNL     1      -3.003  -2.287   1.022  0.00  0.00    -0.275 OA
ATOM     18  H   UNL     1      -2.497  -2.663  -1.999  0.00  0.00    +0.149 HD
BRANCH  15  19
ATOM     19  C   UNL     1      -2.469  -0.733  -1.115  0.00  0.00    +0.148 C 
BRANCH  19  21
ATOM     20  C   UNL     1      -1.904   1.299  -2.455  0.00  0.00    +0.053 C 
ATOM     21  C   UNL     1      -2.166  -0.207  -2.520  0.00  0.00    +0.187 C 
BRANCH  21  22
ATOM     22  O   UNL     1      -3.283  -0.460  -3.375  0.00  0.00    -0.488 OA
BRANCH  22  23
ATOM     23  C   UNL     1      -3.034  -0.537  -4.708  0.00  0.00    +0.121 A 
ATOM     24  C   UNL     1      -1.763  -0.269  -5.195  0.00  0.00    +0.045 A 
ATOM     25  C   UNL     1      -1.513  -0.349  -6.551  0.00  0.00    +0.004 A 
ATOM     26  C   UNL     1      -2.528  -0.696  -7.423  0.00  0.00    +0.000 A 
ATOM     27  C   UNL     1      -3.796  -0.964  -6.941  0.00  0.00    +0.004 A 
ATOM     28  C   UNL     1      -4.050  -0.891  -5.585  0.00  0.00    +0.045 A 
ENDBRANCH  22  23
ENDBRANCH  21  22
ENDBRANCH  19  21
ENDBRANCH  15  19
ENDBRANCH   1  16
BRANCH  11  29
ATOM     29  C   UNL     1      -2.962  -4.485   4.227  0.00  0.00    +0.131 C 
BRANCH  29  30
ATOM     30  C   UNL     1      -3.470  -4.321   5.637  0.00  0.00    -0.039 A 
ATOM     31  C   UNL     1      -3.983  -3.105   6.050  0.00  0.00    +0.005 A 
ATOM     32  C   UNL     1      -4.449  -2.954   7.342  0.00  0.00    +0.020 A 
ATOM     33  C   UNL     1      -4.402  -4.020   8.223  0.00  0.00    +0.041 A 
ATOM     34  C   UNL     1      -3.888  -5.236   7.809  0.00  0.00    +0.020 A 
ATOM     35  C   UNL     1      -3.428  -5.388   6.515  0.00  0.00    +0.005 A 
ATOM     36 CL   UNL     1      -4.986  -3.831   9.847  0.00  0.00    -0.084 Cl
ENDBRANCH  29  30
ENDBRANCH  11  29
TORSDOF 7
