REMARK  Name = ZINC43548405
REMARK  10 active torsions:
REMARK  status: ('A' for Active; 'I' for Inactive)
REMARK    1  A    between atoms: C_1  and  C_2
REMARK    2  A    between atoms: N_9  and  C_10
REMARK    3  A    between atoms: C_17  and  C_37
REMARK    4  A    between atoms: C_20  and  O_36
REMARK    5  A    between atoms: C_22  and  C_26
REMARK    6  A    between atoms: C_26  and  C_28
REMARK    7  A    between atoms: C_26  and  C_29
REMARK    8  A    between atoms: N_31  and  C_32
REMARK    9  A    between atoms: N_31  and  C_33
REMARK   10  A    between atoms: C_33  and  C_34
REMARK                            x       y       z     vdW  Elec       q    Type
REMARK                         _______ _______ _______ _____ _____    ______ ____
ROOT
ATOM      1  C   UNL     1      -1.562   1.905   0.536  0.00  0.00    +0.014 C 
ATOM      2  C   UNL     1      -1.174   0.449   0.268  0.00  0.00    +0.042 C 
ATOM      3  C   UNL     1      -2.415  -0.429   0.338  0.00  0.00    +0.057 A 
ATOM      4  C   UNL     1      -2.663  -1.179   1.441  0.00  0.00    +0.015 A 
ATOM      5  S   UNL     1      -4.184  -1.987   1.023  0.00  0.00    -0.057 S 
ATOM      6  C   UNL     1      -4.378  -1.311  -0.508  0.00  0.00    +0.163 A 
ATOM      7  N   UNL     1      -3.324  -0.534  -0.628  0.00  0.00    -0.229 NA
ATOM      8  N   UNL     1      -5.401  -1.523  -1.421  0.00  0.00    -0.293 N 
ATOM      9  C   UNL     1      -1.843  -1.280   2.680  0.00  0.00    +0.051 C 
ATOM     10  C   UNL     1      -0.834  -0.117   2.700  0.00  0.00    -0.022 C 
ATOM     11  C   UNL     1      -0.172  -0.014   1.319  0.00  0.00    +0.033 C 
ATOM     12  C   UNL     1       0.417  -1.373   0.942  0.00  0.00    +0.123 C 
ATOM     13  C   UNL     1       1.488  -1.756   1.967  0.00  0.00    +0.029 C 
ATOM     14  C   UNL     1       0.869  -1.817   3.364  0.00  0.00    +0.007 C 
ATOM     15  C   UNL     1       0.258  -0.459   3.725  0.00  0.00    +0.008 C 
ATOM     16  C   UNL     1      -1.531   1.193   3.073  0.00  0.00    +0.012 C 
ATOM     17  H   UNL     1      -5.346  -1.136  -2.309  0.00  0.00    +0.154 HD
ENDROOT
BRANCH   8  18
ATOM     18  C   UNL     1      -6.510  -2.293  -1.061  0.00  0.00    +0.051 A 
ATOM     19  C   UNL     1      -6.995  -2.268   0.245  0.00  0.00    +0.026 A 
ATOM     20  C   UNL     1      -8.097  -3.048   0.553  0.00  0.00    +0.021 A 
ATOM     21  C   UNL     1      -8.675  -3.821  -0.437  0.00  0.00    +0.111 A 
ATOM     22  N   UNL     1      -8.192  -3.823  -1.664  0.00  0.00    -0.261 NA
ATOM     23  C   UNL     1      -7.149  -3.091  -2.001  0.00  0.00    +0.134 A 
ENDBRANCH   8  18
BRANCH  13  24
ATOM     24  C   UNL     1       2.067  -3.127   1.609  0.00  0.00    +0.078 C 
ATOM     25  C   UNL     1       0.947  -4.168   1.603  0.00  0.00    +0.017 C 
BRANCH  24  26
ATOM     26  C   UNL     1       3.107  -3.514   2.629  0.00  0.00    +0.219 C 
ATOM     27  O   UNL     1       2.805  -4.227   3.562  0.00  0.00    -0.275 OA
ATOM     28  N   UNL     1       4.373  -3.068   2.503  0.00  0.00    -0.301 N 
ATOM     29  C   UNL     1       4.717  -2.132   1.430  0.00  0.00    +0.132 C 
BRANCH  28  30
ATOM     30  C   UNL     1       5.405  -3.519   3.440  0.00  0.00    +0.134 C 
BRANCH  30  31
ATOM     31  C   UNL     1       6.059  -4.767   2.905  0.00  0.00    -0.016 C 
ATOM     32  C   UNL     1       7.359  -4.811   2.752  0.00  0.00    +0.005 C 
ENDBRANCH  30  31
ENDBRANCH  28  30
ENDBRANCH  24  26
ENDBRANCH  13  24
BRANCH  12  33
ATOM     33  O   UNL     1       1.004  -1.295  -0.359  0.00  0.00    -0.391 OA
ATOM     34  H   UNL     1       1.325  -2.142  -0.697  0.00  0.00    +0.210 HD
ENDBRANCH  12  33
TORSDOF 6
