REMARK  Name = ZINC19636206
REMARK  6 active torsions:
REMARK  status: ('A' for Active; 'I' for Inactive)
REMARK    1  A    between atoms: C_3  and  C_6
REMARK    2  A    between atoms: C_6  and  N_7
REMARK    3  A    between atoms: C_8  and  C_10
REMARK    4  A    between atoms: C_14  and  N_15
REMARK    5  A    between atoms: C_16  and  C_18
REMARK    6  A    between atoms: C_24  and  C_26
REMARK                            x       y       z     vdW  Elec       q    Type
REMARK                         _______ _______ _______ _____ _____    ______ ____
ROOT
ATOM      1  C   UNL     1       0.325  -2.199  -0.569  0.00  0.00    +0.069 A 
ATOM      2  C   UNL     1       1.454  -2.934  -0.015  0.00  0.00    -0.023 A 
ATOM      3  C   UNL     1       1.513  -4.236  -0.367  0.00  0.00    -0.004 A 
ATOM      4  S   UNL     1       0.095  -4.494  -1.399  0.00  0.00    -0.077 S 
ATOM      5  C   UNL     1      -0.566  -2.893  -1.371  0.00  0.00    +0.084 A 
ATOM      6  C   UNL     1       2.549  -5.244   0.022  0.00  0.00    +0.043 C 
ATOM      7  C   UNL     1       2.768  -5.184   1.539  0.00  0.00    +0.005 C 
ATOM      8  C   UNL     1       3.864  -4.162   1.829  0.00  0.00    +0.001 C 
ATOM      9  C   UNL     1       3.809  -3.029   0.806  0.00  0.00    +0.005 C 
ATOM     10  C   UNL     1       2.481  -2.285   0.904  0.00  0.00    +0.037 C 
ENDROOT
BRANCH   1  12
ATOM     11  N   UNL     1      -0.592  -0.393   0.788  0.00  0.00    -0.304 N 
ATOM     12  C   UNL     1       0.135  -0.773  -0.281  0.00  0.00    +0.247 C 
ATOM     13  O   UNL     1       0.632   0.066  -1.009  0.00  0.00    -0.270 OA
ATOM     14  H   UNL     1      -1.041  -1.151   1.446  0.00  0.00    +0.149 HD
BRANCH  11  15
ATOM     15  C   UNL     1      -0.782   1.031   1.075  0.00  0.00    +0.179 C 
BRANCH  15  18
ATOM     16  C   UNL     1      -2.289   1.401   4.418  0.00  0.00    +0.041 A 
ATOM     17  C   UNL     1      -1.162   1.258   3.576  0.00  0.00    +0.046 A 
ATOM     18  C   UNL     1      -1.624   1.185   2.315  0.00  0.00    +0.122 A 
ATOM     19  O   UNL     1      -2.965   1.268   2.349  0.00  0.00    -0.466 OA
ATOM     20  C   UNL     1      -3.373   1.399   3.622  0.00  0.00    +0.195 A 
ENDBRANCH  15  18
ENDBRANCH  11  15
ENDBRANCH   1  12
BRANCH   5  21
ATOM     21  N   UNL     1      -1.708  -2.421  -2.000  0.00  0.00    -0.279 N 
ATOM     22  C   UNL     1      -2.458  -3.254  -2.749  0.00  0.00    +0.222 C 
ATOM     23  O   UNL     1      -2.134  -4.416  -2.872  0.00  0.00    -0.275 OA
ATOM     24  H   UNL     1      -2.002  -1.367  -1.888  0.00  0.00    +0.155 HD
BRANCH  22  25
ATOM     25  C   UNL     1      -3.700  -2.741  -3.432  0.00  0.00    +0.093 C 
ATOM     26  C   UNL     1      -4.800  -3.802  -3.364  0.00  0.00    +0.040 C 
ATOM     27  C   UNL     1      -4.456  -4.962  -4.252  0.00  0.00    -0.030 C 
ATOM     28  C   UNL     1      -3.569  -4.916  -5.194  0.00  0.00    -0.030 C 
ATOM     29  C   UNL     1      -2.752  -3.700  -5.521  0.00  0.00    +0.042 C 
ATOM     30  C   UNL     1      -3.394  -2.454  -4.908  0.00  0.00    +0.118 C 
BRANCH  30  31
ATOM     31  C   UNL     1      -2.441  -1.291  -5.010  0.00  0.00    +0.360 C 
ATOM     32  O   UNL     1      -2.044  -0.745  -4.008  0.00  0.00    -0.246 OA
ATOM     33  O   UNL     1      -2.033  -0.862  -6.215  0.00  0.00    -0.246 OA
ENDBRANCH  30  31
ENDBRANCH  22  25
ENDBRANCH   5  21
TORSDOF 6
