REMARK  Name = ZINC20679663
REMARK  7 active torsions:
REMARK  status: ('A' for Active; 'I' for Inactive)
REMARK    1  A    between atoms: C_1  and  C_2
REMARK    2  A    between atoms: C_5  and  N_9
REMARK    3  A    between atoms: C_6  and  C_8
REMARK    4  A    between atoms: N_9  and  S_10
REMARK    5  A    between atoms: S_10  and  C_13
REMARK    6  A    between atoms: C_26  and  C_29
REMARK    7  A    between atoms: C_32  and  O_35
REMARK                            x       y       z     vdW  Elec       q    Type
REMARK                         _______ _______ _______ _____ _____    ______ ____
ROOT
ATOM      1  C   UNL     1      -0.143  -2.875  -0.167  0.00  0.00    +0.109 A 
ATOM      2  C   UNL     1      -1.361  -2.221  -0.124  0.00  0.00    +0.030 A 
ATOM      3  C   UNL     1      -1.411  -0.844  -0.180  0.00  0.00    +0.025 A 
ATOM      4  C   UNL     1      -0.240  -0.102  -0.279  0.00  0.00    +0.031 A 
ATOM      5  C   UNL     1       0.990  -0.770  -0.310  0.00  0.00    -0.018 A 
ATOM      6  C   UNL     1       1.029  -2.146  -0.261  0.00  0.00    +0.034 A 
ATOM      7  C   UNL     1       2.214   0.058  -0.373  0.00  0.00    +0.049 C 
ATOM      8  C   UNL     1       3.478  -0.454  -0.962  0.00  0.00    -0.023 C 
ATOM      9  C   UNL     1       4.138   0.565  -1.501  0.00  0.00    -0.030 C 
ATOM     10  C   UNL     1       3.331   1.855  -1.338  0.00  0.00    +0.033 C 
ATOM     11  C   UNL     1       1.899   1.313  -1.241  0.00  0.00    +0.029 C 
ATOM     12  C   UNL     1       0.904   2.125  -0.431  0.00  0.00    +0.105 C 
ATOM     13  N   UNL     1      -0.317   1.294  -0.349  0.00  0.00    -0.336 N 
ATOM     14  H   UNL     1      -1.308   1.771  -0.343  0.00  0.00    +0.147 HD
ENDROOT
BRANCH  12  15
ATOM     15  C   UNL     1       0.603   3.426  -1.129  0.00  0.00    -0.027 A 
ATOM     16  C   UNL     1      -0.231   3.440  -2.233  0.00  0.00    +0.009 A 
ATOM     17  C   UNL     1      -0.513   4.632  -2.872  0.00  0.00    +0.046 A 
ATOM     18  C   UNL     1       0.050   5.814  -2.412  0.00  0.00    +0.117 A 
ATOM     19  C   UNL     1       0.890   5.796  -1.309  0.00  0.00    +0.046 A 
ATOM     20  C   UNL     1       1.165   4.603  -0.670  0.00  0.00    +0.009 A 
BRANCH  18  21
ATOM     21  O   UNL     1      -0.223   6.987  -3.042  0.00  0.00    -0.507 OA
ATOM     22  H   UNL     1       0.224   7.924  -2.677  0.00  0.00    +0.292 HD
ENDBRANCH  18  21
ENDBRANCH  12  15
BRANCH   1  23
ATOM     23  S   UNL     1      -0.084  -4.635  -0.104  0.00  0.00    +0.072 S 
ATOM     24  O   UNL     1      -1.344  -5.100  -0.568  0.00  0.00    -0.150 OA
ATOM     25  O   UNL     1       1.141  -5.022  -0.711  0.00  0.00    -0.150 OA
BRANCH  23  26
ATOM     26  N   UNL     1       0.022  -5.064   1.492  0.00  0.00    -0.216 N 
ATOM     27  H   UNL     1       0.891  -5.633   1.852  0.00  0.00    +0.174 HD
BRANCH  26  32
ATOM     28  C   UNL     1      -4.100  -3.602   5.101  0.00  0.00    +0.044 C 
ATOM     29  C   UNL     1      -3.005  -3.990   4.142  0.00  0.00    -0.050 A 
ATOM     30  C   UNL     1      -3.317  -4.326   2.837  0.00  0.00    +0.005 A 
ATOM     31  C   UNL     1      -2.316  -4.683   1.956  0.00  0.00    +0.025 A 
ATOM     32  C   UNL     1      -0.994  -4.703   2.381  0.00  0.00    +0.051 A 
ATOM     33  C   UNL     1      -0.684  -4.369   3.693  0.00  0.00    -0.028 A 
ATOM     34  C   UNL     1      -1.690  -4.009   4.568  0.00  0.00    +0.008 A 
ATOM     35  C   UNL     1       0.749  -4.396   4.160  0.00  0.00    +0.046 C 
ENDBRANCH  26  32
ENDBRANCH  23  26
ENDBRANCH   1  23
TORSDOF 5
