REMARK  Name = ZINC19891772
REMARK  6 active torsions:
REMARK  status: ('A' for Active; 'I' for Inactive)
REMARK    1  A    between atoms: N_14  and  O_15
REMARK    2  A    between atoms: O_15  and  C_16
REMARK    3  A    between atoms: C_16  and  C_17
REMARK    4  A    between atoms: C_17  and  C_19
REMARK    5  A    between atoms: C_17  and  O_32
REMARK    6  A    between atoms: C_19  and  N_20
REMARK                            x       y       z     vdW  Elec       q    Type
REMARK                         _______ _______ _______ _____ _____    ______ ____
ROOT
ATOM      1  C   UNL     1       0.284   9.755  -2.375  0.00  0.00    +0.168 C 
ENDROOT
BRANCH   1   2
ATOM      2  O   UNL     1      -1.117   9.521  -2.526  0.00  0.00    -0.387 OA
ATOM      3  H   UNL     1      -1.510   8.494  -2.494  0.00  0.00    +0.210 HD
ENDBRANCH   1   2
BRANCH   1   4
ATOM      4  C   UNL     1       0.562  11.258  -2.457  0.00  0.00    +0.295 C 
BRANCH   4   5
ATOM      5  O   UNL     1       0.238  11.731  -3.766  0.00  0.00    -0.391 OA
BRANCH   5  19
ATOM      6  C   UNL     1      -1.254  12.259  -8.813  0.00  0.00    +0.001 A 
ATOM      7  C   UNL     1      -1.125  11.309  -7.815  0.00  0.00    +0.001 A 
ATOM      8  C   UNL     1      -0.657  11.669  -6.565  0.00  0.00    +0.011 A 
ATOM      9  C   UNL     1      -0.314  12.993  -6.308  0.00  0.00    +0.012 A 
ATOM     10  C   UNL     1      -0.448  13.959  -7.318  0.00  0.00    -0.008 A 
ATOM     11  C   UNL     1      -0.924  13.579  -8.570  0.00  0.00    +0.009 A 
ATOM     12  C   UNL     1      -0.012  15.270  -6.783  0.00  0.00    -0.008 A 
ATOM     13  C   UNL     1       0.058  16.533  -7.364  0.00  0.00    +0.009 A 
ATOM     14  C   UNL     1       0.511  17.609  -6.625  0.00  0.00    +0.001 A 
ATOM     15  C   UNL     1       0.898  17.441  -5.307  0.00  0.00    +0.001 A 
ATOM     16  C   UNL     1       0.836  16.194  -4.715  0.00  0.00    +0.011 A 
ATOM     17  C   UNL     1       0.382  15.102  -5.446  0.00  0.00    +0.012 A 
ATOM     18  C   UNL     1       0.204  13.672  -5.097  0.00  0.00    +0.118 C 
ATOM     19  N   UNL     1       0.460  13.118  -3.948  0.00  0.00    -0.084 NA
ENDBRANCH   5  19
ENDBRANCH   4   5
ENDBRANCH   1   4
BRANCH   1  20
ATOM     20  C   UNL     1       0.746   9.225  -1.016  0.00  0.00    +0.119 C 
BRANCH  20  21
ATOM     21  N   UNL     1       0.539   7.772  -0.961  0.00  0.00    -0.297 NA
ATOM     22  C   UNL     1       1.560   7.064  -1.746  0.00  0.00    +0.103 C 
ATOM     23  C   UNL     1       1.262   5.562  -1.729  0.00  0.00    +0.122 C 
ATOM     24  N   UNL     1       1.245   5.085  -0.339  0.00  0.00    -0.314 N 
ATOM     25  C   UNL     1       0.224   5.793   0.445  0.00  0.00    +0.122 C 
ATOM     26  C   UNL     1       0.521   7.294   0.428  0.00  0.00    +0.103 C 
ATOM     27  C   UNL     1       1.049   3.710  -0.288  0.00  0.00    +0.099 A 
ATOM     28  C   UNL     1       1.002   3.066   0.945  0.00  0.00    +0.042 A 
ATOM     29  C   UNL     1       0.801   1.698   0.982  0.00  0.00    +0.005 A 
ATOM     30  C   UNL     1       0.663   1.016  -0.220  0.00  0.00    +0.018 A 
ATOM     31  C   UNL     1       0.720   1.718  -1.407  0.00  0.00    +0.084 A 
ATOM     32  N   UNL     1       0.908   3.024  -1.412  0.00  0.00    -0.350 N 
ATOM     33  H   UNL     1       0.946   3.543  -2.381  0.00  0.00    +0.166 HD
ENDBRANCH  20  21
ENDBRANCH   1  20
TORSDOF 6
