REMARK  Name = ZINC05490700
REMARK  9 active torsions:
REMARK  status: ('A' for Active; 'I' for Inactive)
REMARK    1  A    between atoms: C_1  and  C_2
REMARK    2  A    between atoms: C_5  and  C_8
REMARK    3  A    between atoms: C_11  and  C_22
REMARK    4  A    between atoms: C_17  and  N_21
REMARK    5  A    between atoms: C_18  and  C_19
REMARK    6  A    between atoms: C_25  and  C_28
REMARK    7  A    between atoms: C_28  and  C_29
REMARK    8  A    between atoms: C_29  and  C_30
REMARK    9  A    between atoms: C_29  and  C_31
REMARK                            x       y       z     vdW  Elec       q    Type
REMARK                         _______ _______ _______ _____ _____    ______ ____
ROOT
ATOM      1  C   UNL     1       0.069  -4.394  -0.078  0.00  0.00    +0.102 C 
ATOM      2  C   UNL     1      -1.078  -4.855   0.783  0.00  0.00    +0.054 A 
ATOM      3  C   UNL     1      -2.452  -4.810   0.526  0.00  0.00    +0.100 A 
ATOM      4  N   UNL     1      -3.077  -5.325   1.567  0.00  0.00    -0.171 NA
ATOM      5  N   UNL     1      -2.116  -5.711   2.514  0.00  0.00    -0.246 N 
ATOM      6  H   UNL     1      -2.296  -6.118   3.375  0.00  0.00    +0.192 HD
ATOM      7  C   UNL     1      -0.898  -5.415   2.014  0.00  0.00    +0.223 A 
ATOM      8  O   UNL     1       0.330  -5.605   2.560  0.00  0.00    -0.423 OA
ATOM      9  C   UNL     1       1.400  -5.479   1.749  0.00  0.00    +0.200 C 
ATOM     10  C   UNL     1       1.348  -4.931   0.514  0.00  0.00    +0.098 C 
ENDROOT
BRANCH   1  15
ATOM     11  C   UNL     1       0.234   1.381  -0.174  0.00  0.00    +0.044 C 
ATOM     12  C   UNL     1       0.191  -0.125  -0.149  0.00  0.00    -0.050 A 
ATOM     13  C   UNL     1       0.111  -0.834  -1.333  0.00  0.00    +0.003 A 
ATOM     14  C   UNL     1       0.072  -2.215  -1.310  0.00  0.00    +0.005 A 
ATOM     15  C   UNL     1       0.113  -2.888  -0.103  0.00  0.00    -0.035 A 
ATOM     16  C   UNL     1       0.194  -2.179   1.081  0.00  0.00    +0.005 A 
ATOM     17  C   UNL     1       0.238  -0.797   1.058  0.00  0.00    +0.003 A 
ENDBRANCH   1  15
BRANCH   3  18
ATOM     18  C   UNL     1      -3.093  -4.276  -0.702  0.00  0.00    +0.003 A 
ATOM     19  C   UNL     1      -2.553  -4.563  -1.954  0.00  0.00    +0.010 A 
ATOM     20  C   UNL     1      -3.153  -4.064  -3.092  0.00  0.00    +0.004 A 
ATOM     21  C   UNL     1      -4.288  -3.280  -2.992  0.00  0.00    -0.047 A 
ATOM     22  C   UNL     1      -4.828  -2.992  -1.751  0.00  0.00    +0.004 A 
ATOM     23  C   UNL     1      -4.240  -3.491  -0.607  0.00  0.00    +0.010 A 
BRANCH  21  24
ATOM     24  C   UNL     1      -4.939  -2.738  -4.238  0.00  0.00    +0.038 C 
BRANCH  24  25
ATOM     25  C   UNL     1      -5.983  -3.737  -4.744  0.00  0.00    -0.013 C 
ATOM     26  C   UNL     1      -7.111  -3.858  -3.718  0.00  0.00    +0.007 C 
ATOM     27  C   UNL     1      -6.555  -3.246  -6.076  0.00  0.00    +0.007 C 
ENDBRANCH  24  25
ENDBRANCH  21  24
ENDBRANCH   3  18
BRANCH   9  28
ATOM     28  N   UNL     1       2.612  -5.935   2.203  0.00  0.00    -0.328 N 
ATOM     29  H   UNL     1       2.681  -6.334   3.085  0.00  0.00    +0.145 HD
ATOM     30  H   UNL     1       3.400  -5.858   1.643  0.00  0.00    +0.145 HD
ENDBRANCH   9  28
BRANCH  10  31
ATOM     31  C   UNL     1       2.551  -4.856  -0.260  0.00  0.00    +0.101 C 
ATOM     32  N   UNL     1       3.505  -4.796  -0.874  0.00  0.00    -0.191 NA
ENDBRANCH  10  31
TORSDOF 6
