REMARK  Name = ZINC12498351
REMARK  8 active torsions:
REMARK  status: ('A' for Active; 'I' for Inactive)
REMARK    1  A    between atoms: C_1  and  C_2
REMARK    2  A    between atoms: C_7  and  C_8
REMARK    3  A    between atoms: N_16  and  C_19
REMARK    4  A    between atoms: C_28  and  C_29
REMARK    5  A    between atoms: C_28  and  C_36
REMARK    6  A    between atoms: C_29  and  C_30
REMARK    7  A    between atoms: C_36  and  O_38
REMARK    8  A    between atoms: O_38  and  C_39
REMARK                            x       y       z     vdW  Elec       q    Type
REMARK                         _______ _______ _______ _____ _____    ______ ____
ROOT
ATOM      1  C   UNL     1      -1.293  -0.775   0.010  0.00  0.00    -0.026 C 
ATOM      2  C   UNL     1      -1.784  -0.960   1.387  0.00  0.00    +0.077 C 
ATOM      3  C   UNL     1      -2.808  -2.144   1.212  0.00  0.00    +0.086 C 
ATOM      4  C   UNL     1      -3.070  -2.389   2.664  0.00  0.00    +0.229 C 
ATOM      5  O   UNL     1      -3.309  -3.453   3.195  0.00  0.00    -0.275 OA
ATOM      6  N   UNL     1      -2.986  -1.167   3.271  0.00  0.00    -0.210 N 
ATOM      7  C   UNL     1      -2.380  -0.223   2.480  0.00  0.00    +0.229 C 
ATOM      8  O   UNL     1      -2.355   0.977   2.651  0.00  0.00    -0.275 OA
ATOM      9  C   UNL     1      -1.935  -3.079   0.392  0.00  0.00    +0.048 C 
ATOM     10  N   UNL     1      -1.082  -2.188  -0.438  0.00  0.00    +0.396 N 
ATOM     11  H   UNL     1      -0.095  -2.445  -0.319  0.00  0.00    -0.083 HD
ATOM     12  H   UNL     1      -1.343  -2.280  -1.426  0.00  0.00    -0.083 HD
ENDROOT
BRANCH   6  13
ATOM     13  C   UNL     1      -3.467  -0.905   4.563  0.00  0.00    +0.048 A 
ATOM     14  C   UNL     1      -4.074  -1.916   5.296  0.00  0.00    +0.028 A 
ATOM     15  C   UNL     1      -4.544  -1.662   6.570  0.00  0.00    +0.051 A 
ATOM     16  C   UNL     1      -4.421  -0.395   7.116  0.00  0.00    +0.166 A 
ATOM     17  C   UNL     1      -3.818   0.623   6.381  0.00  0.00    +0.168 A 
ATOM     18  C   UNL     1      -3.342   0.366   5.106  0.00  0.00    +0.073 A 
ATOM     19  O   UNL     1      -3.819   1.763   7.132  0.00  0.00    -0.453 OA
ATOM     20  C   UNL     1      -4.793   1.539   8.169  0.00  0.00    +0.466 C 
ATOM     21  O   UNL     1      -4.801   0.108   8.328  0.00  0.00    -0.453 OA
ENDBRANCH   6  13
BRANCH   1  28
ATOM     22  C   UNL     1      -1.332   2.114   0.020  0.00  0.00    +0.044 C 
ATOM     23  C   UNL     1      -0.017   1.378   0.010  0.00  0.00    -0.049 A 
ATOM     24  C   UNL     1       1.171   2.085   0.002  0.00  0.00    +0.003 A 
ATOM     25  C   UNL     1       2.377   1.411  -0.014  0.00  0.00    +0.000 A 
ATOM     26  C   UNL     1       2.396   0.028  -0.022  0.00  0.00    +0.000 A 
ATOM     27  C   UNL     1       1.209  -0.679  -0.014  0.00  0.00    +0.002 A 
ATOM     28  C   UNL     1       0.002  -0.004   0.002  0.00  0.00    -0.058 A 
ENDBRANCH   1  28
BRANCH   9  29
ATOM     29  C   UNL     1      -1.081  -3.925   1.301  0.00  0.00    +0.297 C 
ATOM     30  O   UNL     1      -1.460  -4.182   2.419  0.00  0.00    -0.252 OA
BRANCH  29  31
ATOM     31  O   UNL     1       0.100  -4.393   0.868  0.00  0.00    -0.469 OA
ATOM     32  C   UNL     1       0.870  -5.201   1.798  0.00  0.00    +0.280 C 
ENDBRANCH  29  31
ENDBRANCH   9  29
BRANCH   9  33
ATOM     33  C   UNL     1      -2.804  -3.969  -0.499  0.00  0.00    +0.034 C 
BRANCH  33  34
ATOM     34  C   UNL     1      -1.919  -4.847  -1.347  0.00  0.00    -0.048 A 
ATOM     35  C   UNL     1      -1.503  -4.412  -2.591  0.00  0.00    +0.003 A 
ATOM     36  C   UNL     1      -0.688  -5.216  -3.367  0.00  0.00    +0.000 A 
ATOM     37  C   UNL     1      -0.297  -6.458  -2.902  0.00  0.00    +0.000 A 
ATOM     38  C   UNL     1      -0.718  -6.894  -1.659  0.00  0.00    +0.000 A 
ATOM     39  C   UNL     1      -1.529  -6.089  -0.882  0.00  0.00    +0.003 A 
ENDBRANCH  33  34
ENDBRANCH   9  33
TORSDOF 6
