REMARK  Name = ZINC11817896
REMARK  7 active torsions:
REMARK  status: ('A' for Active; 'I' for Inactive)
REMARK    1  A    between atoms: C_4  and  C_7
REMARK    2  A    between atoms: C_7  and  N_8
REMARK    3  A    between atoms: C_10  and  C_13
REMARK    4  A    between atoms: C_13  and  N_14
REMARK    5  A    between atoms: C_15  and  C_17
REMARK    6  A    between atoms: C_17  and  C_18
REMARK    7  A    between atoms: C_25  and  N_62
REMARK                            x       y       z     vdW  Elec       q    Type
REMARK                         _______ _______ _______ _____ _____    ______ ____
ROOT
ATOM      1  C   UNL     1       0.883   3.151   0.873  0.00  0.00    +0.089 C 
ENDROOT
BRANCH   1   2
ATOM      2  C   UNL     1       1.151   2.031  -0.133  0.00  0.00    +0.028 C 
ATOM      3  C   UNL     1       2.404   1.299   0.256  0.00  0.00    +0.200 C 
ATOM      4  O   UNL     1       2.581   1.031   1.426  0.00  0.00    -0.278 OA
ATOM      5  N   UNL     1       3.330   0.926  -0.633  0.00  0.00    -0.318 N 
ATOM      6  C   UNL     1       3.228   1.225  -2.058  0.00  0.00    +0.085 C 
ATOM      7  C   UNL     1       1.784   1.582  -2.417  0.00  0.00    -0.058 C 
ATOM      8  H   UNL     1       4.104   0.434  -0.317  0.00  0.00    +0.149 HD
ATOM      9  N   UNL     1       1.322   2.621  -1.474  0.00  0.00    +0.391 N 
ATOM     10  H   UNL     1       2.027   3.366  -1.425  0.00  0.00    -0.080 HD
BRANCH   9  11
ATOM     11  C   UNL     1       0.042   3.198  -1.941  0.00  0.00    -0.059 C 
ATOM     12  C   UNL     1      -0.964   2.099  -2.346  0.00  0.00    +0.020 C 
ATOM     13  C   UNL     1      -1.718   2.672  -3.530  0.00  0.00    -0.046 A 
ATOM     14  C   UNL     1      -2.919   2.285  -4.100  0.00  0.00    +0.004 A 
ATOM     15  C   UNL     1      -3.423   2.967  -5.190  0.00  0.00    +0.000 A 
ATOM     16  C   UNL     1      -2.727   4.040  -5.715  0.00  0.00    +0.000 A 
ATOM     17  C   UNL     1      -1.529   4.427  -5.148  0.00  0.00    +0.004 A 
ATOM     18  C   UNL     1      -1.021   3.744  -4.055  0.00  0.00    -0.046 A 
ATOM     19  C   UNL     1       0.250   3.966  -3.264  0.00  0.00    +0.020 C 
ENDBRANCH   9  11
ENDBRANCH   1   2
BRANCH   1  21
ATOM     20  N   UNL     1       2.064   5.148   1.733  0.00  0.00    -0.311 N 
ATOM     21  C   UNL     1       2.024   4.136   0.844  0.00  0.00    +0.212 C 
ATOM     22  O   UNL     1       2.906   4.017   0.020  0.00  0.00    -0.276 OA
ATOM     23  H   UNL     1       1.358   5.243   2.392  0.00  0.00    +0.149 HD
BRANCH  20  24
ATOM     24  C   UNL     1       3.173   6.105   1.704  0.00  0.00    +0.142 C 
BRANCH  24  27
ATOM     25  N   UNL     1       2.370   8.929   3.868  0.00  0.00    -0.267 N 
ATOM     26  C   UNL     1       2.320   8.305   2.672  0.00  0.00    +0.113 A 
ATOM     27  C   UNL     1       2.980   7.129   2.793  0.00  0.00    +0.007 A 
ATOM     28  C   UNL     1       3.457   7.036   4.104  0.00  0.00    +0.139 A 
ATOM     29  N   UNL     1       3.092   8.114   4.749  0.00  0.00    -0.179 NA
BRANCH  25  30
ATOM     30  C   UNL     1       1.779  10.231   4.185  0.00  0.00    +0.178 C 
BRANCH  30  34
ATOM     31  C   UNL     1      -0.798   9.838   7.569  0.00  0.00    +0.000 A 
ATOM     32  C   UNL     1       0.539  10.142   7.750  0.00  0.00    +0.000 A 
ATOM     33  C   UNL     1       1.373  10.268   6.655  0.00  0.00    +0.005 A 
ATOM     34  C   UNL     1       0.870  10.092   5.379  0.00  0.00    -0.026 A 
ATOM     35  C   UNL     1      -0.468   9.794   5.198  0.00  0.00    +0.005 A 
ATOM     36  C   UNL     1      -1.300   9.662   6.293  0.00  0.00    +0.000 A 
ENDBRANCH  30  34
ENDBRANCH  25  30
ENDBRANCH  24  27
ENDBRANCH  20  24
ENDBRANCH   1  21
TORSDOF 7
