REMARK  Name = ZINC08964589
REMARK  10 active torsions:
REMARK  status: ('A' for Active; 'I' for Inactive)
REMARK    1  A    between atoms: C_1  and  C_2
REMARK    2  A    between atoms: C_13  and  O_15
REMARK    3  A    between atoms: O_15  and  C_16
REMARK    4  A    between atoms: C_16  and  C_18
REMARK    5  A    between atoms: C_18  and  C_19
REMARK    6  A    between atoms: C_19  and  C_20
REMARK    7  A    between atoms: N_22  and  C_23
REMARK    8  A    between atoms: C_23  and  C_24
REMARK    9  A    between atoms: C_24  and  C_25
REMARK   10  A    between atoms: C_39  and  C_40
REMARK                            x       y       z     vdW  Elec       q    Type
REMARK                         _______ _______ _______ _____ _____    ______ ____
ROOT
ATOM      1  C   UNL     1      -0.019   1.526   0.010  0.00  0.00    +0.015 C 
ATOM      2  C   UNL     1       0.002  -0.004   0.002  0.00  0.00    +0.008 C 
ATOM      3  C   UNL     1      -1.416  -0.538   0.074  0.00  0.00    +0.011 C 
ATOM      4  C   UNL     1      -2.078   0.100   1.306  0.00  0.00    +0.005 C 
ATOM      5  C   UNL     1      -1.299  -0.197   2.584  0.00  0.00    +0.002 C 
ATOM      6  C   UNL     1       0.175   0.216   2.463  0.00  0.00    -0.003 C 
ATOM      7  C   UNL     1       0.751  -0.527   1.257  0.00  0.00    +0.002 C 
ATOM      8  C   UNL     1       2.207  -0.192   0.911  0.00  0.00    +0.008 C 
ATOM      9  C   UNL     1       2.304  -0.574  -0.591  0.00  0.00    +0.045 C 
ATOM     10  C   UNL     1       0.863  -0.503  -1.154  0.00  0.00    +0.183 C 
ATOM     11  C   UNL     1       0.916  -0.199   3.737  0.00  0.00    +0.008 C 
ATOM     12  C   UNL     1       0.362   0.596   4.922  0.00  0.00    +0.032 C 
ATOM     13  C   UNL     1      -1.140   0.390   4.991  0.00  0.00    -0.060 C 
ATOM     14  C   UNL     1      -1.668   0.067   6.171  0.00  0.00    +0.046 C 
ATOM     15  C   UNL     1      -3.116  -0.128   6.298  0.00  0.00    +0.156 C 
ATOM     16  O   UNL     1      -3.596  -0.774   7.206  0.00  0.00    -0.293 OA
ATOM     17  C   UNL     1      -3.981   0.521   5.235  0.00  0.00    +0.080 C 
ATOM     18  C   UNL     1      -3.398   0.137   3.876  0.00  0.00    +0.019 C 
ATOM     19  C   UNL     1      -1.935   0.569   3.750  0.00  0.00    -0.007 C 
ATOM     20  C   UNL     1      -1.919   2.059   3.401  0.00  0.00    +0.016 C 
ENDROOT
BRANCH  10  21
ATOM     21  O   UNL     1       0.429  -1.800  -1.570  0.00  0.00    -0.461 OA
BRANCH  21  22
ATOM     22  C   UNL     1       0.606  -2.115  -2.863  0.00  0.00    +0.308 C 
ATOM     23  O   UNL     1       1.111  -1.317  -3.616  0.00  0.00    -0.251 OA
BRANCH  22  24
ATOM     24  C   UNL     1       0.173  -3.466  -3.374  0.00  0.00    +0.130 C 
BRANCH  24  25
ATOM     25  C   UNL     1       0.485  -3.568  -4.869  0.00  0.00    +0.107 C 
BRANCH  25  26
ATOM     26  C   UNL     1       0.052  -4.918  -5.380  0.00  0.00    +0.214 C 
ATOM     27  O   UNL     1      -0.455  -5.719  -4.624  0.00  0.00    -0.276 OA
ATOM     28  N   UNL     1       0.229  -5.235  -6.678  0.00  0.00    -0.315 N 
ATOM     29  H   UNL     1       0.635  -4.595  -7.283  0.00  0.00    +0.149 HD
BRANCH  28  30
ATOM     30  C   UNL     1      -0.191  -6.548  -7.176  0.00  0.00    +0.110 C 
BRANCH  30  31
ATOM     31  C   UNL     1       0.120  -6.650  -8.670  0.00  0.00    +0.073 C 
BRANCH  31  32
ATOM     32  C   UNL     1      -0.312  -8.000  -9.182  0.00  0.00    +0.035 A 
ATOM     33  C   UNL     1       0.409  -9.136  -9.126  0.00  0.00    +0.105 A 
ATOM     34  N   UNL     1      -0.353 -10.118  -9.698  0.00  0.00    -0.352 N 
ATOM     35  H   UNL     1      -0.105 -11.050  -9.806  0.00  0.00    +0.166 HD
ATOM     36  C   UNL     1      -1.515  -9.548 -10.083  0.00  0.00    +0.171 A 
ATOM     37  N   UNL     1      -1.486  -8.283  -9.767  0.00  0.00    -0.350 N 
ATOM     38  H   UNL     1      -2.199  -7.646  -9.931  0.00  0.00    +0.166 HD
ENDBRANCH  31  32
ENDBRANCH  30  31
ENDBRANCH  28  30
ENDBRANCH  25  26
ENDBRANCH  24  25
ENDBRANCH  22  24
ENDBRANCH  21  22
ENDBRANCH  10  21
TORSDOF 8
