REMARK  Name = ZINC36530394
REMARK  13 active torsions:
REMARK  status: ('A' for Active; 'I' for Inactive)
REMARK    1  A    between atoms: C_1  and  C_2
REMARK    2  A    between atoms: C_5  and  S_8
REMARK    3  A    between atoms: S_8  and  C_11
REMARK    4  A    between atoms: C_11  and  N_12
REMARK    5  A    between atoms: C_13  and  C_15
REMARK    6  A    between atoms: C_15  and  C_17
REMARK    7  A    between atoms: C_15  and  N_26
REMARK    8  A    between atoms: C_18  and  O_25
REMARK    9  A    between atoms: C_20  and  O_24
REMARK   10  A    between atoms: C_22  and  O_23
REMARK   11  A    between atoms: N_26  and  C_27
REMARK   12  A    between atoms: C_28  and  C_30
REMARK   13  A    between atoms: C_31  and  C_32
REMARK                            x       y       z     vdW  Elec       q    Type
REMARK                         _______ _______ _______ _____ _____    ______ ____
ROOT
ATOM      1  C   UNL     1       3.640  -5.251   3.157  0.00  0.00    +0.200 C 
ENDROOT
BRANCH   1   2
ATOM      2  C   UNL     1       2.835  -4.208   3.887  0.00  0.00    +0.065 A 
ATOM      3  C   UNL     1       3.351  -3.603   5.024  0.00  0.00    +0.129 A 
ATOM      4  C   UNL     1       2.610  -2.643   5.696  0.00  0.00    +0.091 A 
ATOM      5  C   UNL     1       1.353  -2.287   5.231  0.00  0.00    +0.124 A 
ATOM      6  C   UNL     1       0.837  -2.891   4.095  0.00  0.00    +0.091 A 
ATOM      7  C   UNL     1       1.580  -3.849   3.420  0.00  0.00    +0.129 A 
BRANCH   7   8
ATOM      8  O   UNL     1       1.076  -4.437   2.304  0.00  0.00    -0.506 OA
ATOM      9  H   UNL     1       0.491  -5.186   2.484  0.00  0.00    +0.292 HD
ENDBRANCH   7   8
BRANCH   5  10
ATOM     10  O   UNL     1       0.626  -1.347   5.891  0.00  0.00    -0.507 OA
ATOM     11  H   UNL     1       0.779  -0.444   5.581  0.00  0.00    +0.292 HD
ENDBRANCH   5  10
BRANCH   3  12
ATOM     12  O   UNL     1       4.584  -3.952   5.478  0.00  0.00    -0.506 OA
ATOM     13  H   UNL     1       5.295  -3.374   5.169  0.00  0.00    +0.292 HD
ENDBRANCH   3  12
ENDBRANCH   1   2
BRANCH   1  15
ATOM     14  N   UNL     1       3.956  -4.311   0.891  0.00  0.00    -0.294 N 
ATOM     15  C   UNL     1       3.320  -5.194   1.686  0.00  0.00    +0.240 C 
ATOM     16  O   UNL     1       2.489  -5.943   1.217  0.00  0.00    -0.273 OA
ATOM     17  H   UNL     1       4.585  -3.679   1.274  0.00  0.00    +0.150 HD
BRANCH  14  18
ATOM     18  C   UNL     1       3.699  -4.306  -0.551  0.00  0.00    +0.278 C 
BRANCH  18  19
ATOM     19  S   UNL     1       2.456  -3.043  -0.939  0.00  0.00    +0.013 S 
ATOM     20  O   UNL     1       1.387  -3.105  -0.005  0.00  0.00    -0.168 OA
ATOM     21  O   UNL     1       2.197  -3.024  -2.336  0.00  0.00    -0.168 OA
BRANCH  19  26
ATOM     22  C   UNL     1       5.184   2.219   0.190  0.00  0.00    +0.044 C 
ATOM     23  C   UNL     1       4.503   0.904  -0.092  0.00  0.00    -0.050 A 
ATOM     24  C   UNL     1       4.663   0.293  -1.321  0.00  0.00    +0.005 A 
ATOM     25  C   UNL     1       4.039  -0.913  -1.580  0.00  0.00    +0.027 A 
ATOM     26  C   UNL     1       3.254  -1.507  -0.609  0.00  0.00    +0.090 A 
ATOM     27  C   UNL     1       3.094  -0.895   0.620  0.00  0.00    +0.027 A 
ATOM     28  C   UNL     1       3.722   0.308   0.881  0.00  0.00    +0.005 A 
ENDBRANCH  19  26
ENDBRANCH  18  19
ENDBRANCH  14  18
ENDBRANCH   1  15
BRANCH   1  29
ATOM     29  N   UNL     1       3.307  -6.579   3.679  0.00  0.00    -0.278 N 
ATOM     30  C   UNL     1       1.927  -7.067   3.613  0.00  0.00    +0.134 C 
ATOM     31  C   UNL     1       4.270  -7.352   4.219  0.00  0.00    +0.292 C 
ATOM     32  O   UNL     1       5.416  -6.947   4.274  0.00  0.00    -0.260 OA
BRANCH  31  33
ATOM     33  C   UNL     1       3.944  -8.650   4.729  0.00  0.00    -0.003 C 
ATOM     34  C   UNL     1       3.677  -9.714   5.147  0.00  0.00    -0.057 C 
BRANCH  34  35
ATOM     35  C   UNL     1       3.351 -11.012   5.657  0.00  0.00    +0.025 A 
ATOM     36  C   UNL     1       2.036 -11.483   5.590  0.00  0.00    +0.017 A 
ATOM     37  C   UNL     1       1.730 -12.734   6.083  0.00  0.00    +0.001 A 
ATOM     38  C   UNL     1       2.720 -13.523   6.642  0.00  0.00    +0.000 A 
ATOM     39  C   UNL     1       4.024 -13.063   6.712  0.00  0.00    +0.001 A 
ATOM     40  C   UNL     1       4.347 -11.817   6.218  0.00  0.00    +0.017 A 
ENDBRANCH  34  35
ENDBRANCH  31  33
ENDBRANCH   1  29
TORSDOF 11
