REMARK  Name = ZINC23260111
REMARK  13 active torsions:
REMARK  status: ('A' for Active; 'I' for Inactive)
REMARK    1  A    between atoms: C_1  and  C_2
REMARK    2  A    between atoms: C_2  and  C_3
REMARK    3  A    between atoms: C_3  and  C_4
REMARK    4  A    between atoms: C_4  and  N_5
REMARK    5  A    between atoms: N_5  and  C_6
REMARK    6  A    between atoms: C_7  and  N_19
REMARK    7  A    between atoms: N_8  and  C_15
REMARK    8  A    between atoms: C_15  and  C_16
REMARK    9  A    between atoms: C_16  and  C_17
REMARK   10  A    between atoms: C_16  and  C_18
REMARK   11  A    between atoms: C_20  and  C_22
REMARK   12  A    between atoms: C_22  and  N_23
REMARK   13  A    between atoms: C_29  and  C_31
REMARK                            x       y       z     vdW  Elec       q    Type
REMARK                         _______ _______ _______ _____ _____    ______ ____
ROOT
ATOM      1  N   UNL     1      -7.046  -1.303   1.895  0.00  0.00    -0.266 N 
ATOM      2  C   UNL     1      -5.742  -1.083   1.625  0.00  0.00    +0.203 C 
ATOM      3  O   UNL     1      -5.128  -1.859   0.923  0.00  0.00    -0.277 OA
ENDROOT
BRANCH   1   4
ATOM      4  C   UNL     1      -7.670  -2.485   1.441  0.00  0.00    +0.140 A 
ATOM      5  C   UNL     1      -7.960  -2.655   0.103  0.00  0.00    +0.127 A 
ATOM      6  N   UNL     1      -8.569  -3.818  -0.309  0.00  0.00    -0.280 N 
ATOM      7  C   UNL     1      -8.878  -4.778   0.582  0.00  0.00    +0.331 A 
ATOM      8  O   UNL     1      -9.416  -5.798   0.198  0.00  0.00    -0.246 OA
ATOM      9  N   UNL     1      -8.603  -4.628   1.890  0.00  0.00    -0.273 N 
ATOM     10  H   UNL     1      -8.868  -5.424   2.602  0.00  0.00    +0.173 HD
ATOM     11  C   UNL     1      -8.003  -3.511   2.345  0.00  0.00    +0.277 A 
ATOM     12  O   UNL     1      -7.753  -3.388   3.532  0.00  0.00    -0.266 OA
BRANCH   5  13
ATOM     13  N   UNL     1      -7.645  -1.675  -0.808  0.00  0.00    -0.343 N 
ATOM     14  H   UNL     1      -7.879  -1.819  -1.873  0.00  0.00    +0.144 HD
ATOM     15  H   UNL     1      -7.159  -0.748  -0.471  0.00  0.00    +0.144 HD
ENDBRANCH   5  13
BRANCH   6  16
ATOM     16  C   UNL     1      -8.882  -4.013  -1.727  0.00  0.00    +0.131 C 
BRANCH  16  17
ATOM     17  C   UNL     1      -7.698  -4.686  -2.423  0.00  0.00    +0.003 C 
ATOM     18  C   UNL     1      -7.504  -6.093  -1.854  0.00  0.00    +0.009 C 
ATOM     19  C   UNL     1      -7.973  -4.777  -3.925  0.00  0.00    +0.009 C 
ENDBRANCH  16  17
ENDBRANCH   6  16
ENDBRANCH   1   4
BRANCH   1  20
ATOM     20  C   UNL     1      -7.813  -0.316   2.658  0.00  0.00    +0.114 C 
BRANCH  20  21
ATOM     21  C   UNL     1      -8.560   0.607   1.693  0.00  0.00    +0.019 C 
BRANCH  21  23
ATOM     22  C   UNL     1     -10.108   2.561   1.526  0.00  0.00    +0.004 C 
ATOM     23  C   UNL     1      -9.361   1.638   2.491  0.00  0.00    -0.002 C 
ENDBRANCH  21  23
ENDBRANCH  20  21
ENDBRANCH   1  20
BRANCH   2  24
ATOM     24  C   UNL     1      -5.049   0.127   2.197  0.00  0.00    +0.019 C 
BRANCH  24  25
ATOM     25  N   UNL     1      -3.646   0.139   1.760  0.00  0.00    +0.387 N 
ATOM     26  C   UNL     1      -3.002   1.416   2.096  0.00  0.00    -0.059 C 
ATOM     27  C   UNL     1      -1.605   1.460   1.467  0.00  0.00    +0.089 C 
ATOM     28  N   UNL     1      -0.865   0.260   1.888  0.00  0.00    -0.301 N 
ATOM     29  C   UNL     1      -1.505  -1.052   1.703  0.00  0.00    +0.089 C 
ATOM     30  C   UNL     1      -2.908  -0.997   2.328  0.00  0.00    -0.059 C 
ATOM     31  C   UNL     1       0.367   0.359   2.423  0.00  0.00    +0.253 C 
ATOM     32  O   UNL     1       0.849   1.455   2.643  0.00  0.00    -0.269 OA
ATOM     33  H   UNL     1      -3.631   0.035   0.665  0.00  0.00    -0.081 HD
BRANCH  31  34
ATOM     34  C   UNL     1       1.128  -0.853   2.741  0.00  0.00    +0.074 A 
ATOM     35  C   UNL     1       2.216  -1.005   3.587  0.00  0.00    +0.021 A 
ATOM     36  C   UNL     1       2.748  -2.265   3.700  0.00  0.00    +0.008 A 
ATOM     37  C   UNL     1       2.195  -3.285   2.993  0.00  0.00    +0.046 A 
ATOM     38  S   UNL     1       0.900  -2.515   2.135  0.00  0.00    -0.092 S 
ENDBRANCH  31  34
ENDBRANCH  24  25
ENDBRANCH   2  24
TORSDOF 10
