REMARK  Name = ZINC43259086
REMARK  7 active torsions:
REMARK  status: ('A' for Active; 'I' for Inactive)
REMARK    1  A    between atoms: C_1  and  C_2
REMARK    2  A    between atoms: C_2  and  C_3
REMARK    3  A    between atoms: C_3  and  C_5
REMARK    4  A    between atoms: C_3  and  N_22
REMARK    5  A    between atoms: C_5  and  C_7
REMARK    6  A    between atoms: C_5  and  N_13
REMARK    7  A    between atoms: C_16  and  C_19
REMARK                            x       y       z     vdW  Elec       q    Type
REMARK                         _______ _______ _______ _____ _____    ______ ____
ROOT
ATOM      1  C   UNL     1       0.849  -2.021  -1.205  0.00  0.00    +0.079 C 
ENDROOT
BRANCH   1   2
ATOM      2  C   UNL     1       1.466  -2.554  -2.472  0.00  0.00    +0.006 A 
ATOM      3  C   UNL     1       0.867  -3.176  -3.517  0.00  0.00    +0.014 A 
ATOM      4  C   UNL     1       1.640  -3.585  -4.587  0.00  0.00    +0.023 A 
ATOM      5  C   UNL     1       2.976  -3.351  -4.560  0.00  0.00    +0.055 A 
ATOM      6  S   UNL     1       3.174  -2.523  -2.991  0.00  0.00    -0.085 S 
ATOM      7 BR   UNL     1       4.287  -3.783  -5.853  0.00  0.00    -0.043 Br
ENDBRANCH   1   2
BRANCH   1   8
ATOM      8  N   UNL     1       1.607  -2.514  -0.047  0.00  0.00    -0.296 NA
ATOM      9  C   UNL     1       2.961  -1.945  -0.023  0.00  0.00    +0.085 C 
ATOM     10  C   UNL     1       3.668  -2.363   1.268  0.00  0.00    +0.028 C 
ATOM     11  C   UNL     1       3.735  -3.891   1.336  0.00  0.00    +0.077 C 
ATOM     12  C   UNL     1       2.316  -4.460   1.261  0.00  0.00    +0.028 C 
ATOM     13  C   UNL     1       1.647  -3.982  -0.030  0.00  0.00    +0.085 C 
BRANCH  11  14
ATOM     14  C   UNL     1       4.377  -4.310   2.633  0.00  0.00    +0.214 C 
ATOM     15  O   UNL     1       4.746  -3.470   3.426  0.00  0.00    -0.276 OA
ATOM     16  N   UNL     1       4.542  -5.618   2.912  0.00  0.00    -0.329 N 
ATOM     17  H   UNL     1       4.247  -6.290   2.278  0.00  0.00    +0.145 HD
ATOM     18  H   UNL     1       4.956  -5.888   3.747  0.00  0.00    +0.145 HD
ENDBRANCH  11  14
ENDBRANCH   1   8
BRANCH   1  19
ATOM     19  C   UNL     1       0.885  -0.491  -1.225  0.00  0.00    -0.053 C 
BRANCH  19  20
ATOM     20  N   UNL     1       0.127   0.001  -2.383  0.00  0.00    +0.381 N 
ATOM     21  H   UNL     1      -0.830  -0.312  -2.317  0.00  0.00    -0.090 HD
ATOM     22  H   UNL     1       0.151   1.010  -2.396  0.00  0.00    -0.090 HD
ATOM     23  H   UNL     1       0.540  -0.356  -3.231  0.00  0.00    -0.090 HD
ENDBRANCH  19  20
BRANCH  19  25
ATOM     24  C   UNL     1       0.407   1.572   0.100  0.00  0.00    +0.002 C 
ATOM     25  C   UNL     1       0.259   0.050   0.062  0.00  0.00    -0.018 C 
ENDBRANCH  19  25
ENDBRANCH   1  19
TORSDOF 6
