REMARK  Name = ZINC01033667
REMARK  7 active torsions:
REMARK  status: ('A' for Active; 'I' for Inactive)
REMARK    1  A    between atoms: C_4  and  C_7
REMARK    2  A    between atoms: C_7  and  N_8
REMARK    3  A    between atoms: N_8  and  C_9
REMARK    4  A    between atoms: C_9  and  N_11
REMARK    5  A    between atoms: N_11  and  N_12
REMARK    6  A    between atoms: C_13  and  C_15
REMARK    7  A    between atoms: C_15  and  N_16
REMARK                            x       y       z     vdW  Elec       q    Type
REMARK                         _______ _______ _______ _____ _____    ______ ____
ROOT
ATOM      1  N   UNL     1       5.436   1.872   0.384  0.00  0.00    -0.234 N 
ATOM      2  C   UNL     1       4.329   2.461  -0.111  0.00  0.00    +0.247 C 
ATOM      3  O   UNL     1       3.995   2.257  -1.259  0.00  0.00    -0.273 OA
ATOM      4  H   UNL     1       5.702   2.035   1.302  0.00  0.00    +0.173 HD
ENDROOT
BRANCH   1   5
ATOM      5  N   UNL     1       6.200   1.023  -0.427  0.00  0.00    -0.246 N 
ATOM      6  H   UNL     1       5.933   0.860  -1.346  0.00  0.00    +0.172 HD
BRANCH   5   7
ATOM      7  C   UNL     1       7.307   0.434   0.067  0.00  0.00    +0.147 C 
ATOM      8  S   UNL     1       8.241  -0.602  -0.924  0.00  0.00    -0.017 S 
BRANCH   7   9
ATOM      9  N   UNL     1       7.678   0.661   1.343  0.00  0.00    -0.321 N 
ATOM     10  H   UNL     1       7.148   1.248   1.905  0.00  0.00    +0.148 HD
BRANCH   9  11
ATOM     11  C   UNL     1       8.880   0.020   1.881  0.00  0.00    +0.138 C 
BRANCH  11  15
ATOM     12  C   UNL     1       9.420   1.196   5.952  0.00  0.00    +0.000 A 
ATOM     13  C   UNL     1       8.676   0.071   5.651  0.00  0.00    +0.000 A 
ATOM     14  C   UNL     1       8.501  -0.309   4.333  0.00  0.00    +0.005 A 
ATOM     15  C   UNL     1       9.071   0.435   3.317  0.00  0.00    -0.030 A 
ATOM     16  C   UNL     1       9.820   1.557   3.619  0.00  0.00    +0.005 A 
ATOM     17  C   UNL     1       9.991   1.940   4.936  0.00  0.00    +0.000 A 
ENDBRANCH  11  15
ENDBRANCH   9  11
ENDBRANCH   7   9
ENDBRANCH   5   7
ENDBRANCH   1   5
BRANCH   2  18
ATOM     18  C   UNL     1       3.507   3.373   0.762  0.00  0.00    +0.208 C 
BRANCH  18  19
ATOM     19  N   UNL     1       2.366   3.883  -0.003  0.00  0.00    -0.289 N 
ATOM     20  C   UNL     1       1.165   3.166   0.007  0.00  0.00    +0.048 A 
ATOM     21  C   UNL     1       1.179   1.780   0.000  0.00  0.00    +0.024 A 
ATOM     22  C   UNL     1      -0.013   1.076   0.008  0.00  0.00    +0.002 A 
ATOM     23  C   UNL     1      -1.221   1.746   0.017  0.00  0.00    +0.001 A 
ATOM     24  C   UNL     1      -1.247   3.131   0.031  0.00  0.00    +0.017 A 
ATOM     25  C   UNL     1      -0.059   3.838   0.023  0.00  0.00    +0.034 A 
ATOM     26  S   UNL     1      -0.060   5.604   0.034  0.00  0.00    -0.086 S 
ATOM     27  C   UNL     1       1.451   5.986  -0.796  0.00  0.00    +0.034 A 
ATOM     28  C   UNL     1       2.508   5.075  -0.722  0.00  0.00    +0.048 A 
ATOM     29  C   UNL     1       3.700   5.363  -1.369  0.00  0.00    +0.024 A 
ATOM     30  C   UNL     1       3.833   6.543  -2.080  0.00  0.00    +0.002 A 
ATOM     31  C   UNL     1       2.784   7.440  -2.150  0.00  0.00    +0.001 A 
ATOM     32  C   UNL     1       1.589   7.162  -1.507  0.00  0.00    +0.017 A 
ENDBRANCH  18  19
ENDBRANCH   2  18
TORSDOF 7
