REMARK  Name = ZINC63490982
REMARK  9 active torsions:
REMARK  status: ('A' for Active; 'I' for Inactive)
REMARK    1  A    between atoms: C_1  and  C_2
REMARK    2  A    between atoms: C_9  and  C_13
REMARK    3  A    between atoms: C_13  and  O_14
REMARK    4  A    between atoms: O_14  and  C_15
REMARK    5  A    between atoms: C_18  and  C_23
REMARK    6  A    between atoms: C_20  and  O_21
REMARK    7  A    between atoms: O_21  and  C_22
REMARK    8  A    between atoms: C_24  and  C_25
REMARK    9  A    between atoms: C_24  and  C_27
REMARK                            x       y       z     vdW  Elec       q    Type
REMARK                         _______ _______ _______ _____ _____    ______ ____
ROOT
ATOM      1  C   UNL     1      -1.622  -8.219  -0.550  0.00  0.00    +0.162 A 
ATOM      2  C   UNL     1      -1.620  -8.747   0.734  0.00  0.00    +0.050 A 
ATOM      3  C   UNL     1      -2.003 -10.053   0.945  0.00  0.00    +0.012 A 
ATOM      4  C   UNL     1      -2.397 -10.850  -0.135  0.00  0.00    -0.020 A 
ATOM      5  C   UNL     1      -2.399 -10.317  -1.429  0.00  0.00    +0.057 A 
ATOM      6  C   UNL     1      -2.018  -9.005  -1.631  0.00  0.00    +0.162 A 
ENDROOT
BRANCH   6   7
ATOM      7  O   UNL     1      -2.023  -8.481  -2.886  0.00  0.00    -0.491 OA
ATOM      8  C   UNL     1      -2.440  -9.343  -3.947  0.00  0.00    +0.277 C 
ENDBRANCH   6   7
BRANCH   4   9
ATOM      9  C   UNL     1      -2.806 -12.245   0.088  0.00  0.00    +0.026 C 
ATOM     10  C   UNL     1      -3.402 -12.597   1.246  0.00  0.00    +0.072 C 
BRANCH  10  11
ATOM     11  C   UNL     1      -3.676 -14.048   1.542  0.00  0.00    +0.216 C 
ATOM     12  N   UNL     1      -5.109 -14.249   1.797  0.00  0.00    -0.359 N 
ATOM     13  C   UNL     1      -5.229 -14.709   3.008  0.00  0.00    +0.060 A 
ATOM     14  C   UNL     1      -6.392 -15.097   3.818  0.00  0.00    +0.027 A 
ATOM     15  C   UNL     1      -6.207 -15.551   5.074  0.00  0.00    +0.002 A 
ATOM     16  C   UNL     1      -4.932 -15.673   5.655  0.00  0.00    +0.002 A 
ATOM     17  C   UNL     1      -3.800 -15.345   5.001  0.00  0.00    +0.027 A 
ATOM     18  C   UNL     1      -3.880 -14.839   3.623  0.00  0.00    +0.060 A 
ATOM     19  N   UNL     1      -2.977 -14.454   2.768  0.00  0.00    -0.359 N 
ATOM     20  H   UNL     1      -5.832 -14.071   1.176  0.00  0.00    +0.162 HD
ATOM     21  H   UNL     1      -2.019 -14.438   2.914  0.00  0.00    +0.162 HD
ENDBRANCH  10  11
BRANCH  10  22
ATOM     22  C   UNL     1      -3.774 -11.590   2.194  0.00  0.00    +0.099 C 
ATOM     23  N   UNL     1      -4.069 -10.791   2.946  0.00  0.00    -0.191 NA
ENDBRANCH  10  22
ENDBRANCH   4   9
BRANCH   1  24
ATOM     24  O   UNL     1      -1.243  -6.930  -0.752  0.00  0.00    -0.482 OA
BRANCH  24  25
ATOM     25  C   UNL     1      -0.849  -6.181   0.399  0.00  0.00    +0.279 C 
BRANCH  25  33
ATOM     26  C   UNL     1       0.649   1.349   0.271  0.00  0.00    +0.075 C 
ATOM     27  C   UNL     1       0.592  -0.155   0.197  0.00  0.00    +0.093 C 
ATOM     28  N   UNL     1       0.446  -0.901  -0.854  0.00  0.00    -0.173 NA
ATOM     29  N   UNL     1       0.349  -2.278  -0.781  0.00  0.00    -0.158 N 
ATOM     30  C   UNL     1       0.897  -2.837   0.495  0.00  0.00    +0.250 C 
ATOM     31  S   UNL     1       0.719  -1.333   1.538  0.00  0.00    -0.065 S 
ATOM     32  N   UNL     1      -0.049  -3.874   0.927  0.00  0.00    -0.316 N 
ATOM     33  C   UNL     1      -0.465  -4.784  -0.017  0.00  0.00    +0.049 C 
ATOM     34  C   UNL     1      -0.529  -4.425  -1.316  0.00  0.00    +0.091 C 
ATOM     35  C   UNL     1      -0.192  -3.110  -1.708  0.00  0.00    +0.263 C 
ATOM     36  O   UNL     1      -0.353  -2.746  -2.859  0.00  0.00    -0.269 OA
ATOM     37  H   UNL     1      -0.368  -3.916   1.842  0.00  0.00    +0.148 HD
ENDBRANCH  25  33
ENDBRANCH  24  25
ENDBRANCH   1  24
TORSDOF 7
