REMARK  Name = ZINC04229150
REMARK  9 active torsions:
REMARK  status: ('A' for Active; 'I' for Inactive)
REMARK    1  A    between atoms: C_1  and  C_2
REMARK    2  A    between atoms: C_2  and  C_4
REMARK    3  A    between atoms: C_2  and  O_21
REMARK    4  A    between atoms: N_6  and  N_7
REMARK    5  A    between atoms: C_8  and  C_9
REMARK    6  A    between atoms: O_21  and  C_22
REMARK    7  A    between atoms: C_25  and  O_28
REMARK    8  A    between atoms: O_28  and  C_29
REMARK    9  A    between atoms: C_29  and  C_30
REMARK                            x       y       z     vdW  Elec       q    Type
REMARK                         _______ _______ _______ _____ _____    ______ ____
ROOT
ATOM      1  C   UNL     1       5.793  -0.587  -0.973  0.00  0.00    +0.273 C 
ATOM      2  O   UNL     1       5.532  -1.688  -1.412  0.00  0.00    -0.270 OA
ATOM      3  N   UNL     1       6.996  -0.031  -1.217  0.00  0.00    -0.204 N 
ATOM      4  H   UNL     1       7.204   0.849  -0.866  0.00  0.00    +0.177 HD
ENDROOT
BRANCH   1   6
ATOM      5  C   UNL     1       5.338   0.438   1.239  0.00  0.00    +0.062 C 
ATOM      6  C   UNL     1       4.770   0.159  -0.154  0.00  0.00    +0.257 C 
BRANCH   6   7
ATOM      7  O   UNL     1       3.586  -0.632  -0.036  0.00  0.00    -0.480 OA
BRANCH   7   8
ATOM      8  C   UNL     1       2.421   0.031   0.194  0.00  0.00    +0.122 A 
ATOM      9  C   UNL     1       1.220  -0.662   0.208  0.00  0.00    +0.049 A 
ATOM     10  C   UNL     1       0.036   0.011   0.442  0.00  0.00    +0.049 A 
ATOM     11  C   UNL     1       0.050   1.380   0.661  0.00  0.00    +0.121 A 
ATOM     12  C   UNL     1       1.251   2.074   0.647  0.00  0.00    +0.049 A 
ATOM     13  C   UNL     1       2.434   1.400   0.413  0.00  0.00    +0.049 A 
BRANCH  11  14
ATOM     14  O   UNL     1      -1.116   2.044   0.885  0.00  0.00    -0.487 OA
BRANCH  14  15
ATOM     15  C   UNL     1      -1.028   3.454   1.104  0.00  0.00    +0.264 C 
BRANCH  15  16
ATOM     16  C   UNL     1      -2.408   4.014   1.333  0.00  0.00    -0.010 A 
ATOM     17  C   UNL     1      -3.156   4.466   0.263  0.00  0.00    +0.007 A 
ATOM     18  C   UNL     1      -4.425   4.975   0.472  0.00  0.00    +0.000 A 
ATOM     19  C   UNL     1      -4.940   5.042   1.753  0.00  0.00    +0.000 A 
ATOM     20  C   UNL     1      -4.189   4.595   2.824  0.00  0.00    +0.000 A 
ATOM     21  C   UNL     1      -2.923   4.081   2.614  0.00  0.00    +0.007 A 
ENDBRANCH  15  16
ENDBRANCH  14  15
ENDBRANCH  11  14
ENDBRANCH   7   8
ENDBRANCH   6   7
ENDBRANCH   1   6
BRANCH   3  22
ATOM     22  N   UNL     1       7.946  -0.724  -1.978  0.00  0.00    -0.187 NA
ATOM     23  C   UNL     1       9.106  -0.188  -2.213  0.00  0.00    +0.143 C 
BRANCH  23  24
ATOM     24  C   UNL     1      10.104  -0.916  -3.012  0.00  0.00    +0.059 A 
ATOM     25  C   UNL     1      11.339  -0.354  -3.267  0.00  0.00    +0.024 A 
ATOM     26  C   UNL     1      12.280  -1.079  -4.040  0.00  0.00    -0.001 A 
ATOM     27  C   UNL     1      13.543  -0.531  -4.314  0.00  0.00    +0.010 A 
ATOM     28  C   UNL     1      14.443  -1.236  -5.059  0.00  0.00    +0.001 A 
ATOM     29  C   UNL     1      14.121  -2.494  -5.550  0.00  0.00    +0.002 A 
ATOM     30  C   UNL     1      12.887  -3.053  -5.294  0.00  0.00    +0.026 A 
ATOM     31  C   UNL     1      11.951  -2.354  -4.537  0.00  0.00    +0.049 A 
ATOM     32  N   UNL     1      10.715  -2.910  -4.279  0.00  0.00    -0.322 N 
ATOM     33  H   UNL     1      10.496  -3.815  -4.643  0.00  0.00    +0.169 HD
ATOM     34  C   UNL     1       9.801  -2.251  -3.543  0.00  0.00    +0.258 A 
ATOM     35  O   UNL     1       8.717  -2.761  -3.321  0.00  0.00    -0.267 OA
ENDBRANCH  23  24
ENDBRANCH   3  22
TORSDOF 8
