REMARK  Name = ZINC12445015
REMARK  6 active torsions:
REMARK  status: ('A' for Active; 'I' for Inactive)
REMARK    1  A    between atoms: C_1  and  C_2
REMARK    2  A    between atoms: C_4  and  C_16
REMARK    3  A    between atoms: C_5  and  C_9
REMARK    4  A    between atoms: C_6  and  C_8
REMARK    5  A    between atoms: C_10  and  C_11
REMARK    6  A    between atoms: C_10  and  C_13
REMARK                            x       y       z     vdW  Elec       q    Type
REMARK                         _______ _______ _______ _____ _____    ______ ____
ROOT
ATOM      1  C   UNL     1      -0.511   1.464   0.017  0.00  0.00    +0.044 C 
ATOM      2  C   UNL     1      -0.254  -0.020  -0.015  0.00  0.00    -0.050 A 
ATOM      3  C   UNL     1      -0.283  -0.697  -1.222  0.00  0.00    +0.007 A 
ATOM      4  C   UNL     1      -0.049  -2.055  -1.261  0.00  0.00    -0.043 A 
ATOM      5  C   UNL     1       0.218  -2.750  -0.074  0.00  0.00    -0.018 A 
ATOM      6  C   UNL     1       0.246  -2.056   1.142  0.00  0.00    -0.043 A 
ATOM      7  C   UNL     1       0.016  -0.697   1.162  0.00  0.00    +0.007 A 
ATOM      8  C   UNL     1       0.533  -2.792   2.425  0.00  0.00    +0.044 C 
ATOM      9  C   UNL     1      -0.082  -2.791  -2.576  0.00  0.00    +0.044 C 
ENDROOT
BRANCH   5  10
ATOM     10  C   UNL     1       0.468  -4.195  -0.106  0.00  0.00    +0.030 C 
ATOM     11  C   UNL     1       1.522  -4.691  -0.819  0.00  0.00    +0.082 C 
BRANCH  11  12
ATOM     12  C   UNL     1       1.693  -6.144  -0.965  0.00  0.00    +0.095 C 
ATOM     13  N   UNL     1       2.751  -6.642  -1.681  0.00  0.00    -0.392 N 
ATOM     14  S   UNL     1       0.604  -7.182  -0.263  0.00  0.00    -0.032 SA
ATOM     15  H   UNL     1       3.387  -6.036  -2.091  0.00  0.00    +0.156 HD
ATOM     16  H   UNL     1       2.863  -7.601  -1.777  0.00  0.00    +0.156 HD
ENDBRANCH  11  12
BRANCH  11  17
ATOM     17  C   UNL     1       2.462  -3.796  -1.425  0.00  0.00    +0.102 C 
ATOM     18  N   UNL     1       3.207  -3.086  -1.905  0.00  0.00    -0.191 NA
ENDBRANCH  11  17
ENDBRANCH   5  10
TORSDOF 3
