REMARK  Name = ZINC52907434
REMARK  7 active torsions:
REMARK  status: ('A' for Active; 'I' for Inactive)
REMARK    1  A    between atoms: C_1  and  C_2
REMARK    2  A    between atoms: C_2  and  N_3
REMARK    3  A    between atoms: C_6  and  C_9
REMARK    4  A    between atoms: C_9  and  N_10
REMARK    5  A    between atoms: N_10  and  C_11
REMARK    6  A    between atoms: C_16  and  C_17
REMARK    7  A    between atoms: C_17  and  N_19
REMARK                            x       y       z     vdW  Elec       q    Type
REMARK                         _______ _______ _______ _____ _____    ______ ____
ROOT
ATOM      1  N   UNL     1      -5.062  -4.021  -0.874  0.00  0.00    -0.343 N 
ATOM      2  H   UNL     1      -4.242  -4.538  -0.922  0.00  0.00    +0.146 HD
ENDROOT
BRANCH   1   3
ATOM      3  C   UNL     1      -6.287  -4.669  -0.782  0.00  0.00    +0.038 A 
ATOM      4  C   UNL     1      -7.452  -3.936  -0.598  0.00  0.00    +0.024 A 
ATOM      5  C   UNL     1      -8.669  -4.582  -0.506  0.00  0.00    +0.003 A 
ATOM      6  C   UNL     1      -8.740  -5.962  -0.596  0.00  0.00    +0.021 A 
ATOM      7  C   UNL     1      -7.595  -6.708  -0.778  0.00  0.00    +0.052 A 
ATOM      8  C   UNL     1      -6.355  -6.069  -0.879  0.00  0.00    +0.042 A 
ATOM      9 CL   UNL     1      -7.692  -8.438  -0.889  0.00  0.00    -0.083 Cl
BRANCH   8  10
ATOM     10  C   UNL     1      -5.128  -6.857  -1.081  0.00  0.00    +0.080 C 
ATOM     11  S   UNL     1      -4.523  -7.110  -2.662  0.00  0.00    -0.035 S 
BRANCH  10  12
ATOM     12  N   UNL     1      -4.481  -7.380  -0.020  0.00  0.00    -0.352 N 
ATOM     13  H   UNL     1      -4.862  -7.299   0.868  0.00  0.00    +0.143 HD
ATOM     14  H   UNL     1      -3.635  -7.837  -0.145  0.00  0.00    +0.143 HD
ENDBRANCH  10  12
ENDBRANCH   8  10
ENDBRANCH   1   3
BRANCH   1  15
ATOM     15  C   UNL     1      -5.007  -2.557  -0.897  0.00  0.00    +0.105 C 
BRANCH  15  19
ATOM     16  N   UNL     1      -1.377  -0.517   0.074  0.00  0.00    +0.380 N 
ATOM     17  C   UNL     1      -2.037  -0.124  -1.177  0.00  0.00    -0.079 C 
ATOM     18  C   UNL     1      -3.498  -0.580  -1.152  0.00  0.00    -0.014 C 
ATOM     19  C   UNL     1      -3.550  -2.103  -1.002  0.00  0.00    +0.003 C 
ATOM     20  C   UNL     1      -2.795  -2.507   0.267  0.00  0.00    -0.014 C 
ATOM     21  C   UNL     1      -1.360  -1.980   0.190  0.00  0.00    -0.079 C 
ATOM     22  H   UNL     1      -1.881  -0.125   0.855  0.00  0.00    -0.082 HD
BRANCH  16  24
ATOM     23  C   UNL     1      -0.018   1.520   0.083  0.00  0.00    -0.017 C 
ATOM     24  C   UNL     1       0.001  -0.010   0.078  0.00  0.00    -0.082 C 
ENDBRANCH  16  24
ENDBRANCH  15  19
ENDBRANCH   1  15
TORSDOF 6
