REMARK  Name = ZINC00688529
REMARK  5 active torsions:
REMARK  status: ('A' for Active; 'I' for Inactive)
REMARK    1  A    between atoms: C_4  and  C_7
REMARK    2  A    between atoms: C_12  and  C_20
REMARK    3  A    between atoms: C_14  and  C_18
REMARK    4  A    between atoms: C_15  and  N_17
REMARK    5  A    between atoms: C_24  and  N_26
REMARK                            x       y       z     vdW  Elec       q    Type
REMARK                         _______ _______ _______ _____ _____    ______ ____
ROOT
ATOM      1  C   UNL     1      -2.530   2.864  -2.978  0.00  0.00    +0.034 C 
ATOM      2  C   UNL     1      -1.031   3.124  -3.136  0.00  0.00    +0.083 C 
ATOM      3  C   UNL     1      -0.298   2.638  -1.907  0.00  0.00    +0.115 C 
ATOM      4  C   UNL     1      -0.757   1.583  -1.208  0.00  0.00    +0.046 C 
ATOM      5  C   UNL     1      -0.013   1.086   0.008  0.00  0.00    +0.101 C 
ATOM      6  C   UNL     1       1.399   1.604  -0.003  0.00  0.00    +0.098 C 
ATOM      7  C   UNL     1       1.733   2.667  -0.774  0.00  0.00    +0.198 C 
ATOM      8  O   UNL     1       0.823   3.287  -1.541  0.00  0.00    -0.445 OA
ATOM      9  C   UNL     1      -1.937   0.913  -1.583  0.00  0.00    +0.164 C 
ATOM     10  O   UNL     1      -2.312  -0.042  -0.934  0.00  0.00    -0.292 OA
ATOM     11  C   UNL     1      -2.743   1.361  -2.772  0.00  0.00    +0.088 C 
ENDROOT
BRANCH   1  15
ATOM     12  C   UNL     1      -4.585   4.136  -6.500  0.00  0.00    +0.000 A 
ATOM     13  C   UNL     1      -4.894   4.702  -5.278  0.00  0.00    +0.000 A 
ATOM     14  C   UNL     1      -4.228   4.291  -4.138  0.00  0.00    +0.004 A 
ATOM     15  C   UNL     1      -3.255   3.313  -4.221  0.00  0.00    -0.043 A 
ATOM     16  C   UNL     1      -2.943   2.750  -5.444  0.00  0.00    +0.004 A 
ATOM     17  C   UNL     1      -3.611   3.159  -6.583  0.00  0.00    +0.000 A 
ENDBRANCH   1  15
BRANCH   5  18
ATOM     18  C   UNL     1      -0.713   1.569   1.252  0.00  0.00    -0.032 A 
ATOM     19  C   UNL     1      -0.856   2.925   1.482  0.00  0.00    +0.005 A 
ATOM     20  C   UNL     1      -1.499   3.369   2.622  0.00  0.00    +0.003 A 
ATOM     21  C   UNL     1      -1.998   2.456   3.533  0.00  0.00    +0.033 A 
ATOM     22  C   UNL     1      -1.855   1.101   3.303  0.00  0.00    +0.126 A 
ATOM     23  C   UNL     1      -1.218   0.657   2.159  0.00  0.00    +0.037 A 
BRANCH  22  24
ATOM     24  N   UNL     1      -2.390   0.124   4.279  0.00  0.00    +0.056 N 
ATOM     25  O   UNL     1      -2.955   0.515   5.284  0.00  0.00    -0.126 OA
ATOM     26  O   UNL     1      -2.264  -1.070   4.076  0.00  0.00    -0.126 OA
ENDBRANCH  22  24
ENDBRANCH   5  18
BRANCH   7  27
ATOM     27  N   UNL     1       3.029   3.119  -0.770  0.00  0.00    -0.328 N 
ATOM     28  H   UNL     1       3.695   2.678  -0.219  0.00  0.00    +0.145 HD
ATOM     29  H   UNL     1       3.279   3.879  -1.318  0.00  0.00    +0.145 HD
ENDBRANCH   7  27
BRANCH   6  30
ATOM     30  C   UNL     1       2.395   0.970   0.807  0.00  0.00    +0.101 C 
ATOM     31  N   UNL     1       3.186   0.467   1.449  0.00  0.00    -0.191 NA
ENDBRANCH   6  30
TORSDOF 5
