REMARK  Name = ZINC04200010
REMARK  10 active torsions:
REMARK  status: ('A' for Active; 'I' for Inactive)
REMARK    1  A    between atoms: C_1  and  O_2
REMARK    2  A    between atoms: O_2  and  C_3
REMARK    3  A    between atoms: C_3  and  O_28
REMARK    4  A    between atoms: C_4  and  C_26
REMARK    5  A    between atoms: C_5  and  C_12
REMARK    6  A    between atoms: C_7  and  C_10
REMARK    7  A    between atoms: C_15  and  O_18
REMARK    8  A    between atoms: O_18  and  C_19
REMARK    9  A    between atoms: C_19  and  C_20
REMARK   10  A    between atoms: O_28  and  C_29
REMARK                            x       y       z     vdW  Elec       q    Type
REMARK                         _______ _______ _______ _____ _____    ______ ____
ROOT
ATOM      1  C   UNL     1       2.496   1.267   2.615  0.00  0.00    +0.274 C 
ATOM      2  C   UNL     1       3.092   1.064   1.188  0.00  0.00    +0.165 C 
ATOM      3  C   UNL     1       2.103   1.012   0.021  0.00  0.00    +0.077 C 
ATOM      4  C   UNL     1       2.465  -0.277   0.761  0.00  0.00    +0.144 C 
ATOM      5  C   UNL     1       1.605  -0.724   1.916  0.00  0.00    +0.092 C 
ATOM      6  N   UNL     1       0.876  -1.884   1.927  0.00  0.00    -0.347 N 
ATOM      7  H   UNL     1       0.894  -2.475   1.159  0.00  0.00    +0.143 HD
ATOM      8  H   UNL     1       0.343  -2.114   2.704  0.00  0.00    +0.143 HD
ATOM      9  N   UNL     1       1.628   0.109   2.905  0.00  0.00    -0.324 N 
ATOM     10  H   UNL     1       1.108  -0.019   3.781  0.00  0.00    +0.166 HD
ENDROOT
BRANCH   3  11
ATOM     11  C   UNL     1       0.727   1.582   0.251  0.00  0.00    -0.040 A 
ATOM     12  C   UNL     1      -0.349   0.734   0.437  0.00  0.00    +0.007 A 
ATOM     13  C   UNL     1      -1.612   1.254   0.642  0.00  0.00    +0.046 A 
ATOM     14  C   UNL     1      -1.799   2.628   0.672  0.00  0.00    +0.121 A 
ATOM     15  C   UNL     1      -0.718   3.477   0.485  0.00  0.00    +0.046 A 
ATOM     16  C   UNL     1       0.543   2.953   0.275  0.00  0.00    +0.007 A 
BRANCH  14  17
ATOM     17  O   UNL     1      -3.040   3.142   0.879  0.00  0.00    -0.487 OA
BRANCH  17  18
ATOM     18  C   UNL     1      -4.106   2.209   1.063  0.00  0.00    +0.264 C 
BRANCH  18  19
ATOM     19  C   UNL     1      -5.397   2.957   1.277  0.00  0.00    -0.010 A 
ATOM     20  C   UNL     1      -5.793   3.301   2.556  0.00  0.00    +0.007 A 
ATOM     21  C   UNL     1      -6.975   3.991   2.752  0.00  0.00    +0.000 A 
ATOM     22  C   UNL     1      -7.765   4.328   1.669  0.00  0.00    +0.000 A 
ATOM     23  C   UNL     1      -7.372   3.979   0.391  0.00  0.00    +0.000 A 
ATOM     24  C   UNL     1      -6.188   3.293   0.195  0.00  0.00    +0.007 A 
ENDBRANCH  18  19
ENDBRANCH  17  18
ENDBRANCH  14  17
ENDBRANCH   3  11
BRANCH   1  26
ATOM     25  C   UNL     1       2.501   3.663   2.544  0.00  0.00    +0.199 C 
ATOM     26  O   UNL     1       1.724   2.469   2.663  0.00  0.00    -0.334 OA
ENDBRANCH   1  26
BRANCH   4  27
ATOM     27  C   UNL     1       3.257  -1.306   0.067  0.00  0.00    +0.079 C 
ATOM     28  N   UNL     1       3.868  -2.100  -0.468  0.00  0.00    -0.195 NA
ENDBRANCH   4  27
BRANCH   2  29
ATOM     29  C   UNL     1       4.504   1.394   0.938  0.00  0.00    +0.079 C 
ATOM     30  N   UNL     1       5.595   1.648   0.745  0.00  0.00    -0.196 NA
ENDBRANCH   2  29
BRANCH   1  31
ATOM     31  O   UNL     1       3.554   1.326   3.574  0.00  0.00    -0.334 OA
ATOM     32  C   UNL     1       3.108   1.458   4.925  0.00  0.00    +0.199 C 
ENDBRANCH   1  31
TORSDOF 8
