REMARK  Name = ZINC04491480
REMARK  10 active torsions:
REMARK  status: ('A' for Active; 'I' for Inactive)
REMARK    1  A    between atoms: C_1  and  C_2
REMARK    2  A    between atoms: C_7  and  C_8
REMARK    3  A    between atoms: C_11  and  C_12
REMARK    4  A    between atoms: C_12  and  C_13
REMARK    5  A    between atoms: C_13  and  O_15
REMARK    6  A    between atoms: O_15  and  C_16
REMARK    7  A    between atoms: C_16  and  C_18
REMARK    8  A    between atoms: C_16  and  C_19
REMARK    9  A    between atoms: C_25  and  C_31
REMARK   10  A    between atoms: C_26  and  C_30
REMARK                            x       y       z     vdW  Elec       q    Type
REMARK                         _______ _______ _______ _____ _____    ______ ____
ROOT
ATOM      1  O   UNL     1      -0.749   3.031   1.275  0.00  0.00    -0.454 OA
ENDROOT
BRANCH   1   2
ATOM      2  C   UNL     1       0.284   3.651   1.866  0.00  0.00    +0.312 C 
ATOM      3  O   UNL     1       1.176   3.002   2.361  0.00  0.00    -0.250 OA
BRANCH   2   4
ATOM      4  C   UNL     1       0.333   5.157   1.913  0.00  0.00    +0.159 C 
BRANCH   4  15
ATOM      5  C   UNL     1       5.364   5.692  -0.841  0.00  0.00    +0.044 C 
ATOM      6  C   UNL     1       4.785   5.864   0.540  0.00  0.00    -0.047 A 
ATOM      7  C   UNL     1       3.449   5.609   0.760  0.00  0.00    +0.015 A 
ATOM      8  C   UNL     1       2.921   5.765   2.040  0.00  0.00    +0.024 A 
ATOM      9  C   UNL     1       3.744   6.190   3.097  0.00  0.00    +0.135 A 
ATOM     10  C   UNL     1       5.088   6.441   2.853  0.00  0.00    +0.050 A 
ATOM     11  C   UNL     1       5.599   6.279   1.583  0.00  0.00    -0.044 A 
ATOM     12  C   UNL     1       7.059   6.553   1.327  0.00  0.00    +0.044 C 
ATOM     13  O   UNL     1       2.974   6.258   4.202  0.00  0.00    -0.463 OA
ATOM     14  C   UNL     1       1.705   5.909   3.924  0.00  0.00    +0.200 A 
ATOM     15  C   UNL     1       1.585   5.597   2.626  0.00  0.00    +0.009 A 
ENDBRANCH   4  15
ENDBRANCH   2   4
ENDBRANCH   1   2
BRANCH   1  16
ATOM     16  C   UNL     1      -0.729   1.579   1.267  0.00  0.00    +0.239 C 
ATOM     17  C   UNL     1      -0.013   1.086   0.008  0.00  0.00    +0.060 C 
BRANCH  16  18
ATOM     18  C   UNL     1      -2.143   1.058   1.278  0.00  0.00    +0.152 A 
ATOM     19  N   UNL     1      -2.861   1.103   2.429  0.00  0.00    -0.307 N 
ATOM     20  H   UNL     1      -2.441   1.478   3.255  0.00  0.00    +0.170 HD
ATOM     21  C   UNL     1      -4.129   0.653   2.480  0.00  0.00    +0.260 A 
ATOM     22  O   UNL     1      -4.763   0.706   3.521  0.00  0.00    -0.267 OA
ATOM     23  C   UNL     1      -4.720   0.106   1.295  0.00  0.00    +0.075 A 
ATOM     24  C   UNL     1      -6.049  -0.442   1.098  0.00  0.00    -0.026 A 
ATOM     25  C   UNL     1      -6.394  -0.904  -0.115  0.00  0.00    -0.008 A 
ATOM     26  S   UNL     1      -4.928  -0.631  -1.093  0.00  0.00    -0.073 S 
ATOM     27  C   UNL     1      -3.897   0.096   0.154  0.00  0.00    +0.116 A 
ATOM     28  N   UNL     1      -2.653   0.565   0.181  0.00  0.00    -0.223 NA
ATOM     29  C   UNL     1      -7.705  -1.510  -0.545  0.00  0.00    +0.052 C 
ATOM     30  C   UNL     1      -7.031  -0.490   2.240  0.00  0.00    +0.045 C 
ENDBRANCH  16  18
ENDBRANCH   1  16
TORSDOF 5
