REMARK  Name = ZINC11561037
REMARK  7 active torsions:
REMARK  status: ('A' for Active; 'I' for Inactive)
REMARK    1  A    between atoms: C_1  and  C_2
REMARK    2  A    between atoms: C_7  and  C_11
REMARK    3  A    between atoms: C_11  and  O_12
REMARK    4  A    between atoms: O_12  and  C_13
REMARK    5  A    between atoms: C_16  and  C_19
REMARK    6  A    between atoms: N_21  and  N_22
REMARK    7  A    between atoms: C_23  and  C_25
REMARK                            x       y       z     vdW  Elec       q    Type
REMARK                         _______ _______ _______ _____ _____    ______ ____
ROOT
ATOM      1  C   UNL     1       1.214  -0.684  -0.013  0.00  0.00    +0.121 A 
ATOM      2  C   UNL     1       0.002  -0.004   0.002  0.00  0.00    +0.046 A 
ATOM      3  C   UNL     1      -0.017   1.373   0.010  0.00  0.00    +0.016 A 
ATOM      4  C   UNL     1       1.185   2.086   0.002  0.00  0.00    +0.038 A 
ATOM      5  C   UNL     1       2.401   1.398  -0.012  0.00  0.00    +0.016 A 
ATOM      6  C   UNL     1       2.412   0.021  -0.020  0.00  0.00    +0.046 A 
ENDROOT
BRANCH   4   7
ATOM      7  C   UNL     1       1.169   3.562   0.009  0.00  0.00    +0.260 C 
ATOM      8  O   UNL     1       0.110   4.159   0.022  0.00  0.00    -0.269 OA
ATOM      9  N   UNL     1       2.330   4.248   0.002  0.00  0.00    -0.230 N 
ATOM     10  H   UNL     1       3.175   3.772  -0.008  0.00  0.00    +0.173 HD
BRANCH   9  11
ATOM     11  N   UNL     1       2.315   5.649   0.009  0.00  0.00    -0.230 N 
ATOM     12  C   UNL     1       3.475   6.335   0.002  0.00  0.00    +0.260 C 
ATOM     13  O   UNL     1       4.534   5.738  -0.011  0.00  0.00    -0.269 OA
ATOM     14  H   UNL     1       1.470   6.125   0.020  0.00  0.00    +0.173 HD
BRANCH  12  15
ATOM     15  C   UNL     1       3.459   7.813   0.009  0.00  0.00    +0.038 A 
ATOM     16  C   UNL     1       2.245   8.501   0.019  0.00  0.00    +0.014 A 
ATOM     17  C   UNL     1       2.237   9.880   0.032  0.00  0.00    +0.016 A 
ATOM     18  C   UNL     1       3.430  10.582   0.024  0.00  0.00    +0.018 A 
ATOM     19  C   UNL     1       4.638   9.905   0.009  0.00  0.00    +0.016 A 
ATOM     20  C   UNL     1       4.659   8.527   0.002  0.00  0.00    +0.014 A 
ATOM     21 BR   UNL     1       3.410  12.473   0.034  0.00  0.00    -0.050 Br
ENDBRANCH  12  15
ENDBRANCH   9  11
ENDBRANCH   4   7
BRANCH   1  22
ATOM     22  O   UNL     1       1.228  -2.042  -0.020  0.00  0.00    -0.486 OA
BRANCH  22  23
ATOM     23  C   UNL     1       2.508  -2.677  -0.035  0.00  0.00    +0.286 C 
BRANCH  23  30
ATOM     24  C   UNL     1       0.258  -9.716  -0.045  0.00  0.00    +0.045 C 
ATOM     25  C   UNL     1       1.156  -8.507  -0.049  0.00  0.00    -0.034 A 
ATOM     26  C   UNL     1       2.551  -8.672  -0.062  0.00  0.00    +0.008 A 
ATOM     27  C   UNL     1       3.359  -7.578  -0.065  0.00  0.00    +0.047 A 
ATOM     28  C   UNL     1       2.781  -6.293  -0.055  0.00  0.00    +0.138 A 
ATOM     29  N   UNL     1       3.309  -5.077  -0.054  0.00  0.00    -0.229 NA
ATOM     30  C   UNL     1       2.326  -4.173  -0.041  0.00  0.00    +0.097 A 
ATOM     31  C   UNL     1       1.142  -4.823  -0.028  0.00  0.00    +0.119 A 
ATOM     32  N   UNL     1       1.417  -6.163  -0.041  0.00  0.00    -0.306 N 
ATOM     33  C   UNL     1       0.617  -7.270  -0.039  0.00  0.00    +0.096 A 
ENDBRANCH  23  30
ENDBRANCH  22  23
ENDBRANCH   1  22
TORSDOF 6
