REMARK  Name = ZINC38655457
REMARK  11 active torsions:
REMARK  status: ('A' for Active; 'I' for Inactive)
REMARK    1  A    between atoms: C_1  and  C_2
REMARK    2  A    between atoms: C_2  and  C_3
REMARK    3  A    between atoms: C_2  and  C_4
REMARK    4  A    between atoms: C_4  and  O_5
REMARK    5  A    between atoms: O_5  and  C_6
REMARK    6  A    between atoms: C_9  and  C_12
REMARK    7  A    between atoms: C_12  and  O_14
REMARK    8  A    between atoms: O_14  and  C_15
REMARK    9  A    between atoms: C_22  and  N_36
REMARK   10  A    between atoms: C_23  and  C_34
REMARK   11  A    between atoms: C_24  and  C_26
REMARK                            x       y       z     vdW  Elec       q    Type
REMARK                         _______ _______ _______ _____ _____    ______ ____
ROOT
ATOM      1  C   UNL     1      -7.694  -6.404  -0.280  0.00  0.00    +0.135 A 
ATOM      2  C   UNL     1      -8.781  -5.542  -0.244  0.00  0.00    +0.047 A 
ATOM      3  C   UNL     1     -10.065  -6.049  -0.272  0.00  0.00    +0.012 A 
ATOM      4  C   UNL     1     -10.275  -7.415  -0.336  0.00  0.00    +0.008 A 
ATOM      5  C   UNL     1      -9.193  -8.281  -0.371  0.00  0.00    +0.138 A 
ATOM      6  C   UNL     1      -7.901  -7.773  -0.348  0.00  0.00    +0.093 A 
ATOM      7  O   UNL     1      -9.378  -9.623  -0.433  0.00  0.00    -0.441 OA
ATOM      8  C   UNL     1     -10.560 -10.153  -0.079  0.00  0.00    +0.199 C 
ATOM      9  C   UNL     1     -11.692  -9.412  -0.026  0.00  0.00    +0.098 C 
ATOM     10  C   UNL     1     -11.683  -7.948  -0.365  0.00  0.00    +0.099 C 
ENDROOT
BRANCH  10  11
ATOM     11  C   UNL     1     -12.262  -7.750  -1.743  0.00  0.00    -0.016 A 
ATOM     12  C   UNL     1     -11.660  -8.343  -2.837  0.00  0.00    +0.007 A 
ATOM     13  C   UNL     1     -12.191  -8.162  -4.100  0.00  0.00    +0.020 A 
ATOM     14  C   UNL     1     -13.325  -7.388  -4.270  0.00  0.00    +0.042 A 
ATOM     15  C   UNL     1     -13.928  -6.795  -3.176  0.00  0.00    +0.040 A 
ATOM     16  C   UNL     1     -13.399  -6.980  -1.911  0.00  0.00    +0.046 A 
ATOM     17 CL   UNL     1     -14.158  -6.241  -0.536  0.00  0.00    -0.083 Cl
ATOM     18 CL   UNL     1     -13.991  -7.161  -5.857  0.00  0.00    -0.083 Cl
ENDBRANCH  10  11
BRANCH   8  19
ATOM     19  N   UNL     1     -10.623 -11.487   0.239  0.00  0.00    -0.328 N 
ATOM     20  H   UNL     1      -9.821 -12.032   0.206  0.00  0.00    +0.145 HD
ATOM     21  H   UNL     1     -11.469 -11.885   0.496  0.00  0.00    +0.145 HD
ENDBRANCH   8  19
BRANCH   9  22
ATOM     22  C   UNL     1     -12.922 -10.035   0.359  0.00  0.00    +0.101 C 
ATOM     23  N   UNL     1     -13.898 -10.530   0.665  0.00  0.00    -0.191 NA
ENDBRANCH   9  22
BRANCH   1  24
ATOM     24  O   UNL     1      -6.430  -5.907  -0.252  0.00  0.00    -0.422 OA
BRANCH  24  25
ATOM     25  C   UNL     1      -5.740  -5.868  -1.409  0.00  0.00    +0.344 C 
ATOM     26  O   UNL     1      -6.217  -6.351  -2.417  0.00  0.00    -0.245 OA
BRANCH  25  30
ATOM     27  C   UNL     1      -1.903  -4.055  -1.534  0.00  0.00    +0.121 A 
ATOM     28  C   UNL     1      -2.447  -4.608  -2.688  0.00  0.00    +0.046 A 
ATOM     29  C   UNL     1      -3.691  -5.197  -2.652  0.00  0.00    +0.018 A 
ATOM     30  C   UNL     1      -4.407  -5.239  -1.453  0.00  0.00    +0.060 A 
ATOM     31  C   UNL     1      -3.857  -4.682  -0.294  0.00  0.00    +0.018 A 
ATOM     32  C   UNL     1      -2.610  -4.100  -0.338  0.00  0.00    +0.046 A 
BRANCH  27  33
ATOM     33  O   UNL     1      -0.677  -3.476  -1.574  0.00  0.00    -0.492 OA
BRANCH  33  34
ATOM     34  C   UNL     1      -0.005  -3.465  -2.835  0.00  0.00    +0.232 C 
BRANCH  34  36
ATOM     35  C   UNL     1       2.123  -2.873  -4.002  0.00  0.00    +0.010 C 
ATOM     36  C   UNL     1       1.352  -2.775  -2.684  0.00  0.00    +0.020 C 
ATOM     37  C   UNL     1       1.139  -1.303  -2.325  0.00  0.00    +0.010 C 
ENDBRANCH  34  36
ENDBRANCH  33  34
ENDBRANCH  27  33
ENDBRANCH  25  30
ENDBRANCH  24  25
ENDBRANCH   1  24
TORSDOF 9
