REMARK  Name = ZINC51001918
REMARK  7 active torsions:
REMARK  status: ('A' for Active; 'I' for Inactive)
REMARK    1  A    between atoms: C_1  and  C_2
REMARK    2  A    between atoms: C_2  and  C_3
REMARK    3  A    between atoms: C_2  and  C_4
REMARK    4  A    between atoms: C_2  and  C_5
REMARK    5  A    between atoms: C_7  and  C_14
REMARK    6  A    between atoms: N_9  and  C_10
REMARK    7  A    between atoms: C_10  and  C_11
REMARK                            x       y       z     vdW  Elec       q    Type
REMARK                         _______ _______ _______ _____ _____    ______ ____
ROOT
ATOM      1  C   UNL     1       0.590  -0.470  -1.306  0.00  0.00    +0.083 C 
ATOM      2  N   UNL     1      -0.073  -1.143  -2.178  0.00  0.00    -0.362 N 
ATOM      3  C   UNL     1       0.834  -1.474  -3.288  0.00  0.00    +0.175 C 
ATOM      4  C   UNL     1       2.155  -0.854  -2.875  0.00  0.00    +0.101 C 
ATOM      5  N   UNL     1       1.894  -0.263  -1.657  0.00  0.00    -0.266 N 
ATOM      6  N   UNL     1       3.274  -0.871  -3.522  0.00  0.00    -0.388 N 
ATOM      7  H   UNL     1       3.331  -1.320  -4.380  0.00  0.00    +0.157 HD
ATOM      8  H   UNL     1       4.056  -0.434  -3.150  0.00  0.00    +0.157 HD
ATOM      9  H   UNL     1      -1.009  -1.389  -2.116  0.00  0.00    +0.162 HD
ENDROOT
BRANCH   3  10
ATOM     10  C   UNL     1       0.972  -2.968  -3.430  0.00  0.00    +0.017 A 
ATOM     11  C   UNL     1       0.618  -3.797  -2.383  0.00  0.00    +0.012 A 
ATOM     12  C   UNL     1       0.744  -5.167  -2.512  0.00  0.00    +0.039 A 
ATOM     13  C   UNL     1       1.226  -5.711  -3.691  0.00  0.00    +0.126 A 
ATOM     14  C   UNL     1       1.581  -4.881  -4.740  0.00  0.00    +0.077 A 
ATOM     15  C   UNL     1       1.449  -3.509  -4.612  0.00  0.00    +0.132 A 
ATOM     16  F   UNL     1       1.791  -2.699  -5.638  0.00  0.00    -0.205 F 
ATOM     17  F   UNL     1       1.350  -7.050  -3.817  0.00  0.00    -0.205 F 
ENDBRANCH   3  10
BRANCH   1  19
ATOM     18  C   UNL     1      -0.063   1.574  -0.063  0.00  0.00    +0.018 C 
ATOM     19  C   UNL     1      -0.013   0.045  -0.025  0.00  0.00    +0.016 C 
ATOM     20  C   UNL     1       0.842  -0.408   1.161  0.00  0.00    +0.018 C 
ATOM     21  C   UNL     1      -1.432  -0.507   0.129  0.00  0.00    +0.018 C 
ENDBRANCH   1  19
BRANCH   5  22
ATOM     22  C   UNL     1       2.873   0.475  -0.855  0.00  0.00    +0.201 C 
BRANCH  22  23
ATOM     23  C   UNL     1       3.665  -0.472  -0.054  0.00  0.00    -0.086 C 
ATOM     24  C   UNL     1       4.296  -1.228   0.585  0.00  0.00    +0.005 C 
ENDBRANCH  22  23
ENDBRANCH   5  22
TORSDOF 4
