REMARK  Name = ZINC03345998
REMARK  4 active torsions:
REMARK  status: ('A' for Active; 'I' for Inactive)
REMARK    1  A    between atoms: C_12  and  C_14
REMARK    2  A    between atoms: C_14  and  O_15
REMARK    3  A    between atoms: O_15  and  C_16
REMARK    4  A    between atoms: C_16  and  C_18
REMARK                            x       y       z     vdW  Elec       q    Type
REMARK                         _______ _______ _______ _____ _____    ______ ____
ROOT
ATOM      1  C   UNL     1       1.123  -2.113  -0.019  0.00  0.00    +0.328 C 
ENDROOT
BRANCH   1  13
ATOM      2  C   UNL     1       6.539  -5.669  -0.084  0.00  0.00    +0.002 A 
ATOM      3  C   UNL     1       6.325  -4.433  -0.667  0.00  0.00    +0.002 A 
ATOM      4  C   UNL     1       5.061  -3.869  -0.659  0.00  0.00    +0.025 A 
ATOM      5  C   UNL     1       4.012  -4.547  -0.065  0.00  0.00    +0.058 A 
ATOM      6  C   UNL     1       4.223  -5.793   0.533  0.00  0.00    +0.055 A 
ATOM      7  C   UNL     1       5.492  -6.351   0.524  0.00  0.00    +0.025 A 
ATOM      8  N   UNL     1       3.151  -6.464   1.130  0.00  0.00    -0.283 N 
ATOM      9  C   UNL     1       1.882  -6.073   0.905  0.00  0.00    +0.235 C 
ATOM     10  O   UNL     1       0.971  -6.642   1.468  0.00  0.00    -0.274 OA
ATOM     11  C   UNL     1       1.581  -4.937  -0.039  0.00  0.00    +0.209 C 
ATOM     12  N   UNL     1       2.718  -4.004  -0.044  0.00  0.00    -0.258 N 
ATOM     13  C   UNL     1       2.523  -2.670  -0.035  0.00  0.00    +0.258 C 
ATOM     14  O   UNL     1       3.475  -1.919  -0.040  0.00  0.00    -0.271 OA
ATOM     15  H   UNL     1       3.323  -7.220   1.713  0.00  0.00    +0.155 HD
ENDBRANCH   1  13
BRANCH   1  16
ATOM     16  O   UNL     1       1.179  -0.662  -0.012  0.00  0.00    -0.451 OA
BRANCH  16  17
ATOM     17  C   UNL     1       0.002  -0.004   0.002  0.00  0.00    +0.348 C 
ATOM     18  O   UNL     1      -1.043  -0.626   0.008  0.00  0.00    -0.244 OA
BRANCH  17  19
ATOM     19  C   UNL     1      -0.018   1.462   0.010  0.00  0.00    +0.116 A 
ATOM     20  C   UNL     1      -1.094   2.296   0.019  0.00  0.00    +0.070 A 
ATOM     21  C   UNL     1      -0.901   3.690   0.030  0.00  0.00    +0.008 A 
ATOM     22  C   UNL     1      -1.884   4.713   0.044  0.00  0.00    +0.012 A 
ATOM     23  C   UNL     1      -1.525   6.022   0.048  0.00  0.00    +0.021 A 
ATOM     24  C   UNL     1      -0.190   6.412   0.037  0.00  0.00    +0.042 A 
ATOM     25  C   UNL     1       0.799   5.448   0.023  0.00  0.00    +0.035 A 
ATOM     26  C   UNL     1       0.449   4.115   0.019  0.00  0.00    +0.023 A 
ATOM     27  S   UNL     1       1.363   2.593   0.003  0.00  0.00    -0.080 S 
ATOM     28 CL   UNL     1       0.229   8.096   0.041  0.00  0.00    -0.084 Cl
ATOM     29 CL   UNL     1      -2.702   1.641   0.021  0.00  0.00    -0.082 Cl
ENDBRANCH  17  19
ENDBRANCH  16  17
ENDBRANCH   1  16
TORSDOF 4
