REMARK  Name = ZINC19853743
REMARK  9 active torsions:
REMARK  status: ('A' for Active; 'I' for Inactive)
REMARK    1  A    between atoms: C_1  and  C_2
REMARK    2  A    between atoms: C_3  and  C_30
REMARK    3  A    between atoms: C_4  and  N_29
REMARK    4  A    between atoms: C_9  and  C_10
REMARK    5  A    between atoms: C_13  and  O_16
REMARK    6  A    between atoms: O_16  and  C_17
REMARK    7  A    between atoms: C_17  and  C_18
REMARK    8  A    between atoms: C_24  and  C_28
REMARK    9  A    between atoms: C_25  and  C_26
REMARK                            x       y       z     vdW  Elec       q    Type
REMARK                         _______ _______ _______ _____ _____    ______ ____
ROOT
ATOM      1  C   UNL     1       7.040   4.800   0.034  0.00  0.00    +0.046 C 
ATOM      2  C   UNL     1       7.878   5.742   0.859  0.00  0.00    -0.020 A 
ATOM      3  C   UNL     1       8.171   5.459   2.197  0.00  0.00    +0.095 A 
ATOM      4  C   UNL     1       8.958   6.366   2.933  0.00  0.00    +0.135 A 
ATOM      5  N   UNL     1       9.419   7.472   2.379  0.00  0.00    -0.230 NA
ATOM      6  C   UNL     1       9.163   7.778   1.109  0.00  0.00    +0.092 A 
ATOM      7  C   UNL     1       8.376   6.919   0.313  0.00  0.00    +0.013 A 
ATOM      8  C   UNL     1       8.284   7.533  -1.027  0.00  0.00    -0.011 C 
ATOM      9  C   UNL     1       7.607   7.016  -2.116  0.00  0.00    +0.016 C 
ATOM     10  C   UNL     1       9.009   8.745  -0.995  0.00  0.00    -0.023 C 
ATOM     11  C   UNL     1       9.546   8.921   0.264  0.00  0.00    +0.081 C 
ATOM     12  C   UNL     1       9.171   9.695  -2.154  0.00  0.00    +0.046 C 
ENDROOT
BRANCH   9  13
ATOM     13  C   UNL     1       6.360   6.277  -1.918  0.00  0.00    -0.024 A 
ATOM     14  C   UNL     1       5.425   6.715  -0.967  0.00  0.00    +0.011 A 
ATOM     15  C   UNL     1       4.263   6.021  -0.787  0.00  0.00    +0.046 A 
ATOM     16  C   UNL     1       4.004   4.883  -1.545  0.00  0.00    +0.121 A 
ATOM     17  C   UNL     1       4.929   4.441  -2.486  0.00  0.00    +0.046 A 
ATOM     18  C   UNL     1       6.093   5.129  -2.679  0.00  0.00    +0.011 A 
BRANCH  16  19
ATOM     19  O   UNL     1       2.848   4.197  -1.362  0.00  0.00    -0.487 OA
BRANCH  19  20
ATOM     20  C   UNL     1       2.645   3.038  -2.172  0.00  0.00    +0.264 C 
BRANCH  20  21
ATOM     21  C   UNL     1       1.317   2.413  -1.831  0.00  0.00    -0.010 A 
ATOM     22  C   UNL     1       0.176   2.801  -2.508  0.00  0.00    +0.007 A 
ATOM     23  C   UNL     1      -1.042   2.228  -2.195  0.00  0.00    +0.000 A 
ATOM     24  C   UNL     1      -1.120   1.269  -1.202  0.00  0.00    +0.000 A 
ATOM     25  C   UNL     1       0.022   0.877  -0.529  0.00  0.00    +0.000 A 
ATOM     26  C   UNL     1       1.240   1.450  -0.842  0.00  0.00    +0.007 A 
ENDBRANCH  20  21
ENDBRANCH  19  20
ENDBRANCH  16  19
ENDBRANCH   9  13
BRANCH   4  27
ATOM     27  N   UNL     1       9.253   6.094   4.259  0.00  0.00    -0.342 N 
ATOM     28  H   UNL     1       9.867   6.797   4.841  0.00  0.00    +0.144 HD
ATOM     29  H   UNL     1       8.873   5.175   4.729  0.00  0.00    +0.144 HD
ENDBRANCH   4  27
BRANCH  11  30
ATOM     30  C   UNL     1      10.345  10.035   0.680  0.00  0.00    +0.102 C 
ATOM     31  N   UNL     1      10.978  10.918   1.010  0.00  0.00    -0.191 NA
ENDBRANCH  11  30
BRANCH   3  32
ATOM     32  C   UNL     1       7.678   4.263   2.811  0.00  0.00    +0.103 C 
ATOM     33  N   UNL     1       7.286   3.313   3.297  0.00  0.00    -0.191 NA
ENDBRANCH   3  32
TORSDOF 7
