REMARK  Name = ZINC14159966
REMARK  7 active torsions:
REMARK  status: ('A' for Active; 'I' for Inactive)
REMARK    1  A    between atoms: C_1  and  C_2
REMARK    2  A    between atoms: C_6  and  N_9
REMARK    3  A    between atoms: C_7  and  C_8
REMARK    4  A    between atoms: N_9  and  C_10
REMARK    5  A    between atoms: C_10  and  N_12
REMARK    6  A    between atoms: C_17  and  C_22
REMARK    7  A    between atoms: C_19  and  C_21
REMARK                            x       y       z     vdW  Elec       q    Type
REMARK                         _______ _______ _______ _____ _____    ______ ____
ROOT
ATOM      1  N   UNL     1       0.949   2.642  -1.828  0.00  0.00    -0.163 NA
ATOM      2  C   UNL     1      -0.062   1.921  -2.280  0.00  0.00    +0.181 C 
ATOM      3  N   UNL     1      -0.882   2.425  -3.253  0.00  0.00    -0.258 N 
ATOM      4  C   UNL     1      -0.651   3.695  -3.766  0.00  0.00    +0.222 A 
ATOM      5  N   UNL     1       0.363   4.406  -3.298  0.00  0.00    -0.219 NA
ATOM      6  C   UNL     1       0.614   5.617  -3.768  0.00  0.00    +0.044 A 
ATOM      7  C   UNL     1      -0.206   6.142  -4.754  0.00  0.00    +0.046 A 
ATOM      8  C   UNL     1      -1.262   5.373  -5.217  0.00  0.00    +0.044 A 
ATOM      9  N   UNL     1      -1.454   4.168  -4.707  0.00  0.00    -0.219 NA
ATOM     10  C   UNL     1      -2.180   5.903  -6.288  0.00  0.00    +0.066 C 
ATOM     11  C   UNL     1       1.775   6.416  -3.235  0.00  0.00    +0.066 C 
ATOM     12  N   UNL     1      -0.290   0.673  -1.776  0.00  0.00    -0.300 N 
ATOM     13  C   UNL     1      -1.657   0.166  -1.571  0.00  0.00    +0.112 C 
ATOM     14  C   UNL     1      -1.860  -1.028  -2.503  0.00  0.00    +0.054 C 
ATOM     15  C   UNL     1      -0.696  -1.980  -2.413  0.00  0.00    -0.041 A 
ATOM     16  C   UNL     1      -0.894  -3.283  -2.854  0.00  0.00    +0.004 A 
ATOM     17  C   UNL     1       0.133  -4.203  -2.811  0.00  0.00    +0.000 A 
ATOM     18  C   UNL     1       1.372  -3.828  -2.325  0.00  0.00    +0.000 A 
ATOM     19  C   UNL     1       1.571  -2.536  -1.883  0.00  0.00    +0.005 A 
ATOM     20  C   UNL     1       0.536  -1.610  -1.923  0.00  0.00    -0.027 A 
ATOM     21  C   UNL     1       0.819  -0.218  -1.416  0.00  0.00    +0.143 C 
ATOM     22  H   UNL     1      -1.625   1.896  -3.584  0.00  0.00    +0.157 HD
ENDROOT
BRANCH   1  23
ATOM     23  C   UNL     1       1.663   2.212  -0.777  0.00  0.00    +0.161 C 
ATOM     24  S   UNL     1       0.867   1.755   0.668  0.00  0.00    -0.016 S 
BRANCH  23  25
ATOM     25  N   UNL     1       3.006   2.140  -0.859  0.00  0.00    -0.295 N 
ATOM     26  H   UNL     1       3.452   2.330  -1.699  0.00  0.00    +0.154 HD
BRANCH  25  32
ATOM     27  C   UNL     1       6.754  -0.349   1.122  0.00  0.00    +0.044 C 
ATOM     28  C   UNL     1       5.579   0.585   1.256  0.00  0.00    -0.046 A 
ATOM     29  C   UNL     1       5.244   1.099   2.496  0.00  0.00    +0.004 A 
ATOM     30  C   UNL     1       4.167   1.956   2.624  0.00  0.00    +0.002 A 
ATOM     31  C   UNL     1       3.423   2.304   1.514  0.00  0.00    +0.023 A 
ATOM     32  C   UNL     1       3.757   1.790   0.267  0.00  0.00    +0.036 A 
ATOM     33  C   UNL     1       4.836   0.924   0.143  0.00  0.00    -0.026 A 
ATOM     34  C   UNL     1       5.198   0.359  -1.206  0.00  0.00    +0.046 C 
ENDBRANCH  25  32
ENDBRANCH  23  25
ENDBRANCH   1  23
TORSDOF 3
