REMARK  Name = ZINC20527303
REMARK  7 active torsions:
REMARK  status: ('A' for Active; 'I' for Inactive)
REMARK    1  A    between atoms: C_4  and  C_7
REMARK    2  A    between atoms: C_7  and  S_8
REMARK    3  A    between atoms: S_8  and  C_9
REMARK    4  A    between atoms: N_13  and  N_14
REMARK    5  A    between atoms: N_15  and  N_16
REMARK    6  A    between atoms: C_17  and  C_18
REMARK    7  A    between atoms: C_23  and  O_24
REMARK                            x       y       z     vdW  Elec       q    Type
REMARK                         _______ _______ _______ _____ _____    ______ ____
ROOT
ATOM      1  C   UNL     1       3.727   5.909  -0.002  0.00  0.00    +0.210 A 
ATOM      2  N   UNL     1       4.399   4.782  -0.014  0.00  0.00    -0.119 NA
ATOM      3  N   UNL     1       3.476   3.728  -0.005  0.00  0.00    -0.109 NA
ATOM      4  C   UNL     1       2.271   4.245   0.003  0.00  0.00    +0.254 A 
ATOM      5  N   UNL     1       2.395   5.606   0.009  0.00  0.00    -0.211 N 
ATOM      6  N   UNL     1       1.079   3.535   0.011  0.00  0.00    -0.204 N 
ATOM      7  H   UNL     1       0.119   4.072   0.023  0.00  0.00    +0.177 HD
ENDROOT
BRANCH   5   8
ATOM      8  N   UNL     1       1.368   6.506   0.024  0.00  0.00    -0.294 N 
ATOM      9  H   UNL     1       0.326   6.152   0.032  0.00  0.00    +0.163 HD
ATOM     10  H   UNL     1       1.582   7.585   0.028  0.00  0.00    +0.163 HD
ENDBRANCH   5   8
BRANCH   6  11
ATOM     11  N   UNL     1       1.098   2.134   0.003  0.00  0.00    -0.187 NA
ATOM     12  C   UNL     1      -0.018   1.469   0.010  0.00  0.00    +0.142 C 
BRANCH  12  13
ATOM     13  C   UNL     1       0.002  -0.004   0.002  0.00  0.00    +0.036 A 
ATOM     14  C   UNL     1      -1.196  -0.723   0.015  0.00  0.00    +0.013 A 
ATOM     15  C   UNL     1      -1.170  -2.102   0.002  0.00  0.00    +0.001 A 
ATOM     16  C   UNL     1       0.038  -2.777  -0.013  0.00  0.00    +0.004 A 
ATOM     17  C   UNL     1       1.231  -2.077  -0.021  0.00  0.00    +0.046 A 
ATOM     18  C   UNL     1       1.223  -0.692  -0.013  0.00  0.00    +0.125 A 
BRANCH  18  19
ATOM     19  O   UNL     1       2.394  -0.004  -0.021  0.00  0.00    -0.506 OA
ATOM     20  H   UNL     1       3.351  -0.546  -0.033  0.00  0.00    +0.292 HD
ENDBRANCH  18  19
ENDBRANCH  12  13
ENDBRANCH   6  11
BRANCH   1  21
ATOM     21  S   UNL     1       4.422   7.528  -0.000  0.00  0.00    -0.080 S 
BRANCH  21  22
ATOM     22  C   UNL     1       6.212   7.237  -0.019  0.00  0.00    +0.112 C 
BRANCH  22  26
ATOM     23  C   UNL     1       8.263  10.985  -0.019  0.00  0.00    +0.000 A 
ATOM     24  C   UNL     1       7.943  10.372   1.178  0.00  0.00    +0.000 A 
ATOM     25  C   UNL     1       7.279   9.160   1.178  0.00  0.00    +0.004 A 
ATOM     26  C   UNL     1       6.936   8.559  -0.019  0.00  0.00    -0.037 A 
ATOM     27  C   UNL     1       7.261   9.169  -1.216  0.00  0.00    +0.004 A 
ATOM     28  C   UNL     1       7.920  10.384  -1.216  0.00  0.00    +0.000 A 
ENDBRANCH  22  26
ENDBRANCH  21  22
ENDBRANCH   1  21
TORSDOF 7
