REMARK  Name = ZINC41328672
REMARK  10 active torsions:
REMARK  status: ('A' for Active; 'I' for Inactive)
REMARK    1  A    between atoms: C_1  and  C_2
REMARK    2  A    between atoms: C_2  and  C_3
REMARK    3  A    between atoms: C_2  and  C_4
REMARK    4  A    between atoms: C_4  and  C_6
REMARK    5  A    between atoms: C_4  and  N_23
REMARK    6  A    between atoms: C_6  and  N_7
REMARK    7  A    between atoms: C_8  and  C_10
REMARK    8  A    between atoms: N_12  and  C_13
REMARK    9  A    between atoms: C_18  and  C_19
REMARK   10  A    between atoms: C_19  and  C_20
REMARK                            x       y       z     vdW  Elec       q    Type
REMARK                         _______ _______ _______ _____ _____    ______ ____
ROOT
ATOM      1  N   UNL     1      -3.436  -0.131  -1.344  0.00  0.00    -0.309 N 
ATOM      2  C   UNL     1      -4.207   0.094  -2.426  0.00  0.00    +0.299 C 
ATOM      3  O   UNL     1      -3.698   0.436  -3.474  0.00  0.00    -0.265 OA
ATOM      4  H   UNL     1      -3.842  -0.405  -0.507  0.00  0.00    +0.149 HD
ENDROOT
BRANCH   2   5
ATOM      5  C   UNL     1      -5.688  -0.077  -2.336  0.00  0.00    +0.303 C 
ATOM      6  O   UNL     1      -6.197  -0.419  -1.289  0.00  0.00    -0.265 OA
ATOM      7  N   UNL     1      -6.460   0.148  -3.418  0.00  0.00    -0.277 N 
ATOM      8  H   UNL     1      -6.049   0.364  -4.270  0.00  0.00    +0.155 HD
BRANCH   7   9
ATOM      9  C   UNL     1      -7.851   0.071  -3.312  0.00  0.00    +0.037 A 
ATOM     10  C   UNL     1      -8.431  -0.728  -2.336  0.00  0.00    +0.023 A 
ATOM     11  C   UNL     1      -9.807  -0.802  -2.234  0.00  0.00    +0.002 A 
ATOM     12  C   UNL     1     -10.605  -0.082  -3.103  0.00  0.00    +0.000 A 
ATOM     13  C   UNL     1     -10.031   0.714  -4.077  0.00  0.00    +0.006 A 
ATOM     14  C   UNL     1      -8.656   0.798  -4.180  0.00  0.00    -0.017 A 
BRANCH  14  15
ATOM     15  C   UNL     1      -8.030   1.671  -5.237  0.00  0.00    +0.132 C 
BRANCH  15  16
ATOM     16  C   UNL     1      -7.717   0.841  -6.455  0.00  0.00    +0.215 C 
ATOM     17  O   UNL     1      -7.976  -0.344  -6.463  0.00  0.00    -0.276 OA
ATOM     18  N   UNL     1      -7.149   1.414  -7.534  0.00  0.00    -0.329 N 
ATOM     19  H   UNL     1      -6.941   2.362  -7.527  0.00  0.00    +0.145 HD
ATOM     20  H   UNL     1      -6.947   0.879  -8.317  0.00  0.00    +0.145 HD
ENDBRANCH  15  16
ENDBRANCH  14  15
ENDBRANCH   7   9
ENDBRANCH   2   5
BRANCH   1  21
ATOM     21  C   UNL     1      -1.983   0.037  -1.433  0.00  0.00    +0.089 C 
BRANCH  21  22
ATOM     22  C   UNL     1      -1.335  -0.431  -0.128  0.00  0.00    -0.049 C 
BRANCH  22  23
ATOM     23  N   UNL     1      -1.427  -1.894  -0.033  0.00  0.00    +0.383 N 
ATOM     24  C   UNL     1      -0.783  -2.487  -1.222  0.00  0.00    -0.078 C 
ATOM     25  C   UNL     1      -0.336  -3.884  -0.871  0.00  0.00    -0.019 C 
ATOM     26  C   UNL     1      -1.375  -4.934  -1.304  0.00  0.00    -0.002 C 
ATOM     27  C   UNL     1      -2.817  -4.462  -1.026  0.00  0.00    -0.002 C 
ATOM     28  C   UNL     1      -2.946  -3.770   0.307  0.00  0.00    -0.019 C 
ATOM     29  C   UNL     1      -2.769  -2.251   0.105  0.00  0.00    -0.078 C 
ATOM     30  H   UNL     1      -0.925  -2.197   0.789  0.00  0.00    -0.081 HD
ENDBRANCH  22  23
BRANCH  22  32
ATOM     31  C   UNL     1       0.228   1.517  -0.072  0.00  0.00    +0.005 C 
ATOM     32  C   UNL     1       0.136  -0.010  -0.109  0.00  0.00    -0.029 C 
ATOM     33  C   UNL     1       0.817  -0.592   1.131  0.00  0.00    +0.005 C 
ENDBRANCH  22  32
ENDBRANCH  21  22
ENDBRANCH   1  21
TORSDOF 8
