REMARK  Name = ZINC07185905
REMARK  7 active torsions:
REMARK  status: ('A' for Active; 'I' for Inactive)
REMARK    1  A    between atoms: C_1  and  C_2
REMARK    2  A    between atoms: C_2  and  C_3
REMARK    3  A    between atoms: C_3  and  C_4
REMARK    4  A    between atoms: C_3  and  C_5
REMARK    5  A    between atoms: C_3  and  N_6
REMARK    6  A    between atoms: C_7  and  C_9
REMARK    7  A    between atoms: C_9  and  N_10
REMARK                            x       y       z     vdW  Elec       q    Type
REMARK                         _______ _______ _______ _____ _____    ______ ____
ROOT
ATOM      1  N   UNL     1      -3.608   1.789   0.029  0.00  0.00    -0.215 N 
ATOM      2  C   UNL     1      -4.189   2.264   1.150  0.00  0.00    +0.251 C 
ATOM      3  O   UNL     1      -3.891   2.006   2.296  0.00  0.00    -0.272 OA
ATOM      4  C   UNL     1      -5.290   3.187   0.676  0.00  0.00    +0.138 C 
ATOM      5  C   UNL     1      -6.643   2.676   1.155  0.00  0.00    +0.040 C 
ATOM      6  C   UNL     1      -7.707   3.729   0.821  0.00  0.00    +0.008 C 
ATOM      7  C   UNL     1      -7.473   4.951   1.707  0.00  0.00    +0.035 C 
ATOM      8  C   UNL     1      -6.040   5.407   1.616  0.00  0.00    -0.042 A 
ATOM      9  C   UNL     1      -5.034   4.591   1.147  0.00  0.00    -0.012 A 
ATOM     10  C   UNL     1      -3.730   5.067   1.099  0.00  0.00    +0.006 A 
ATOM     11  C   UNL     1      -3.436   6.350   1.513  0.00  0.00    +0.000 A 
ATOM     12  C   UNL     1      -4.447   7.169   1.980  0.00  0.00    +0.000 A 
ATOM     13  C   UNL     1      -5.742   6.698   2.031  0.00  0.00    +0.004 A 
ATOM     14  N   UNL     1      -5.205   3.116  -0.789  0.00  0.00    -0.281 N 
ATOM     15  C   UNL     1      -4.192   2.276  -1.073  0.00  0.00    +0.310 C 
ATOM     16  O   UNL     1      -3.847   1.991  -2.203  0.00  0.00    -0.252 OA
ATOM     17  H   UNL     1      -5.768   3.584  -1.426  0.00  0.00    +0.152 HD
ENDROOT
BRANCH   1  18
ATOM     18  C   UNL     1      -2.482   0.853   0.018  0.00  0.00    +0.213 C 
BRANCH  18  20
ATOM     19  N   UNL     1      -0.011   0.966   0.007  0.00  0.00    -0.309 N 
ATOM     20  C   UNL     1      -1.187   1.624   0.017  0.00  0.00    +0.231 C 
ATOM     21  O   UNL     1      -1.204   2.837   0.023  0.00  0.00    -0.274 OA
ATOM     22  H   UNL     1       0.002  -0.004   0.002  0.00  0.00    +0.149 HD
BRANCH  19  23
ATOM     23  C   UNL     1       1.248   1.716  -0.001  0.00  0.00    +0.029 C 
ATOM     24  C   UNL     1       1.305   2.603  -1.246  0.00  0.00    +0.031 C 
ATOM     25  C   UNL     1       1.329   2.589   1.253  0.00  0.00    +0.031 C 
BRANCH  23  27
ATOM     26  C   UNL     1       3.738   1.520  -0.025  0.00  0.00    +0.006 C 
ATOM     27  C   UNL     1       2.424   0.737  -0.017  0.00  0.00    +0.022 C 
ENDBRANCH  23  27
ENDBRANCH  19  23
ENDBRANCH  18  20
ENDBRANCH   1  18
TORSDOF 4
