REMARK  Name = ZINC45008613
REMARK  3 active torsions:
REMARK  status: ('A' for Active; 'I' for Inactive)
REMARK    1  A    between atoms: C_1  and  C_2
REMARK    2  A    between atoms: C_4  and  O_19
REMARK    3  A    between atoms: C_10  and  C_11
REMARK                            x       y       z     vdW  Elec       q    Type
REMARK                         _______ _______ _______ _____ _____    ______ ____
ROOT
ATOM      1  C   UNL     1      -0.079   1.500   0.006  0.00  0.00    +0.044 C 
ATOM      2  C   UNL     1      -0.195  -0.003   0.019  0.00  0.00    -0.043 A 
ATOM      3  C   UNL     1      -0.568  -0.670  -1.134  0.00  0.00    +0.049 A 
ATOM      4  C   UNL     1      -0.675  -2.051  -1.131  0.00  0.00    +0.132 A 
ATOM      5  C   UNL     1      -0.405  -2.762   0.043  0.00  0.00    +0.109 A 
ATOM      6  C   UNL     1      -0.027  -2.083   1.212  0.00  0.00    +0.143 A 
ATOM      7  C   UNL     1       0.079  -0.697   1.180  0.00  0.00    +0.050 A 
ATOM      8  O   UNL     1       0.179  -2.972   2.208  0.00  0.00    -0.451 OA
ATOM      9  C   UNL     1      -0.035  -4.245   1.801  0.00  0.00    +0.176 C 
ATOM     10  C   UNL     1       0.088  -5.361   2.561  0.00  0.00    +0.058 C 
ATOM     11  C   UNL     1      -0.425  -4.196   0.382  0.00  0.00    +0.235 C 
ATOM     12  O   UNL     1      -0.701  -5.131  -0.348  0.00  0.00    -0.283 OA
ENDROOT
BRANCH  10  13
ATOM     13  C   UNL     1      -0.008  -6.689   1.937  0.00  0.00    -0.021 A 
ATOM     14  C   UNL     1      -0.697  -7.721   2.584  0.00  0.00    +0.008 A 
ATOM     15  C   UNL     1      -0.783  -8.963   1.992  0.00  0.00    +0.001 A 
ATOM     16  C   UNL     1      -0.190  -9.191   0.762  0.00  0.00    +0.000 A 
ATOM     17  C   UNL     1       0.493  -8.175   0.117  0.00  0.00    +0.001 A 
ATOM     18  C   UNL     1       0.584  -6.925   0.692  0.00  0.00    +0.008 A 
ENDBRANCH  10  13
BRANCH   4  19
ATOM     19  O   UNL     1      -1.041  -2.710  -2.260  0.00  0.00    -0.506 OA
ATOM     20  H   UNL     1      -0.299  -2.968  -2.823  0.00  0.00    +0.292 HD
ENDBRANCH   4  19
TORSDOF 2
