REMARK  Name = ZINC36486623
REMARK  13 active torsions:
REMARK  status: ('A' for Active; 'I' for Inactive)
REMARK    1  A    between atoms: C_1  and  C_2
REMARK    2  A    between atoms: C_2  and  C_3
REMARK    3  A    between atoms: C_3  and  C_4
REMARK    4  A    between atoms: C_4  and  N_5
REMARK    5  A    between atoms: C_6  and  C_8
REMARK    6  A    between atoms: C_8  and  C_10
REMARK    7  A    between atoms: C_8  and  N_19
REMARK    8  A    between atoms: C_11  and  O_18
REMARK    9  A    between atoms: C_13  and  O_17
REMARK   10  A    between atoms: C_15  and  O_16
REMARK   11  A    between atoms: N_19  and  C_20
REMARK   12  A    between atoms: C_27  and  C_29
REMARK   13  A    between atoms: C_29  and  C_30
REMARK                            x       y       z     vdW  Elec       q    Type
REMARK                         _______ _______ _______ _____ _____    ______ ____
ROOT
ATOM      1  C   UNL     1      -4.158  -4.077  -0.110  0.00  0.00    +0.204 C 
ENDROOT
BRANCH   1   2
ATOM      2  C   UNL     1      -5.335  -3.716  -0.978  0.00  0.00    +0.065 A 
ATOM      3  C   UNL     1      -5.599  -4.446  -2.127  0.00  0.00    +0.129 A 
ATOM      4  C   UNL     1      -6.682  -4.113  -2.926  0.00  0.00    +0.091 A 
ATOM      5  C   UNL     1      -7.503  -3.052  -2.576  0.00  0.00    +0.124 A 
ATOM      6  C   UNL     1      -7.240  -2.323  -1.426  0.00  0.00    +0.091 A 
ATOM      7  C   UNL     1      -6.159  -2.658  -0.624  0.00  0.00    +0.129 A 
BRANCH   7   8
ATOM      8  O   UNL     1      -5.904  -1.946   0.505  0.00  0.00    -0.506 OA
ATOM      9  H   UNL     1      -5.320  -1.188   0.369  0.00  0.00    +0.292 HD
ENDBRANCH   7   8
BRANCH   5  10
ATOM     10  O   UNL     1      -8.564  -2.726  -3.359  0.00  0.00    -0.507 OA
ATOM     11  H   UNL     1      -9.383  -3.181  -3.121  0.00  0.00    +0.292 HD
ENDBRANCH   5  10
BRANCH   3  12
ATOM     12  O   UNL     1      -4.795  -5.486  -2.471  0.00  0.00    -0.506 OA
ATOM     13  H   UNL     1      -5.111  -6.346  -2.164  0.00  0.00    +0.292 HD
ENDBRANCH   3  12
ENDBRANCH   1   2
BRANCH   1  15
ATOM     14  N   UNL     1      -2.260  -2.531  -0.466  0.00  0.00    -0.313 N 
ATOM     15  C   UNL     1      -2.881  -3.679  -0.804  0.00  0.00    +0.239 C 
ATOM     16  O   UNL     1      -2.412  -4.391  -1.666  0.00  0.00    -0.273 OA
ATOM     17  H   UNL     1      -2.635  -1.962   0.224  0.00  0.00    +0.149 HD
BRANCH  14  18
ATOM     18  C   UNL     1      -1.018  -2.144  -1.141  0.00  0.00    +0.104 C 
BRANCH  18  19
ATOM     19  C   UNL     1      -0.524  -0.812  -0.575  0.00  0.00    +0.018 C 
BRANCH  19  21
ATOM     20  C   UNL     1       1.266   0.925  -0.714  0.00  0.00    +0.004 C 
ATOM     21  C   UNL     1       0.772  -0.408  -1.280  0.00  0.00    -0.002 C 
ENDBRANCH  19  21
ENDBRANCH  18  19
ENDBRANCH  14  18
ENDBRANCH   1  15
BRANCH   1  22
ATOM     22  N   UNL     1      -4.153  -5.522   0.131  0.00  0.00    -0.255 N 
ATOM     23  C   UNL     1      -5.289  -6.148   0.496  0.00  0.00    +0.225 C 
ATOM     24  O   UNL     1      -6.339  -5.541   0.509  0.00  0.00    -0.275 OA
BRANCH  22  25
ATOM     25  C   UNL     1      -2.969  -6.252  -0.020  0.00  0.00    +0.039 A 
ATOM     26  C   UNL     1      -1.935  -6.098   0.895  0.00  0.00    +0.023 A 
ATOM     27  C   UNL     1      -0.767  -6.819   0.744  0.00  0.00    +0.003 A 
ATOM     28  C   UNL     1      -0.626  -7.696  -0.316  0.00  0.00    +0.020 A 
ATOM     29  C   UNL     1      -1.654  -7.853  -1.229  0.00  0.00    +0.043 A 
ATOM     30  C   UNL     1      -2.828  -7.137  -1.080  0.00  0.00    +0.043 A 
ATOM     31 CL   UNL     1      -1.472  -8.954  -2.559  0.00  0.00    -0.083 Cl
ENDBRANCH  22  25
BRANCH  23  32
ATOM     32  C   UNL     1      -5.255  -7.602   0.890  0.00  0.00    +0.131 C 
BRANCH  32  33
ATOM     33  C   UNL     1      -6.655  -8.078   1.178  0.00  0.00    -0.035 A 
ATOM     34  C   UNL     1      -7.169  -7.976   2.458  0.00  0.00    +0.008 A 
ATOM     35  C   UNL     1      -8.454  -8.411   2.726  0.00  0.00    +0.050 A 
ATOM     36  C   UNL     1      -9.229  -8.950   1.713  0.00  0.00    +0.166 A 
ATOM     37  C   UNL     1      -8.712  -9.053   0.424  0.00  0.00    +0.166 A 
ATOM     38  C   UNL     1      -7.426  -8.610   0.161  0.00  0.00    +0.053 A 
ATOM     39  O   UNL     1      -9.660  -9.611  -0.384  0.00  0.00    -0.453 OA
ATOM     40  C   UNL     1     -10.612 -10.223   0.506  0.00  0.00    +0.466 C 
ATOM     41  O   UNL     1     -10.502  -9.444   1.712  0.00  0.00    -0.453 OA
ENDBRANCH  32  33
ENDBRANCH  23  32
ENDBRANCH   1  22
TORSDOF 12
