REMARK  Name = ZINC00569419
REMARK  6 active torsions:
REMARK  status: ('A' for Active; 'I' for Inactive)
REMARK    1  A    between atoms: C_3  and  N_11
REMARK    2  A    between atoms: C_6  and  N_7
REMARK    3  A    between atoms: N_7  and  C_8
REMARK    4  A    between atoms: C_8  and  N_10
REMARK    5  A    between atoms: C_12  and  C_13
REMARK    6  A    between atoms: C_18  and  O_19
REMARK                            x       y       z     vdW  Elec       q    Type
REMARK                         _______ _______ _______ _____ _____    ______ ____
ROOT
ATOM      1  C   UNL     1      -0.017   1.370  -0.247  0.00  0.00    +0.025 A 
ATOM      2  C   UNL     1       1.161   2.085  -0.248  0.00  0.00    +0.029 A 
ATOM      3  C   UNL     1       2.371   1.435   0.007  0.00  0.00    +0.064 A 
ATOM      4  C   UNL     1       2.381   0.061   0.263  0.00  0.00    +0.029 A 
ATOM      5  C   UNL     1       1.199  -0.647   0.263  0.00  0.00    +0.025 A 
ATOM      6  C   UNL     1      -0.003   0.004   0.009  0.00  0.00    +0.033 A 
ENDROOT
BRANCH   6   7
ATOM      7  N   UNL     1      -1.200  -0.718   0.010  0.00  0.00    -0.297 N 
ATOM      8  H   UNL     1      -1.361  -1.389   0.692  0.00  0.00    +0.154 HD
BRANCH   7   9
ATOM      9  C   UNL     1      -2.131  -0.481  -0.935  0.00  0.00    +0.132 C 
ATOM     10  S   UNL     1      -1.791   0.599  -2.220  0.00  0.00    -0.019 S 
BRANCH   9  11
ATOM     11  N   UNL     1      -3.329  -1.095  -0.870  0.00  0.00    -0.340 N 
ATOM     12  H   UNL     1      -3.522  -1.707  -0.143  0.00  0.00    +0.144 HD
ATOM     13  H   UNL     1      -3.999  -0.924  -1.551  0.00  0.00    +0.144 HD
ENDBRANCH   9  11
ENDBRANCH   7   9
ENDBRANCH   6   7
BRANCH   3  14
ATOM     14  N   UNL     1       3.543   2.141   0.005  0.00  0.00    -0.255 NA
ATOM     15  C   UNL     1       4.418   1.954   0.954  0.00  0.00    +0.123 C 
BRANCH  15  16
ATOM     16  C   UNL     1       5.677   2.713   0.952  0.00  0.00    +0.036 A 
ATOM     17  C   UNL     1       6.621   2.512   1.964  0.00  0.00    +0.033 A 
ATOM     18  C   UNL     1       7.800   3.227   1.956  0.00  0.00    +0.042 A 
ATOM     19  C   UNL     1       8.054   4.145   0.949  0.00  0.00    +0.023 A 
ATOM     20  C   UNL     1       7.130   4.353  -0.057  0.00  0.00    +0.047 A 
ATOM     21  C   UNL     1       5.942   3.639  -0.068  0.00  0.00    +0.126 A 
ATOM     22 CL   UNL     1       8.971   2.977   3.213  0.00  0.00    -0.084 Cl
BRANCH  21  23
ATOM     23  O   UNL     1       5.036   3.840  -1.059  0.00  0.00    -0.506 OA
ATOM     24  H   UNL     1       4.391   4.534  -0.867  0.00  0.00    +0.292 HD
ENDBRANCH  21  23
ENDBRANCH  15  16
ENDBRANCH   3  14
TORSDOF 6
