REMARK  Name = ZINC13050199
REMARK  7 active torsions:
REMARK  status: ('A' for Active; 'I' for Inactive)
REMARK    1  A    between atoms: C_1  and  C_2
REMARK    2  A    between atoms: C_7  and  N_12
REMARK    3  A    between atoms: C_9  and  C_11
REMARK    4  A    between atoms: C_16  and  C_18
REMARK    5  A    between atoms: C_18  and  O_19
REMARK    6  A    between atoms: O_19  and  C_20
REMARK    7  A    between atoms: C_29  and  C_30
REMARK                            x       y       z     vdW  Elec       q    Type
REMARK                         _______ _______ _______ _____ _____    ______ ____
ROOT
ATOM      1  N   UNL     1       9.425   6.021  -0.061  0.00  0.00    -0.296 N 
ATOM      2  C   UNL     1       8.169   6.511  -0.046  0.00  0.00    +0.306 C 
ATOM      3  O   UNL     1       7.985   7.712  -0.038  0.00  0.00    -0.252 OA
ATOM      4  N   UNL     1       7.117   5.668  -0.040  0.00  0.00    -0.237 N 
ATOM      5  C   UNL     1       5.862   6.157  -0.025  0.00  0.00    +0.258 C 
ATOM      6  O   UNL     1       5.678   7.356  -0.017  0.00  0.00    -0.272 OA
ATOM      7  H   UNL     1       9.572   5.063  -0.068  0.00  0.00    +0.151 HD
ATOM      8  H   UNL     1       7.264   4.709  -0.046  0.00  0.00    +0.159 HD
ENDROOT
BRANCH   1  14
ATOM      9  C   UNL     1      14.180   6.498  -1.326  0.00  0.00    +0.008 C 
ATOM     10  C   UNL     1      12.971   7.196  -0.701  0.00  0.00    -0.009 C 
ATOM     11  C   UNL     1      13.305   7.606   0.735  0.00  0.00    +0.003 C 
ATOM     12  C   UNL     1      12.096   8.304   1.360  0.00  0.00    +0.002 C 
ATOM     13  C   UNL     1      10.902   7.348   1.367  0.00  0.00    +0.022 C 
ATOM     14  C   UNL     1      10.568   6.938  -0.068  0.00  0.00    +0.078 C 
ATOM     15  C   UNL     1      11.777   6.239  -0.694  0.00  0.00    +0.009 C 
ATOM     16  C   UNL     1      12.127   4.994   0.124  0.00  0.00    +0.009 C 
ENDBRANCH   1  14
BRANCH   5  17
ATOM     17  C   UNL     1       4.686   5.215  -0.017  0.00  0.00    +0.325 C 
BRANCH  17  18
ATOM     18  O   UNL     1       3.472   5.968  -0.001  0.00  0.00    -0.482 OA
BRANCH  18  19
ATOM     19  C   UNL     1       2.311   5.265   0.007  0.00  0.00    +0.136 A 
ATOM     20  C   UNL     1       2.347   3.902   0.000  0.00  0.00    +0.055 A 
ATOM     21  C   UNL     1       1.150   3.168   0.008  0.00  0.00    -0.014 A 
ATOM     22  C   UNL     1       1.163   1.762   0.000  0.00  0.00    +0.008 A 
ATOM     23  C   UNL     1      -0.013   1.076   0.008  0.00  0.00    +0.001 A 
ATOM     24  C   UNL     1      -1.235   1.746   0.018  0.00  0.00    +0.001 A 
ATOM     25  C   UNL     1      -1.289   3.105   0.031  0.00  0.00    +0.008 A 
ATOM     26  C   UNL     1      -0.095   3.849   0.024  0.00  0.00    -0.017 A 
ATOM     27  C   UNL     1      -0.117   5.251   0.031  0.00  0.00    +0.027 A 
ATOM     28  C   UNL     1       1.078   5.953   0.023  0.00  0.00    +0.105 A 
BRANCH  28  29
ATOM     29  C   UNL     1       1.062   7.427   0.030  0.00  0.00    +0.390 C 
ATOM     30  O   UNL     1       2.107   8.046   0.023  0.00  0.00    -0.240 OA
ATOM     31  O   UNL     1      -0.112   8.088   0.045  0.00  0.00    -0.240 OA
ENDBRANCH  28  29
ENDBRANCH  18  19
ENDBRANCH  17  18
ENDBRANCH   5  17
TORSDOF 5
