REMARK  Name = ZINC39467228
REMARK  6 active torsions:
REMARK  status: ('A' for Active; 'I' for Inactive)
REMARK    1  A    between atoms: C_1  and  S_2
REMARK    2  A    between atoms: S_2  and  C_3
REMARK    3  A    between atoms: P_12  and  C_28
REMARK    4  A    between atoms: C_20  and  C_21
REMARK    5  A    between atoms: C_26  and  O_27
REMARK    6  A    between atoms: C_33  and  O_34
REMARK                            x       y       z     vdW  Elec       q    Type
REMARK                         _______ _______ _______ _____ _____    ______ ____
ROOT
ATOM      1  C   UNL     1       0.877  -0.427   1.472  0.00  0.00    +0.012 C 
ATOM      2  C   UNL     1       1.332   0.533   2.283  0.00  0.00    -0.008 C 
ATOM      3  C   UNL     1       2.071   0.155   3.544  0.00  0.00    +0.017 C 
ATOM      4  C   UNL     1       3.522  -0.170   3.185  0.00  0.00    -0.003 C 
ATOM      5  C   UNL     1       4.280  -0.683   4.415  0.00  0.00    -0.020 C 
ATOM      6  C   UNL     1       5.714  -0.989   3.965  0.00  0.00    +0.157 C 
ATOM      7  O   UNL     1       6.490  -1.427   5.096  0.00  0.00    -0.316 OA
ATOM      8  P   UNL     1       5.871  -2.613   6.022  0.00  0.00    +0.291 P 
ATOM      9  O   UNL     1       6.471  -2.573   7.375  0.00  0.00    -0.269 OA
ATOM     10  N   UNL     1       4.253  -2.297   6.105  0.00  0.00    -0.288 NA
ATOM     11  N   UNL     1       3.625  -1.878   4.951  0.00  0.00    +0.398 N 
ATOM     12  C   UNL     1       2.238  -1.573   5.338  0.00  0.00    -0.046 C 
ATOM     13  C   UNL     1       1.414  -1.089   4.150  0.00  0.00    +0.005 C 
ATOM     14  C   UNL     1       1.343  -2.175   3.110  0.00  0.00    -0.015 C 
ATOM     15  C   UNL     1       1.106  -1.849   1.821  0.00  0.00    -0.005 C 
ATOM     16  H   UNL     1       3.763  -2.406   6.935  0.00  0.00    +0.111 HD
ATOM     17  H   UNL     1       3.644  -2.615   4.262  0.00  0.00    -0.055 HD
ENDROOT
BRANCH  15  18
ATOM     18  C   UNL     1       1.053  -2.897   0.773  0.00  0.00    +0.024 A 
ATOM     19  C   UNL     1      -0.052  -3.741   0.683  0.00  0.00    +0.012 A 
ATOM     20  C   UNL     1      -0.097  -4.715  -0.294  0.00  0.00    +0.001 A 
ATOM     21  C   UNL     1       0.951  -4.856  -1.186  0.00  0.00    +0.004 A 
ATOM     22  C   UNL     1       2.052  -4.024  -1.106  0.00  0.00    +0.046 A 
ATOM     23  C   UNL     1       2.108  -3.038  -0.134  0.00  0.00    +0.125 A 
BRANCH  23  24
ATOM     24  O   UNL     1       3.186  -2.215  -0.058  0.00  0.00    -0.506 OA
ATOM     25  H   UNL     1       3.894  -2.546   0.512  0.00  0.00    +0.292 HD
ENDBRANCH  23  24
ENDBRANCH  15  18
BRANCH   8  26
ATOM     26  C   UNL     1       6.163  -4.229   5.253  0.00  0.00    +0.091 A 
ATOM     27  C   UNL     1       5.235  -4.754   4.374  0.00  0.00    +0.018 A 
ATOM     28  C   UNL     1       5.456  -5.986   3.788  0.00  0.00    +0.001 A 
ATOM     29  C   UNL     1       6.606  -6.697   4.079  0.00  0.00    +0.004 A 
ATOM     30  C   UNL     1       7.537  -6.176   4.956  0.00  0.00    +0.046 A 
ATOM     31  C   UNL     1       7.320  -4.938   5.542  0.00  0.00    +0.131 A 
BRANCH  31  32
ATOM     32  O   UNL     1       8.237  -4.421   6.402  0.00  0.00    -0.506 OA
ATOM     33  H   UNL     1       8.092  -4.666   7.326  0.00  0.00    +0.292 HD
ENDBRANCH  31  32
ENDBRANCH   8  26
BRANCH   1  35
ATOM     34  C   UNL     1      -0.022   1.810   0.012  0.00  0.00    +0.090 C 
ATOM     35  S   UNL     1       0.002  -0.004   0.002  0.00  0.00    -0.128 S 
ENDBRANCH   1  35
TORSDOF 5
