REMARK  Name = ZINC37074844
REMARK  8 active torsions:
REMARK  status: ('A' for Active; 'I' for Inactive)
REMARK    1  A    between atoms: C_1  and  C_2
REMARK    2  A    between atoms: C_2  and  C_3
REMARK    3  A    between atoms: C_3  and  C_5
REMARK    4  A    between atoms: C_3  and  N_12
REMARK    5  A    between atoms: C_10  and  O_11
REMARK    6  A    between atoms: N_12  and  C_13
REMARK    7  A    between atoms: C_16  and  C_19
REMARK    8  A    between atoms: C_19  and  C_20
REMARK                            x       y       z     vdW  Elec       q    Type
REMARK                         _______ _______ _______ _____ _____    ______ ____
ROOT
ATOM      1  N   UNL     1      -0.031  -0.002  -2.414  0.00  0.00    -0.337 N 
ATOM      2  H   UNL     1      -0.724  -0.551  -2.815  0.00  0.00    +0.147 HD
ENDROOT
BRANCH   1   3
ATOM      3  C   UNL     1       0.253   1.259  -2.942  0.00  0.00    +0.028 A 
ATOM      4  C   UNL     1       1.249   2.044  -2.374  0.00  0.00    +0.023 A 
ATOM      5  C   UNL     1       1.527   3.291  -2.898  0.00  0.00    +0.006 A 
ATOM      6  C   UNL     1       0.815   3.759  -3.988  0.00  0.00    -0.039 A 
ATOM      7  C   UNL     1      -0.177   2.981  -4.556  0.00  0.00    +0.006 A 
ATOM      8  C   UNL     1      -0.456   1.730  -4.040  0.00  0.00    +0.023 A 
BRANCH   6   9
ATOM      9  C   UNL     1       1.121   5.120  -4.557  0.00  0.00    +0.130 C 
BRANCH   9  10
ATOM     10  C   UNL     1       2.180   4.994  -5.621  0.00  0.00    +0.215 C 
ATOM     11  O   UNL     1       2.641   3.905  -5.891  0.00  0.00    -0.276 OA
ATOM     12  N   UNL     1       2.615   6.090  -6.273  0.00  0.00    -0.329 N 
ATOM     13  H   UNL     1       2.246   6.961  -6.057  0.00  0.00    +0.145 HD
ATOM     14  H   UNL     1       3.297   6.009  -6.958  0.00  0.00    +0.145 HD
ENDBRANCH   9  10
ENDBRANCH   6   9
ENDBRANCH   1   3
BRANCH   1  15
ATOM     15  C   UNL     1       0.718  -0.497  -1.257  0.00  0.00    +0.104 C 
BRANCH  15  16
ATOM     16  C   UNL     1       1.043  -1.956  -1.455  0.00  0.00    +0.014 A 
ATOM     17  C   UNL     1       0.237  -2.741  -2.257  0.00  0.00    +0.009 A 
ATOM     18  C   UNL     1       0.535  -4.079  -2.438  0.00  0.00    +0.001 A 
ATOM     19  C   UNL     1       1.640  -4.634  -1.819  0.00  0.00    +0.004 A 
ATOM     20  C   UNL     1       2.449  -3.853  -1.017  0.00  0.00    +0.046 A 
ATOM     21  C   UNL     1       2.155  -2.509  -0.838  0.00  0.00    +0.122 A 
BRANCH  21  22
ATOM     22  O   UNL     1       2.953  -1.737  -0.053  0.00  0.00    -0.506 OA
ATOM     23  H   UNL     1       2.691  -1.719   0.877  0.00  0.00    +0.292 HD
ENDBRANCH  21  22
ENDBRANCH  15  16
BRANCH  15  25
ATOM     24  C   UNL     1      -0.353   1.158   0.277  0.00  0.00    +0.006 C 
ATOM     25  C   UNL     1      -0.128  -0.331   0.007  0.00  0.00    +0.024 C 
ENDBRANCH  15  25
ENDBRANCH   1  15
TORSDOF 7
