REMARK  Name = ZINC58159977
REMARK  10 active torsions:
REMARK  status: ('A' for Active; 'I' for Inactive)
REMARK    1  A    between atoms: C_1  and  C_2
REMARK    2  A    between atoms: C_2  and  O_3
REMARK    3  A    between atoms: O_3  and  C_4
REMARK    4  A    between atoms: C_4  and  C_6
REMARK    5  A    between atoms: C_10  and  N_11
REMARK    6  A    between atoms: C_12  and  C_14
REMARK    7  A    between atoms: C_14  and  N_15
REMARK    8  A    between atoms: C_20  and  C_22
REMARK    9  A    between atoms: C_22  and  C_23
REMARK   10  A    between atoms: C_27  and  C_31
REMARK                            x       y       z     vdW  Elec       q    Type
REMARK                         _______ _______ _______ _____ _____    ______ ____
ROOT
ATOM      1  N   UNL     1       3.958  -2.168   1.800  0.00  0.00    -0.281 N 
ATOM      2  C   UNL     1       5.259  -2.518   1.843  0.00  0.00    +0.201 C 
ATOM      3  O   UNL     1       5.760  -2.864   2.892  0.00  0.00    -0.278 OA
ATOM      4  H   UNL     1       3.558  -1.892   0.960  0.00  0.00    +0.155 HD
ENDROOT
BRANCH   1   9
ATOM      5  C   UNL     1       1.851  -1.882   3.098  0.00  0.00    +0.091 A 
ATOM      6  C   UNL     1       1.277  -2.011   4.427  0.00  0.00    -0.021 A 
ATOM      7  C   UNL     1       2.149  -2.431   5.367  0.00  0.00    -0.004 A 
ATOM      8  S   UNL     1       3.676  -2.645   4.501  0.00  0.00    -0.077 S 
ATOM      9  C   UNL     1       3.192  -2.204   2.954  0.00  0.00    +0.086 A 
ATOM     10  C   UNL     1       1.865  -2.659   6.820  0.00  0.00    +0.046 C 
ATOM     11  C   UNL     1       0.529  -1.983   7.162  0.00  0.00    -0.009 C 
ATOM     12  C   UNL     1      -0.509  -2.378   6.108  0.00  0.00    +0.008 C 
ATOM     13  C   UNL     1      -0.174  -1.710   4.772  0.00  0.00    +0.037 C 
ATOM     14  C   UNL     1       0.060  -2.444   8.543  0.00  0.00    +0.008 C 
BRANCH   5  15
ATOM     15  C   UNL     1       1.046  -1.438   1.959  0.00  0.00    +0.342 C 
ATOM     16  O   UNL     1       0.450  -2.252   1.280  0.00  0.00    -0.245 OA
BRANCH  15  17
ATOM     17  O   UNL     1       0.965  -0.124   1.661  0.00  0.00    -0.461 OA
BRANCH  17  19
ATOM     18  C   UNL     1       0.192   1.757   0.357  0.00  0.00    +0.048 C 
ATOM     19  C   UNL     1       0.163   0.238   0.536  0.00  0.00    +0.229 C 
ENDBRANCH  17  19
ENDBRANCH  15  17
ENDBRANCH   5  15
ENDBRANCH   1   9
BRANCH   2  20
ATOM     20  C   UNL     1       6.092  -2.479   0.587  0.00  0.00    +0.019 C 
BRANCH  20  21
ATOM     21  N   UNL     1       7.464  -2.902   0.896  0.00  0.00    +0.388 N 
ATOM     22  C   UNL     1       7.463  -4.318   1.282  0.00  0.00    -0.078 C 
ATOM     23  C   UNL     1       8.878  -4.742   1.683  0.00  0.00    -0.019 C 
ATOM     24  C   UNL     1       9.823  -4.535   0.496  0.00  0.00    -0.003 C 
ATOM     25  C   UNL     1       9.759  -3.070   0.055  0.00  0.00    -0.015 C 
ATOM     26  C   UNL     1       8.312  -2.708  -0.286  0.00  0.00    -0.059 C 
ATOM     27  H   UNL     1       7.822  -2.348   1.660  0.00  0.00    -0.081 HD
BRANCH  26  28
ATOM     28  C   UNL     1       8.244  -1.244  -0.727  0.00  0.00    +0.080 C 
BRANCH  28  29
ATOM     29  C   UNL     1       9.011  -1.071  -2.013  0.00  0.00    +0.209 C 
ATOM     30  O   UNL     1       9.466  -2.040  -2.583  0.00  0.00    -0.276 OA
ATOM     31  N   UNL     1       9.190   0.161  -2.530  0.00  0.00    -0.329 N 
ATOM     32  H   UNL     1       8.826   0.936  -2.074  0.00  0.00    +0.145 HD
ATOM     33  H   UNL     1       9.683   0.272  -3.357  0.00  0.00    +0.145 HD
ENDBRANCH  28  29
ENDBRANCH  26  28
ENDBRANCH  20  21
ENDBRANCH   2  20
TORSDOF 8
