REMARK  Name = ZINC51124886
REMARK  11 active torsions:
REMARK  status: ('A' for Active; 'I' for Inactive)
REMARK    1  A    between atoms: C_1  and  C_2
REMARK    2  A    between atoms: C_2  and  C_4
REMARK    3  A    between atoms: C_2  and  N_10
REMARK    4  A    between atoms: C_4  and  C_5
REMARK    5  A    between atoms: C_5  and  C_6
REMARK    6  A    between atoms: C_6  and  C_7
REMARK    7  A    between atoms: C_7  and  C_8
REMARK    8  A    between atoms: C_7  and  C_9
REMARK    9  A    between atoms: C_11  and  C_13
REMARK   10  A    between atoms: C_18  and  N_19
REMARK   11  A    between atoms: N_19  and  N_20
REMARK                            x       y       z     vdW  Elec       q    Type
REMARK                         _______ _______ _______ _____ _____    ______ ____
ROOT
ATOM      1  N   UNL     1      -1.391  -0.464   0.020  0.00  0.00    -0.309 N 
ATOM      2  C   UNL     1      -2.058  -0.622  -1.141  0.00  0.00    +0.248 C 
ATOM      3  O   UNL     1      -1.523  -0.335  -2.194  0.00  0.00    -0.270 OA
ATOM      4  H   UNL     1      -1.818  -0.692   0.860  0.00  0.00    +0.149 HD
ENDROOT
BRANCH   2   5
ATOM      5  C   UNL     1      -3.438  -1.143  -1.132  0.00  0.00    +0.079 A 
ATOM      6  C   UNL     1      -4.022  -1.593   0.058  0.00  0.00    +0.033 A 
ATOM      7  C   UNL     1      -5.320  -2.072   0.012  0.00  0.00    +0.037 A 
ATOM      8  C   UNL     1      -5.997  -2.093  -1.196  0.00  0.00    +0.128 A 
ATOM      9  N   UNL     1      -5.428  -1.665  -2.305  0.00  0.00    -0.237 NA
ATOM     10  C   UNL     1      -4.191  -1.192  -2.317  0.00  0.00    +0.144 A 
ATOM     11 BR   UNL     1      -6.162  -2.693   1.587  0.00  0.00    -0.049 Br
BRANCH  10  12
ATOM     12  N   UNL     1      -3.636  -0.748  -3.504  0.00  0.00    -0.267 N 
ATOM     13  H   UNL     1      -2.704  -0.480  -3.533  0.00  0.00    +0.167 HD
BRANCH  12  14
ATOM     14  N   UNL     1      -4.400  -0.688  -4.635  0.00  0.00    -0.255 NA
ATOM     15  H   UNL     1      -5.221  -0.121  -4.487  0.00  0.00    +0.140 HD
ATOM     16  H   UNL     1      -3.861  -0.347  -5.417  0.00  0.00    +0.140 HD
ENDBRANCH  12  14
ENDBRANCH  10  12
ENDBRANCH   2   5
BRANCH   1  18
ATOM     17  C   UNL     1      -0.053   1.584  -0.009  0.00  0.00    +0.028 C 
ATOM     18  C   UNL     1      -0.021   0.054   0.011  0.00  0.00    +0.070 C 
BRANCH  18  19
ATOM     19  C   UNL     1       0.713  -0.424   1.266  0.00  0.00    +0.022 C 
BRANCH  19  20
ATOM     20  C   UNL     1       0.855  -1.946   1.225  0.00  0.00    +0.002 C 
BRANCH  20  21
ATOM     21  C   UNL     1       1.588  -2.424   2.480  0.00  0.00    +0.003 C 
BRANCH  21  22
ATOM     22  C   UNL     1       1.730  -3.947   2.439  0.00  0.00    -0.017 C 
ATOM     23  C   UNL     1       2.571  -4.413   3.630  0.00  0.00    +0.007 C 
ATOM     24  C   UNL     1       0.344  -4.591   2.511  0.00  0.00    +0.007 C 
ENDBRANCH  21  22
ENDBRANCH  20  21
ENDBRANCH  19  20
ENDBRANCH  18  19
ENDBRANCH   1  18
TORSDOF 8
