REMARK  Name = ZINC19897231
REMARK  11 active torsions:
REMARK  status: ('A' for Active; 'I' for Inactive)
REMARK    1  A    between atoms: C_1  and  C_2
REMARK    2  A    between atoms: C_2  and  C_3
REMARK    3  A    between atoms: C_3  and  C_4
REMARK    4  A    between atoms: C_4  and  C_5
REMARK    5  A    between atoms: C_5  and  C_6
REMARK    6  A    between atoms: C_12  and  C_13
REMARK    7  A    between atoms: C_15  and  C_28
REMARK    8  A    between atoms: N_16  and  C_19
REMARK    9  A    between atoms: C_17  and  C_18
REMARK   10  A    between atoms: C_22  and  O_26
REMARK   11  A    between atoms: O_26  and  C_27
REMARK                            x       y       z     vdW  Elec       q    Type
REMARK                         _______ _______ _______ _____ _____    ______ ____
ROOT
ATOM      1  C   UNL     1      -2.429  -4.324   1.248  0.00  0.00    +0.100 C 
ATOM      2  N   UNL     1      -1.484  -5.208   1.106  0.00  0.00    -0.169 NA
ATOM      3  N   UNL     1      -1.761  -6.491   0.685  0.00  0.00    -0.154 N 
ATOM      4  C   UNL     1      -0.830  -7.546   0.584  0.00  0.00    +0.132 C 
ATOM      5  N   UNL     1       0.293  -7.579   1.252  0.00  0.00    -0.385 N 
ATOM      6  C   UNL     1      -1.252  -8.619  -0.358  0.00  0.00    +0.079 C 
ATOM      7  C   UNL     1      -0.337  -9.333  -1.104  0.00  0.00    +0.026 C 
ATOM      8  C   UNL     1      -2.709  -8.880  -0.451  0.00  0.00    +0.273 C 
ATOM      9  O   UNL     1      -3.130  -9.970  -0.804  0.00  0.00    -0.268 OA
ATOM     10  N   UNL     1      -3.554  -7.879  -0.135  0.00  0.00    -0.152 NA
ATOM     11  C   UNL     1      -3.073  -6.767   0.361  0.00  0.00    +0.181 C 
ATOM     12  S   UNL     1      -3.886  -5.247   0.778  0.00  0.00    -0.038 S 
ATOM     13  H   UNL     1       0.561  -6.816   1.788  0.00  0.00    +0.157 HD
ATOM     14  H   UNL     1       0.859  -8.366   1.213  0.00  0.00    +0.157 HD
ENDROOT
BRANCH   7  15
ATOM     15  C   UNL     1       1.026  -8.941  -1.118  0.00  0.00    -0.003 A 
ATOM     16  C   UNL     1       1.556  -7.574  -1.013  0.00  0.00    +0.031 A 
ATOM     17  C   UNL     1       2.894  -7.680  -1.071  0.00  0.00    +0.022 A 
ATOM     18  N   UNL     1       3.236  -8.998  -1.203  0.00  0.00    -0.317 N 
ATOM     19  C   UNL     1       2.132  -9.769  -1.227  0.00  0.00    +0.028 A 
ATOM     20  C   UNL     1       2.104 -11.271  -1.355  0.00  0.00    +0.064 C 
ATOM     21  C   UNL     1       3.865  -6.529  -1.002  0.00  0.00    +0.064 C 
BRANCH  18  22
ATOM     22  C   UNL     1       4.551  -9.478  -1.294  0.00  0.00    +0.048 A 
ATOM     23  C   UNL     1       4.988 -10.087  -2.463  0.00  0.00    +0.030 A 
ATOM     24  C   UNL     1       6.282 -10.560  -2.552  0.00  0.00    +0.049 A 
ATOM     25  C   UNL     1       7.146 -10.428  -1.475  0.00  0.00    +0.138 A 
ATOM     26  C   UNL     1       6.710  -9.819  -0.306  0.00  0.00    +0.084 A 
ATOM     27  C   UNL     1       5.417  -9.340  -0.218  0.00  0.00    +0.049 A 
ATOM     28 CL   UNL     1       7.791  -9.653   1.042  0.00  0.00    -0.080 Cl
BRANCH  25  29
ATOM     29  O   UNL     1       8.420 -10.894  -1.564  0.00  0.00    -0.494 OA
ATOM     30  C   UNL     1       8.801 -11.509  -2.796  0.00  0.00    +0.277 C 
ENDBRANCH  25  29
ENDBRANCH  18  22
ENDBRANCH   7  15
BRANCH   1  31
ATOM     31  C   UNL     1      -2.324  -2.889   1.698  0.00  0.00    +0.064 C 
BRANCH  31  32
ATOM     32  C   UNL     1      -0.860  -2.553   1.990  0.00  0.00    +0.007 C 
BRANCH  32  33
ATOM     33  C   UNL     1      -0.752  -1.097   2.448  0.00  0.00    +0.000 C 
BRANCH  33  35
ATOM     34  C   UNL     1       0.819   0.695   3.197  0.00  0.00    +0.004 C 
ATOM     35  C   UNL     1       0.712  -0.761   2.740  0.00  0.00    -0.003 C 
ENDBRANCH  33  35
ENDBRANCH  32  33
ENDBRANCH  31  32
ENDBRANCH   1  31
TORSDOF 7
