REMARK  Name = ZINC35577646
REMARK  8 active torsions:
REMARK  status: ('A' for Active; 'I' for Inactive)
REMARK    1  A    between atoms: C_4  and  C_7
REMARK    2  A    between atoms: C_7  and  N_8
REMARK    3  A    between atoms: C_9  and  N_34
REMARK    4  A    between atoms: C_11  and  C_27
REMARK    5  A    between atoms: N_17  and  C_18
REMARK    6  A    between atoms: C_18  and  C_19
REMARK    7  A    between atoms: C_19  and  O_20
REMARK    8  A    between atoms: O_20  and  C_21
REMARK                            x       y       z     vdW  Elec       q    Type
REMARK                         _______ _______ _______ _____ _____    ______ ____
ROOT
ATOM      1  N   UNL     1       4.672  -1.221   1.221  0.00  0.00    -0.244 N 
ATOM      2  C   UNL     1       5.157  -0.243   2.006  0.00  0.00    +0.126 A 
ATOM      3  C   UNL     1       5.004  -0.651   3.326  0.00  0.00    +0.086 A 
ATOM      4  C   UNL     1       5.301  -0.105   4.595  0.00  0.00    +0.091 A 
ATOM      5  N   UNL     1       4.997  -0.818   5.672  0.00  0.00    -0.214 NA
ATOM      6  C   UNL     1       4.429  -2.017   5.590  0.00  0.00    +0.218 A 
ATOM      7  N   UNL     1       4.119  -2.600   4.450  0.00  0.00    -0.193 NA
ATOM      8  C   UNL     1       4.374  -1.983   3.280  0.00  0.00    +0.188 A 
ATOM      9  N   UNL     1       4.192  -2.272   2.010  0.00  0.00    -0.149 NA
ATOM     10  N   UNL     1       4.148  -2.690   6.766  0.00  0.00    -0.310 N 
ATOM     11  H   UNL     1       4.365  -2.285   7.620  0.00  0.00    +0.149 HD
ENDROOT
BRANCH   4  12
ATOM     12  C   UNL     1       5.934   1.226   4.720  0.00  0.00    +0.036 A 
ATOM     13  C   UNL     1       5.332   2.346   4.143  0.00  0.00    +0.013 A 
ATOM     14  C   UNL     1       5.927   3.584   4.262  0.00  0.00    +0.001 A 
ATOM     15  C   UNL     1       7.119   3.720   4.952  0.00  0.00    +0.003 A 
ATOM     16  C   UNL     1       7.723   2.617   5.527  0.00  0.00    +0.039 A 
ATOM     17  C   UNL     1       7.134   1.370   5.420  0.00  0.00    +0.133 A 
ATOM     18  F   UNL     1       7.721   0.293   5.987  0.00  0.00    -0.205 F 
ENDBRANCH   4  12
BRANCH   2  19
ATOM     19  N   UNL     1       5.708   0.951   1.578  0.00  0.00    -0.343 N 
ATOM     20  H   UNL     1       5.666   1.195   0.640  0.00  0.00    +0.144 HD
ATOM     21  H   UNL     1       6.136   1.543   2.216  0.00  0.00    +0.144 HD
ENDBRANCH   2  19
BRANCH   1  22
ATOM     22  C   UNL     1       4.643  -1.187  -0.243  0.00  0.00    +0.180 C 
BRANCH  22  26
ATOM     23  C   UNL     1       0.984   0.581  -1.558  0.00  0.00    +0.000 A 
ATOM     24  C   UNL     1       2.092   1.375  -1.330  0.00  0.00    +0.000 A 
ATOM     25  C   UNL     1       3.276   0.803  -0.904  0.00  0.00    +0.005 A 
ATOM     26  C   UNL     1       3.352  -0.563  -0.706  0.00  0.00    -0.026 A 
ATOM     27  C   UNL     1       2.243  -1.357  -0.933  0.00  0.00    +0.005 A 
ATOM     28  C   UNL     1       1.059  -0.785  -1.361  0.00  0.00    +0.000 A 
ENDBRANCH  22  26
ENDBRANCH   1  22
BRANCH  10  29
ATOM     29  C   UNL     1       3.522  -4.013   6.721  0.00  0.00    +0.145 C 
BRANCH  29  30
ATOM     30  C   UNL     1       3.321  -4.532   8.146  0.00  0.00    +0.247 C 
BRANCH  30  31
ATOM     31  O   UNL     1       2.387  -3.695   8.830  0.00  0.00    -0.490 OA
BRANCH  31  32
ATOM     32  C   UNL     1       2.095  -4.019  10.117  0.00  0.00    +0.121 A 
ATOM     33  C   UNL     1       2.701  -5.117  10.711  0.00  0.00    +0.045 A 
ATOM     34  C   UNL     1       2.403  -5.444  12.020  0.00  0.00    +0.004 A 
ATOM     35  C   UNL     1       1.502  -4.679  12.738  0.00  0.00    +0.000 A 
ATOM     36  C   UNL     1       0.897  -3.584  12.148  0.00  0.00    +0.004 A 
ATOM     37  C   UNL     1       1.196  -3.249  10.841  0.00  0.00    +0.045 A 
ENDBRANCH  31  32
ENDBRANCH  30  31
ENDBRANCH  29  30
ENDBRANCH  10  29
TORSDOF 8
