REMARK  Name = ZINC22635425
REMARK  7 active torsions:
REMARK  status: ('A' for Active; 'I' for Inactive)
REMARK    1  A    between atoms: C_1  and  C_2
REMARK    2  A    between atoms: N_6  and  N_7
REMARK    3  A    between atoms: N_8  and  N_9
REMARK    4  A    between atoms: C_10  and  C_11
REMARK    5  A    between atoms: C_16  and  O_17
REMARK    6  A    between atoms: O_17  and  C_18
REMARK    7  A    between atoms: C_18  and  C_19
REMARK                            x       y       z     vdW  Elec       q    Type
REMARK                         _______ _______ _______ _____ _____    ______ ____
ROOT
ATOM      1  C   UNL     1       3.535   0.946  -3.761  0.00  0.00    +0.039 A 
ATOM      2  C   UNL     1       4.878   1.193  -4.054  0.00  0.00    +0.028 A 
ATOM      3  C   UNL     1       5.860   0.803  -3.167  0.00  0.00    +0.020 A 
ATOM      4  C   UNL     1       5.519   0.155  -1.991  0.00  0.00    +0.039 A 
ATOM      5  C   UNL     1       4.193  -0.101  -1.692  0.00  0.00    +0.084 A 
ATOM      6  C   UNL     1       3.195   0.290  -2.571  0.00  0.00    +0.148 A 
ATOM      7 CL   UNL     1       3.778  -0.913  -0.215  0.00  0.00    -0.080 Cl
ATOM      8 BR   UNL     1       7.677   1.145  -3.561  0.00  0.00    -0.050 Br
ENDROOT
BRANCH   1  10
ATOM      9  N   UNL     1       2.753   1.494  -5.966  0.00  0.00    -0.187 NA
ATOM     10  C   UNL     1       2.482   1.366  -4.702  0.00  0.00    +0.142 C 
BRANCH   9  17
ATOM     11  C   UNL     1       6.287   0.986 -10.848  0.00  0.00    +0.090 C 
ATOM     12  C   UNL     1       5.315   1.245  -9.726  0.00  0.00    +0.149 A 
ATOM     13  N   UNL     1       4.240   1.980  -9.790  0.00  0.00    -0.131 NA
ATOM     14  N   UNL     1       3.641   1.986  -8.653  0.00  0.00    -0.110 NA
ATOM     15  C   UNL     1       4.305   1.244  -7.796  0.00  0.00    +0.254 A 
ATOM     16  N   UNL     1       5.397   0.754  -8.454  0.00  0.00    -0.220 N 
ATOM     17  N   UNL     1       3.964   1.007  -6.475  0.00  0.00    -0.204 N 
ATOM     18  H   UNL     1       4.644   0.436  -5.826  0.00  0.00    +0.177 HD
BRANCH  16  19
ATOM     19  N   UNL     1       6.366  -0.064  -7.946  0.00  0.00    -0.294 N 
ATOM     20  H   UNL     1       6.316  -0.391  -6.897  0.00  0.00    +0.163 HD
ATOM     21  H   UNL     1       7.197  -0.395  -8.587  0.00  0.00    +0.163 HD
ENDBRANCH  16  19
ENDBRANCH   9  17
ENDBRANCH   1  10
BRANCH   6  22
ATOM     22  O   UNL     1       1.892   0.039  -2.279  0.00  0.00    -0.485 OA
BRANCH  22  23
ATOM     23  C   UNL     1       1.381  -1.245  -2.644  0.00  0.00    +0.264 C 
BRANCH  23  24
ATOM     24  C   UNL     1      -0.097  -1.297  -2.357  0.00  0.00    -0.010 A 
ATOM     25  C   UNL     1      -0.543  -1.633  -1.092  0.00  0.00    +0.010 A 
ATOM     26  C   UNL     1      -1.899  -1.677  -0.826  0.00  0.00    +0.039 A 
ATOM     27  C   UNL     1      -2.810  -1.395  -1.829  0.00  0.00    +0.123 A 
ATOM     28  C   UNL     1      -2.362  -1.063  -3.097  0.00  0.00    +0.039 A 
ATOM     29  C   UNL     1      -1.006  -1.015  -3.359  0.00  0.00    +0.010 A 
ATOM     30  F   UNL     1      -4.136  -1.442  -1.572  0.00  0.00    -0.205 F 
ENDBRANCH  23  24
ENDBRANCH  22  23
ENDBRANCH   6  22
TORSDOF 6
