REMARK  Name = ZINC67007099
REMARK  5 active torsions:
REMARK  status: ('A' for Active; 'I' for Inactive)
REMARK    1  A    between atoms: C_8  and  S_17
REMARK    2  A    between atoms: N_9  and  C_10
REMARK    3  A    between atoms: S_17  and  C_18
REMARK    4  A    between atoms: C_18  and  C_19
REMARK    5  A    between atoms: C_19  and  C_20
REMARK                            x       y       z     vdW  Elec       q    Type
REMARK                         _______ _______ _______ _____ _____    ______ ____
ROOT
ATOM      1  C   UNL     1      -0.017   1.373   0.010  0.00  0.00    +0.002 A 
ATOM      2  C   UNL     1       1.169   2.093   0.002  0.00  0.00    +0.002 A 
ATOM      3  C   UNL     1       2.384   1.439  -0.013  0.00  0.00    +0.028 A 
ATOM      4  C   UNL     1       2.421   0.053  -0.021  0.00  0.00    +0.074 A 
ATOM      5  C   UNL     1       1.224  -0.681  -0.013  0.00  0.00    +0.091 A 
ATOM      6  C   UNL     1       0.002  -0.004   0.002  0.00  0.00    +0.030 A 
ATOM      7  N   UNL     1       1.561  -1.998  -0.024  0.00  0.00    -0.222 NA
ATOM      8  C   UNL     1       2.865  -2.119  -0.037  0.00  0.00    +0.174 A 
ATOM      9  N   UNL     1       3.447  -0.881  -0.036  0.00  0.00    -0.287 N 
ENDROOT
BRANCH   9  10
ATOM     10  C   UNL     1       4.822  -0.607  -0.048  0.00  0.00    +0.049 A 
ATOM     11  C   UNL     1       5.392   0.038  -1.137  0.00  0.00    +0.029 A 
ATOM     12  C   UNL     1       6.747   0.308  -1.147  0.00  0.00    +0.040 A 
ATOM     13  C   UNL     1       7.536  -0.065  -0.072  0.00  0.00    +0.124 A 
ATOM     14  C   UNL     1       6.969  -0.708   1.015  0.00  0.00    +0.040 A 
ATOM     15  C   UNL     1       5.614  -0.975   1.031  0.00  0.00    +0.029 A 
ATOM     16  F   UNL     1       8.861   0.199  -0.084  0.00  0.00    -0.205 F 
ENDBRANCH   9  10
BRANCH   8  17
ATOM     17  S   UNL     1       3.740  -3.649  -0.055  0.00  0.00    -0.087 S 
BRANCH  17  18
ATOM     18  C   UNL     1       2.430  -4.904  -0.050  0.00  0.00    +0.086 C 
BRANCH  18  19
ATOM     19  C   UNL     1       3.060  -6.298  -0.064  0.00  0.00    +0.107 C 
BRANCH  19  20
ATOM     20  C   UNL     1       1.972  -7.341  -0.060  0.00  0.00    +0.221 C 
ATOM     21  O   UNL     1       0.807  -7.002  -0.047  0.00  0.00    -0.275 OA
ATOM     22  N   UNL     1       2.292  -8.650  -0.070  0.00  0.00    -0.240 N 
ATOM     23  C   UNL     1       1.319  -9.582  -0.067  0.00  0.00    +0.303 C 
ATOM     24  O   UNL     1       0.152  -9.242  -0.054  0.00  0.00    -0.253 OA
ATOM     25  N   UNL     1       1.640 -10.891  -0.078  0.00  0.00    -0.313 N 
ATOM     26  H   UNL     1       3.224  -8.921  -0.081  0.00  0.00    +0.159 HD
ATOM     27  H   UNL     1       2.571 -11.162  -0.088  0.00  0.00    +0.146 HD
ATOM     28  H   UNL     1       0.939 -11.562  -0.075  0.00  0.00    +0.146 HD
ENDBRANCH  19  20
ENDBRANCH  18  19
ENDBRANCH  17  18
ENDBRANCH   8  17
TORSDOF 5
