REMARK  Name = ZINC13495850
REMARK  16 active torsions:
REMARK  status: ('A' for Active; 'I' for Inactive)
REMARK    1  A    between atoms: C_1  and  C_2
REMARK    2  A    between atoms: C_2  and  C_3
REMARK    3  A    between atoms: C_3  and  C_5
REMARK    4  A    between atoms: C_3  and  N_71
REMARK    5  A    between atoms: N_9  and  C_10
REMARK    6  A    between atoms: C_10  and  C_11
REMARK    7  A    between atoms: C_11  and  O_13
REMARK    8  A    between atoms: O_13  and  C_14
REMARK    9  A    between atoms: C_14  and  C_15
REMARK   10  A    between atoms: C_16  and  C_17
REMARK   11  A    between atoms: C_16  and  N_71
REMARK   12  A    between atoms: C_17  and  C_18
REMARK   13  A    between atoms: C_24  and  C_25
REMARK   14  A    between atoms: C_24  and  N_71
REMARK   15  A    between atoms: C_29  and  C_38
REMARK   16  A    between atoms: C_31  and  C_37
REMARK                            x       y       z     vdW  Elec       q    Type
REMARK                         _______ _______ _______ _____ _____    ______ ____
ROOT
ATOM      1  N   UNL     1      -1.120   7.869  -1.572  0.00  0.00    +0.389 N 
ATOM      2  H   UNL     1      -0.349   8.059  -2.223  0.00  0.00    -0.080 HD
ENDROOT
BRANCH   1   3
ATOM      3  C   UNL     1      -1.905   9.107  -1.382  0.00  0.00    +0.003 C 
BRANCH   3   4
ATOM      4  C   UNL     1      -2.766   9.002  -0.150  0.00  0.00    +0.139 A 
ATOM      5  N   UNL     1      -2.423   8.482   1.002  0.00  0.00    -0.115 NA
ATOM      6  N   UNL     1      -3.430   8.580   1.799  0.00  0.00    -0.023 NA
ATOM      7  N   UNL     1      -4.407   9.150   1.185  0.00  0.00    -0.043 NA
ATOM      8  N   UNL     1      -4.035   9.431  -0.018  0.00  0.00    -0.220 N 
BRANCH   8   9
ATOM      9  C   UNL     1      -4.843  10.089  -1.048  0.00  0.00    +0.267 C 
BRANCH   9  10
ATOM     10  C   UNL     1      -5.593   9.048  -1.839  0.00  0.00    +0.329 C 
ATOM     11  O   UNL     1      -5.466   7.877  -1.570  0.00  0.00    -0.249 OA
BRANCH  10  12
ATOM     12  O   UNL     1      -6.403   9.422  -2.842  0.00  0.00    -0.464 OA
BRANCH  12  13
ATOM     13  C   UNL     1      -7.093   8.366  -3.561  0.00  0.00    +0.229 C 
ATOM     14  C   UNL     1      -7.963   8.981  -4.659  0.00  0.00    +0.048 C 
ENDBRANCH  12  13
ENDBRANCH  10  12
ENDBRANCH   9  10
ENDBRANCH   8   9
ENDBRANCH   3   4
BRANCH   3  16
ATOM     15  C   UNL     1      -0.202  10.512  -2.552  0.00  0.00    +0.002 C 
ATOM     16  C   UNL     1      -0.937  10.283  -1.230  0.00  0.00    -0.011 C 
ENDBRANCH   3  16
ENDBRANCH   1   3
BRANCH   1  17
ATOM     17  C   UNL     1      -1.978   6.809  -2.140  0.00  0.00    -0.073 C 
BRANCH  17  18
ATOM     18  C   UNL     1      -2.082   7.021  -3.652  0.00  0.00    +0.016 C 
BRANCH  18  19
ATOM     19  C   UNL     1      -2.843   5.877  -4.269  0.00  0.00    -0.049 A 
ATOM     20  C   UNL     1      -2.166   4.755  -4.712  0.00  0.00    +0.003 A 
ATOM     21  C   UNL     1      -2.865   3.703  -5.273  0.00  0.00    +0.000 A 
ATOM     22  C   UNL     1      -4.240   3.777  -5.402  0.00  0.00    +0.000 A 
ATOM     23  C   UNL     1      -4.915   4.901  -4.965  0.00  0.00    +0.000 A 
ATOM     24  C   UNL     1      -4.217   5.950  -4.398  0.00  0.00    +0.003 A 
ENDBRANCH  18  19
ENDBRANCH  17  18
ENDBRANCH   1  17
BRANCH   1  25
ATOM     25  C   UNL     1      -0.558   7.425  -0.279  0.00  0.00    -0.037 C 
BRANCH  25  26
ATOM     26  C   UNL     1       0.543   6.431  -0.546  0.00  0.00    +0.001 A 
ATOM     27  C   UNL     1       1.830   6.851  -0.620  0.00  0.00    +0.017 A 
ATOM     28  C   UNL     1       2.876   5.860  -0.881  0.00  0.00    -0.001 A 
ATOM     29  C   UNL     1       4.221   6.233  -0.968  0.00  0.00    +0.013 A 
ATOM     30  C   UNL     1       5.172   5.284  -1.212  0.00  0.00    -0.050 A 
ATOM     31  C   UNL     1       4.816   3.952  -1.375  0.00  0.00    +0.008 A 
ATOM     32  C   UNL     1       3.497   3.562  -1.299  0.00  0.00    -0.026 A 
ATOM     33  C   UNL     1       2.510   4.511  -1.046  0.00  0.00    +0.052 A 
ATOM     34  N   UNL     1       1.183   4.148  -0.959  0.00  0.00    -0.322 N 
ATOM     35  H   UNL     1       0.934   3.217  -1.072  0.00  0.00    +0.169 HD
ATOM     36  C   UNL     1       0.230   5.065  -0.719  0.00  0.00    +0.251 A 
ATOM     37  O   UNL     1      -0.933   4.708  -0.648  0.00  0.00    -0.268 OA
ATOM     38  C   UNL     1       3.124   2.114  -1.484  0.00  0.00    +0.046 C 
ATOM     39  C   UNL     1       6.622   5.686  -1.304  0.00  0.00    +0.044 C 
ENDBRANCH  25  26
ENDBRANCH   1  25
TORSDOF 12
