REMARK  Name = ZINC39639181
REMARK  13 active torsions:
REMARK  status: ('A' for Active; 'I' for Inactive)
REMARK    1  A    between atoms: C_1  and  C_2
REMARK    2  A    between atoms: C_2  and  O_3
REMARK    3  A    between atoms: O_3  and  C_4
REMARK    4  A    between atoms: C_8  and  C_10
REMARK    5  A    between atoms: C_14  and  C_23
REMARK    6  A    between atoms: N_25  and  C_26
REMARK    7  A    between atoms: C_26  and  C_27
REMARK    8  A    between atoms: C_28  and  O_37
REMARK    9  A    between atoms: C_30  and  O_35
REMARK   10  A    between atoms: C_32  and  O_33
REMARK   11  A    between atoms: O_33  and  C_34
REMARK   12  A    between atoms: O_35  and  C_36
REMARK   13  A    between atoms: O_37  and  C_38
REMARK                            x       y       z     vdW  Elec       q    Type
REMARK                         _______ _______ _______ _____ _____    ______ ____
ROOT
ATOM      1  C   UNL     1       2.207  -4.262  -3.798  0.00  0.00    +0.247 C 
ATOM      2  O   UNL     1       2.582  -3.522  -4.686  0.00  0.00    -0.270 OA
ATOM      3  N   UNL     1       2.399  -5.592  -3.903  0.00  0.00    -0.296 N 
ATOM      4  C   UNL     1       1.905  -6.656  -2.998  0.00  0.00    +0.121 C 
ATOM      5  C   UNL     1       1.492  -7.809  -3.940  0.00  0.00    +0.100 C 
ATOM      6  C   UNL     1       2.316  -7.585  -5.219  0.00  0.00    -0.004 C 
ATOM      7  C   UNL     1       3.147  -6.322  -4.955  0.00  0.00    +0.115 C 
ATOM      8  C   UNL     1       3.232  -8.778  -5.473  0.00  0.00    -0.010 C 
ATOM      9  C   UNL     1       3.998  -8.558  -6.781  0.00  0.00    -0.082 C 
ATOM     10  N   UNL     1       3.046  -8.402  -7.887  0.00  0.00    +0.379 N 
ATOM     11  C   UNL     1       2.231  -7.199  -7.680  0.00  0.00    -0.082 C 
ATOM     12  C   UNL     1       1.390  -7.362  -6.411  0.00  0.00    -0.010 C 
ATOM     13  H   UNL     1       3.552  -8.318  -8.756  0.00  0.00    -0.086 HD
ATOM     14  H   UNL     1       2.444  -9.211  -7.929  0.00  0.00    -0.086 HD
ENDROOT
BRANCH   1  19
ATOM     15  C   UNL     1       0.935  -3.877  -0.281  0.00  0.00    +0.121 A 
ATOM     16  C   UNL     1       0.286  -2.653  -0.363  0.00  0.00    +0.046 A 
ATOM     17  C   UNL     1       0.263  -1.956  -1.557  0.00  0.00    +0.004 A 
ATOM     18  C   UNL     1       0.885  -2.474  -2.675  0.00  0.00    +0.013 A 
ATOM     19  C   UNL     1       1.540  -3.704  -2.602  0.00  0.00    +0.040 A 
ATOM     20  C   UNL     1       1.568  -4.403  -1.395  0.00  0.00    +0.058 A 
BRANCH  15  21
ATOM     21  O   UNL     1       0.955  -4.558   0.896  0.00  0.00    -0.492 OA
BRANCH  21  23
ATOM     22  C   UNL     1       0.411  -4.862   3.231  0.00  0.00    +0.048 C 
ATOM     23  C   UNL     1       0.282  -3.957   2.004  0.00  0.00    +0.225 C 
ENDBRANCH  21  23
ENDBRANCH  15  21
ENDBRANCH   1  19
BRANCH   5  24
ATOM     24  C   UNL     1       1.833  -9.140  -3.320  0.00  0.00    +0.218 C 
ATOM     25  O   UNL     1       2.722  -9.217  -2.498  0.00  0.00    -0.275 OA
ATOM     26  N   UNL     1       1.149 -10.245  -3.678  0.00  0.00    -0.311 N 
ATOM     27  H   UNL     1       0.438 -10.184  -4.335  0.00  0.00    +0.149 HD
BRANCH  26  28
ATOM     28  C   UNL     1       1.480 -11.539  -3.075  0.00  0.00    +0.147 C 
BRANCH  28  29
ATOM     29  C   UNL     1       0.577 -12.603  -3.642  0.00  0.00    +0.053 A 
ATOM     30  C   UNL     1      -0.635 -12.883  -3.028  0.00  0.00    +0.132 A 
ATOM     31  C   UNL     1      -1.467 -13.862  -3.550  0.00  0.00    +0.091 A 
ATOM     32  C   UNL     1      -1.087 -14.562  -4.686  0.00  0.00    +0.127 A 
ATOM     33  C   UNL     1       0.124 -14.281  -5.300  0.00  0.00    +0.091 A 
ATOM     34  C   UNL     1       0.954 -13.299  -4.781  0.00  0.00    +0.132 A 
BRANCH  34  35
ATOM     35  O   UNL     1       2.139 -13.021  -5.386  0.00  0.00    -0.495 OA
ATOM     36  C   UNL     1       2.463 -13.776  -6.555  0.00  0.00    +0.277 C 
ENDBRANCH  34  35
BRANCH  32  37
ATOM     37  O   UNL     1      -1.902 -15.522  -5.196  0.00  0.00    -0.495 OA
ATOM     38  C   UNL     1      -1.448 -16.202  -6.368  0.00  0.00    +0.277 C 
ENDBRANCH  32  37
BRANCH  30  39
ATOM     39  O   UNL     1      -1.007 -12.198  -1.915  0.00  0.00    -0.495 OA
ATOM     40  C   UNL     1      -2.268 -12.538  -1.335  0.00  0.00    +0.277 C 
ENDBRANCH  30  39
ENDBRANCH  28  29
ENDBRANCH  26  28
ENDBRANCH   5  24
TORSDOF 9
