REMARK  Name = ZINC39228606
REMARK  6 active torsions:
REMARK  status: ('A' for Active; 'I' for Inactive)
REMARK    1  A    between atoms: C_1  and  C_2
REMARK    2  A    between atoms: C_2  and  C_4
REMARK    3  A    between atoms: C_2  and  O_36
REMARK    4  A    between atoms: C_4  and  N_5
REMARK    5  A    between atoms: C_6  and  C_8
REMARK    6  A    between atoms: C_10  and  O_35
REMARK                            x       y       z     vdW  Elec       q    Type
REMARK                         _______ _______ _______ _____ _____    ______ ____
ROOT
ATOM      1  C   UNL     1       1.385  -4.154   2.227  0.00  0.00    +0.107 C 
ATOM      2  C   UNL     1       2.104  -4.649   0.969  0.00  0.00    +0.127 C 
ATOM      3  C   UNL     1       2.137  -6.178   0.961  0.00  0.00    +0.032 C 
ATOM      4  C   UNL     1       2.865  -6.687   2.207  0.00  0.00    +0.004 C 
ATOM      5  C   UNL     1       2.132  -6.192   3.454  0.00  0.00    -0.024 C 
ATOM      6  C   UNL     1       2.127  -4.662   3.463  0.00  0.00    +0.004 C 
ATOM      7  C   UNL     1       1.436  -4.165   4.735  0.00  0.00    -0.005 C 
ATOM      8  C   UNL     1       2.163  -4.752   5.948  0.00  0.00    -0.020 C 
ATOM      9  C   UNL     1       1.506  -4.282   7.221  0.00  0.00    +0.006 A 
ATOM     10  H   UNL     1       1.083  -2.267   6.907  0.00  0.00    +0.166 HD
ATOM     11  C   UNL     1       1.292  -5.101   8.277  0.00  0.00    -0.022 A 
ATOM     12  C   UNL     1       0.649  -4.314   9.305  0.00  0.00    +0.003 A 
ATOM     13  C   UNL     1       0.198  -4.618  10.593  0.00  0.00    +0.010 A 
ATOM     14  C   UNL     1      -0.378  -3.596  11.307  0.00  0.00    +0.001 A 
ATOM     15  C   UNL     1      -0.512  -2.319  10.787  0.00  0.00    +0.002 A 
ATOM     16  C   UNL     1      -0.074  -1.990   9.516  0.00  0.00    +0.026 A 
ATOM     17  C   UNL     1       0.514  -3.007   8.768  0.00  0.00    +0.047 A 
ATOM     18  N   UNL     1       1.043  -3.027   7.508  0.00  0.00    -0.359 N 
ATOM     19  C   UNL     1       1.688  -6.557   8.290  0.00  0.00    +0.019 C 
ATOM     20  C   UNL     1       2.655  -6.798   7.122  0.00  0.00    -0.073 C 
ATOM     21  N   UNL     1       2.098  -6.218   5.896  0.00  0.00    +0.386 N 
ATOM     22  C   UNL     1       2.832  -6.700   4.716  0.00  0.00    -0.074 C 
ATOM     23  H   UNL     1       1.133  -6.500   5.812  0.00  0.00    -0.081 HD
ENDROOT
BRANCH   1  25
ATOM     24  N   UNL     1       0.762  -1.976   1.234  0.00  0.00    -0.313 N 
ATOM     25  C   UNL     1       1.364  -2.647   2.235  0.00  0.00    +0.219 C 
ATOM     26  O   UNL     1       1.890  -2.038   3.143  0.00  0.00    -0.275 OA
ATOM     27  H   UNL     1       0.342  -2.462   0.507  0.00  0.00    +0.149 HD
BRANCH  24  28
ATOM     28  C   UNL     1       0.742  -0.511   1.242  0.00  0.00    +0.135 C 
BRANCH  28  30
ATOM     29  C   UNL     1      -0.019   1.526   0.010  0.00  0.00    +0.039 C 
ATOM     30  C   UNL     1       0.002  -0.004   0.002  0.00  0.00    +0.128 C 
BRANCH  30  31
ATOM     31  O   UNL     1       0.671  -0.465  -1.174  0.00  0.00    -0.391 OA
ATOM     32  H   UNL     1       1.588  -0.167  -1.247  0.00  0.00    +0.210 HD
ENDBRANCH  30  31
ENDBRANCH  28  30
ENDBRANCH  24  28
ENDBRANCH   1  25
BRANCH   2  33
ATOM     33  O   UNL     1       3.442  -4.146   0.958  0.00  0.00    -0.391 OA
ATOM     34  H   UNL     1       3.958  -4.420   0.188  0.00  0.00    +0.210 HD
ENDBRANCH   2  33
TORSDOF 5
