REMARK  Name = ZINC40613609
REMARK  10 active torsions:
REMARK  status: ('A' for Active; 'I' for Inactive)
REMARK    1  A    between atoms: C_1  and  C_2
REMARK    2  A    between atoms: C_7  and  C_9
REMARK    3  A    between atoms: C_7  and  C_10
REMARK    4  A    between atoms: C_14  and  N_30
REMARK    5  A    between atoms: C_15  and  N_19
REMARK    6  A    between atoms: N_19  and  C_20
REMARK    7  A    between atoms: C_22  and  C_28
REMARK    8  A    between atoms: C_22  and  C_29
REMARK    9  A    between atoms: C_24  and  C_26
REMARK   10  A    between atoms: C_24  and  C_27
REMARK                            x       y       z     vdW  Elec       q    Type
REMARK                         _______ _______ _______ _____ _____    ______ ____
ROOT
ATOM      1  C   UNL     1      -0.053   1.292   0.088  0.00  0.00    +0.013 C 
ATOM      2  C   UNL     1       0.051  -0.240   0.132  0.00  0.00    -0.014 C 
ATOM      3  C   UNL     1      -1.342  -0.926   0.171  0.00  0.00    +0.030 C 
ATOM      4  C   UNL     1      -0.940  -2.353  -0.279  0.00  0.00    +0.076 C 
ATOM      5  C   UNL     1      -0.259  -3.027   0.910  0.00  0.00    +0.029 C 
ATOM      6  C   UNL     1       0.927  -2.253   1.457  0.00  0.00    -0.033 C 
ATOM      7  C   UNL     1       0.842  -0.743   1.338  0.00  0.00    +0.014 C 
ATOM      8  C   UNL     1       1.032  -2.588   2.966  0.00  0.00    +0.011 C 
ATOM      9  C   UNL     1       2.223  -2.762   0.810  0.00  0.00    +0.011 C 
ATOM     10  N   UNL     1       0.053  -2.147  -1.353  0.00  0.00    -0.310 N 
ATOM     11  C   UNL     1       0.667  -0.824  -1.160  0.00  0.00    +0.113 C 
ATOM     12  C   UNL     1       0.349  -3.038  -2.372  0.00  0.00    +0.157 A 
ATOM     13  C   UNL     1       1.314  -2.727  -3.324  0.00  0.00    +0.205 A 
ATOM     14  C   UNL     1       1.575  -3.656  -4.327  0.00  0.00    +0.155 A 
ATOM     15  N   UNL     1       0.896  -4.801  -4.338  0.00  0.00    -0.218 NA
ATOM     16  C   UNL     1      -0.011  -5.060  -3.418  0.00  0.00    +0.225 A 
ATOM     17  N   UNL     1      -0.282  -4.208  -2.450  0.00  0.00    -0.218 NA
ENDROOT
BRANCH  13  18
ATOM     18  N   UNL     1       2.044  -1.440  -3.273  0.00  0.00    +0.063 N 
ATOM     19  O   UNL     1       3.078  -1.356  -2.651  0.00  0.00    -0.126 OA
ATOM     20  O   UNL     1       1.607  -0.473  -3.852  0.00  0.00    -0.126 OA
ENDBRANCH  13  18
BRANCH  14  21
ATOM     21  N   UNL     1       2.527  -3.392  -5.299  0.00  0.00    -0.324 N 
ATOM     22  H   UNL     1       3.017  -2.555  -5.284  0.00  0.00    +0.148 HD
BRANCH  21  23
ATOM     23  C   UNL     1       2.794  -4.380  -6.353  0.00  0.00    +0.069 C 
ATOM     24  C   UNL     1       3.842  -5.376  -5.853  0.00  0.00    +0.009 C 
ATOM     25  C   UNL     1       4.140  -6.405  -6.943  0.00  0.00    -0.072 C 
ATOM     26  N   UNL     1       4.521  -5.777  -8.200  0.00  0.00    +0.386 N 
ATOM     27  C   UNL     1       3.707  -4.670  -8.676  0.00  0.00    -0.072 C 
ATOM     28  C   UNL     1       3.357  -3.667  -7.581  0.00  0.00    +0.009 C 
ATOM     29  C   UNL     1       2.429  -5.160  -9.363  0.00  0.00    -0.010 C 
ATOM     30  C   UNL     1       4.532  -3.913  -9.744  0.00  0.00    -0.010 C 
ATOM     31  C   UNL     1       2.955  -7.356  -7.111  0.00  0.00    -0.010 C 
ATOM     32  C   UNL     1       5.341  -7.250  -6.461  0.00  0.00    -0.010 C 
ATOM     33  H   UNL     1       5.487  -5.453  -8.117  0.00  0.00    -0.084 HD
ATOM     34  H   UNL     1       4.541  -6.498  -8.926  0.00  0.00    -0.084 HD
ENDBRANCH  21  23
ENDBRANCH  14  21
TORSDOF 3
