REMARK  Name = ZINC09609986
REMARK  7 active torsions:
REMARK  status: ('A' for Active; 'I' for Inactive)
REMARK    1  A    between atoms: C_1  and  C_2
REMARK    2  A    between atoms: C_2  and  C_25
REMARK    3  A    between atoms: N_5  and  C_9
REMARK    4  A    between atoms: C_9  and  C_10
REMARK    5  A    between atoms: C_16  and  C_18
REMARK    6  A    between atoms: C_30  and  O_35
REMARK    7  A    between atoms: O_35  and  C_36
REMARK                            x       y       z     vdW  Elec       q    Type
REMARK                         _______ _______ _______ _____ _____    ______ ____
ROOT
ATOM      1  C   UNL     1       2.567  -4.766   1.383  0.00  0.00    +0.047 C 
ATOM      2  C   UNL     1       2.551  -4.221  -0.047  0.00  0.00    +0.135 C 
ATOM      3  C   UNL     1       3.764  -4.705  -0.816  0.00  0.00    +0.251 C 
ATOM      4  O   UNL     1       4.929  -4.489  -0.558  0.00  0.00    -0.272 OA
ATOM      5  N   UNL     1       3.279  -5.426  -1.846  0.00  0.00    -0.215 N 
ATOM      6  C   UNL     1       1.941  -5.463  -1.835  0.00  0.00    +0.310 C 
ATOM      7  O   UNL     1       1.275  -6.052  -2.664  0.00  0.00    -0.252 OA
ATOM      8  N   UNL     1       1.414  -4.777  -0.800  0.00  0.00    -0.281 N 
ATOM      9  H   UNL     1       0.473  -4.669  -0.593  0.00  0.00    +0.152 HD
ENDROOT
BRANCH   2  10
ATOM     10  C   UNL     1       2.496  -2.715  -0.037  0.00  0.00    -0.015 A 
ATOM     11  C   UNL     1       3.683  -1.985  -0.044  0.00  0.00    +0.007 A 
ATOM     12  C   UNL     1       3.668  -0.624  -0.037  0.00  0.00    +0.009 A 
ATOM     13  C   UNL     1       2.439   0.058  -0.021  0.00  0.00    -0.014 A 
ATOM     14  C   UNL     1       2.385   1.462  -0.013  0.00  0.00    +0.054 A 
ATOM     15  C   UNL     1       1.173   2.091   0.002  0.00  0.00    +0.121 A 
ATOM     16  C   UNL     1      -0.016   1.356   0.009  0.00  0.00    +0.046 A 
ATOM     17  C   UNL     1       0.002  -0.004   0.002  0.00  0.00    +0.012 A 
ATOM     18  C   UNL     1       1.232  -0.685  -0.013  0.00  0.00    -0.017 A 
ATOM     19  C   UNL     1       1.288  -2.089  -0.022  0.00  0.00    +0.014 A 
BRANCH  15  20
ATOM     20  O   UNL     1       1.123   3.449   0.009  0.00  0.00    -0.495 OA
ATOM     21  C   UNL     1      -0.174   4.049   0.025  0.00  0.00    +0.277 C 
ENDBRANCH  15  20
ENDBRANCH   2  10
BRANCH   5  22
ATOM     22  C   UNL     1       4.112  -6.087  -2.854  0.00  0.00    +0.214 C 
BRANCH  22  23
ATOM     23  C   UNL     1       4.436  -7.486  -2.398  0.00  0.00    +0.235 C 
ATOM     24  O   UNL     1       4.013  -7.891  -1.336  0.00  0.00    -0.274 OA
ATOM     25  N   UNL     1       5.197  -8.287  -3.170  0.00  0.00    -0.283 N 
ATOM     26  C   UNL     1       5.729  -7.843  -4.455  0.00  0.00    +0.120 C 
ATOM     27  C   UNL     1       5.849  -9.038  -5.447  0.00  0.00    +0.090 C 
ATOM     28  S   UNL     1       6.412 -10.328  -4.248  0.00  0.00    -0.132 S 
ATOM     29  C   UNL     1       5.546  -9.662  -2.764  0.00  0.00    +0.167 C 
BRANCH  29  30
ATOM     30  C   UNL     1       6.465  -9.647  -1.569  0.00  0.00    +0.018 A 
ATOM     31  C   UNL     1       6.620  -8.489  -0.831  0.00  0.00    +0.009 A 
ATOM     32  C   UNL     1       7.459  -8.476   0.268  0.00  0.00    +0.001 A 
ATOM     33  C   UNL     1       8.152  -9.619   0.623  0.00  0.00    +0.003 A 
ATOM     34  C   UNL     1       8.004 -10.776  -0.118  0.00  0.00    +0.039 A 
ATOM     35  C   UNL     1       7.159 -10.791  -1.216  0.00  0.00    +0.129 A 
ATOM     36  F   UNL     1       7.014 -11.921  -1.941  0.00  0.00    -0.205 F 
ENDBRANCH  29  30
ENDBRANCH  22  23
ENDBRANCH   5  22
TORSDOF 5
