REMARK  Name = ZINC22852970
REMARK  6 active torsions:
REMARK  status: ('A' for Active; 'I' for Inactive)
REMARK    1  A    between atoms: C_1  and  C_2
REMARK    2  A    between atoms: C_2  and  C_3
REMARK    3  A    between atoms: C_9  and  C_11
REMARK    4  A    between atoms: C_11  and  C_13
REMARK    5  A    between atoms: C_11  and  N_20
REMARK    6  A    between atoms: C_16  and  C_19
REMARK                            x       y       z     vdW  Elec       q    Type
REMARK                         _______ _______ _______ _____ _____    ______ ____
ROOT
ATOM      1  C   UNL     1       2.490   1.048  -0.016  0.00  0.00    +0.006 C 
ENDROOT
BRANCH   1   8
ATOM      2  C   UNL     1       4.429   0.212  -5.592  0.00  0.00    +0.152 A 
ATOM      3  N   UNL     1       4.588   1.421  -5.058  0.00  0.00    -0.205 NA
ATOM      4  C   UNL     1       4.111   1.422  -3.843  0.00  0.00    +0.199 A 
ATOM      5  N   UNL     1       3.617   0.189  -3.546  0.00  0.00    -0.170 N 
ATOM      6  N   UNL     1       3.849  -0.570  -4.722  0.00  0.00    -0.146 NA
ATOM      7  C   UNL     1       3.077   0.012  -2.294  0.00  0.00    +0.282 A 
ATOM      8  C   UNL     1       3.036   1.025  -1.420  0.00  0.00    +0.050 A 
ATOM      9  S   UNL     1       3.804   2.340  -2.353  0.00  0.00    -0.050 S 
ATOM     10  O   UNL     1       2.576  -1.202  -1.942  0.00  0.00    -0.265 OA
BRANCH   2  12
ATOM     11  C   UNL     1       3.705   0.068  -7.959  0.00  0.00    +0.012 C 
ATOM     12  C   UNL     1       4.853  -0.190  -6.981  0.00  0.00    +0.075 C 
ENDBRANCH   2  12
ENDBRANCH   1   8
BRANCH   1  13
ATOM     13  C   UNL     1       1.175   1.783   0.000  0.00  0.00    -0.056 A 
ATOM     14  C   UNL     1      -0.013   1.076   0.008  0.00  0.00    +0.002 A 
ATOM     15  C   UNL     1      -1.219   1.751   0.017  0.00  0.00    +0.003 A 
ATOM     16  C   UNL     1      -1.238   3.133   0.029  0.00  0.00    -0.050 A 
ATOM     17  C   UNL     1      -0.050   3.840   0.022  0.00  0.00    +0.003 A 
ATOM     18  C   UNL     1       1.156   3.165   0.008  0.00  0.00    +0.002 A 
ATOM     19  C   UNL     1      -2.553   3.869   0.045  0.00  0.00    +0.044 C 
ENDBRANCH   1  13
BRANCH   1  20
ATOM     20  N   UNL     1       3.444   1.730   0.869  0.00  0.00    +0.387 N 
ATOM     21  C   UNL     1       2.913   1.823   2.253  0.00  0.00    -0.078 C 
ATOM     22  C   UNL     1       4.186   2.055   3.106  0.00  0.00    -0.020 C 
ATOM     23  C   UNL     1       5.239   1.168   2.404  0.00  0.00    -0.020 C 
ATOM     24  C   UNL     1       4.708   0.970   0.972  0.00  0.00    -0.078 C 
ATOM     25  H   UNL     1       3.605   2.724   0.426  0.00  0.00    -0.080 HD
ENDBRANCH   1  20
TORSDOF 4
