REMARK  Name = ZINC09012358
REMARK  3 active torsions:
REMARK  status: ('A' for Active; 'I' for Inactive)
REMARK    1  A    between atoms: C_4  and  O_30
REMARK    2  A    between atoms: C_5  and  C_7
REMARK    3  A    between atoms: C_12  and  C_20
REMARK                            x       y       z     vdW  Elec       q    Type
REMARK                         _______ _______ _______ _____ _____    ______ ____
ROOT
ATOM      1  C   UNL     1       1.227  -2.187  -0.022  0.00  0.00    +0.035 C 
ATOM      2  C   UNL     1       0.514  -2.719   1.223  0.00  0.00    +0.060 C 
ATOM      3  C   UNL     1       0.500  -4.229   1.193  0.00  0.00    +0.020 C 
ATOM      4  C   UNL     1       0.452  -4.898   0.021  0.00  0.00    +0.041 C 
ATOM      5  C   UNL     1       0.420  -6.409  -0.041  0.00  0.00    +0.178 C 
ATOM      6  N   UNL     1       0.785  -6.969   1.254  0.00  0.00    -0.221 N 
ATOM      7  C   UNL     1       0.835  -6.239   2.395  0.00  0.00    +0.218 A 
ATOM      8  N   UNL     1       1.186  -7.034   3.368  0.00  0.00    -0.201 NA
ATOM      9  C   UNL     1       1.372  -8.269   2.890  0.00  0.00    +0.247 A 
ATOM     10  N   UNL     1       1.138  -8.272   1.601  0.00  0.00    -0.156 NA
ATOM     11  N   UNL     1       0.546  -4.884   2.400  0.00  0.00    -0.287 N 
ATOM     12  C   UNL     1       0.434  -4.207  -1.204  0.00  0.00    +0.164 C 
ATOM     13  O   UNL     1       0.374  -4.838  -2.241  0.00  0.00    -0.292 OA
ATOM     14  C   UNL     1       0.488  -2.705  -1.260  0.00  0.00    +0.088 C 
ATOM     15  H   UNL     1       0.380  -4.412   3.231  0.00  0.00    +0.155 HD
ENDROOT
BRANCH   5  16
ATOM     16  C   UNL     1      -0.969  -6.865  -0.407  0.00  0.00    +0.017 A 
ATOM     17  C   UNL     1      -2.041  -6.536   0.402  0.00  0.00    +0.009 A 
ATOM     18  C   UNL     1      -3.315  -6.954   0.067  0.00  0.00    +0.001 A 
ATOM     19  C   UNL     1      -3.519  -7.702  -1.077  0.00  0.00    +0.003 A 
ATOM     20  C   UNL     1      -2.450  -8.033  -1.888  0.00  0.00    +0.039 A 
ATOM     21  C   UNL     1      -1.174  -7.610  -1.556  0.00  0.00    +0.129 A 
ATOM     22  F   UNL     1      -0.128  -7.928  -2.350  0.00  0.00    -0.205 F 
ENDBRANCH   5  16
BRANCH   1  27
ATOM     23  C   UNL     1      -0.017   1.378   0.010  0.00  0.00    +0.001 A 
ATOM     24  C   UNL     1       1.170   2.088   0.002  0.00  0.00    +0.004 A 
ATOM     25  C   UNL     1       2.377   1.417  -0.013  0.00  0.00    +0.046 A 
ATOM     26  C   UNL     1       2.399   0.030  -0.021  0.00  0.00    +0.120 A 
ATOM     27  C   UNL     1       1.207  -0.680  -0.013  0.00  0.00    -0.002 A 
ATOM     28  C   UNL     1       0.002  -0.004   0.002  0.00  0.00    +0.007 A 
BRANCH  26  29
ATOM     29  O   UNL     1       3.586  -0.632  -0.037  0.00  0.00    -0.506 OA
ATOM     30  H   UNL     1       3.938  -0.829   0.842  0.00  0.00    +0.292 HD
ENDBRANCH  26  29
ENDBRANCH   1  27
TORSDOF 3
