REMARK  Name = ZINC20449952
REMARK  14 active torsions:
REMARK  status: ('A' for Active; 'I' for Inactive)
REMARK    1  A    between atoms: C_1  and  C_2
REMARK    2  A    between atoms: C_3  and  C_8
REMARK    3  A    between atoms: N_5  and  C_7
REMARK    4  A    between atoms: C_8  and  N_9
REMARK    5  A    between atoms: N_9  and  C_10
REMARK    6  A    between atoms: C_10  and  C_11
REMARK    7  A    between atoms: C_16  and  O_23
REMARK    8  A    between atoms: C_17  and  O_21
REMARK    9  A    between atoms: C_18  and  O_19
REMARK   10  A    between atoms: O_19  and  C_20
REMARK   11  A    between atoms: O_21  and  C_22
REMARK   12  A    between atoms: O_23  and  C_24
REMARK   13  A    between atoms: C_26  and  N_27
REMARK   14  A    between atoms: C_31  and  O_34
REMARK                            x       y       z     vdW  Elec       q    Type
REMARK                         _______ _______ _______ _____ _____    ______ ____
ROOT
ATOM      1  C   UNL     1      -1.341  -2.059   3.185  0.00  0.00    -0.024 A 
ATOM      2  C   UNL     1      -1.093  -0.849   2.608  0.00  0.00    +0.019 A 
ATOM      3  C   UNL     1      -2.188  -0.069   2.193  0.00  0.00    +0.046 A 
ATOM      4  C   UNL     1      -3.501  -0.565   2.388  0.00  0.00    +0.080 A 
ATOM      5  C   UNL     1      -4.598   0.209   1.976  0.00  0.00    +0.078 A 
ATOM      6  C   UNL     1      -4.390   1.437   1.389  0.00  0.00    +0.167 A 
ATOM      7  C   UNL     1      -3.094   1.931   1.201  0.00  0.00    +0.204 A 
ATOM      8  C   UNL     1      -1.998   1.190   1.591  0.00  0.00    +0.174 A 
ATOM      9  N   UNL     1      -3.684  -1.762   2.960  0.00  0.00    -0.232 NA
ATOM     10  C   UNL     1      -2.661  -2.496   3.350  0.00  0.00    +0.123 A 
ENDROOT
BRANCH  10  11
ATOM     11  N   UNL     1      -2.898  -3.731   3.938  0.00  0.00    -0.313 N 
ATOM     12  C   UNL     1      -3.599  -4.629   3.012  0.00  0.00    +0.106 C 
ATOM     13  C   UNL     1      -3.714  -6.021   3.638  0.00  0.00    +0.021 C 
ATOM     14  C   UNL     1      -4.482  -5.919   4.959  0.00  0.00    +0.034 C 
ATOM     15  C   UNL     1      -3.757  -4.941   5.887  0.00  0.00    +0.132 C 
ATOM     16  C   UNL     1      -3.641  -3.580   5.196  0.00  0.00    +0.137 C 
BRANCH  15  17
ATOM     17  O   UNL     1      -4.496  -4.798   7.101  0.00  0.00    -0.390 OA
ATOM     18  H   UNL     1      -4.128  -4.131   7.895  0.00  0.00    +0.210 HD
ENDBRANCH  15  17
ENDBRANCH  10  11
BRANCH   8  19
ATOM     19  O   UNL     1      -0.743   1.674   1.400  0.00  0.00    -0.491 OA
ATOM     20  C   UNL     1      -0.208   2.511   2.427  0.00  0.00    +0.277 C 
ENDBRANCH   8  19
BRANCH   7  21
ATOM     21  O   UNL     1      -2.913   3.150   0.624  0.00  0.00    -0.488 OA
ATOM     22  C   UNL     1      -2.798   3.184  -0.800  0.00  0.00    +0.277 C 
ENDBRANCH   7  21
BRANCH   6  23
ATOM     23  O   UNL     1      -5.456   2.180   0.993  0.00  0.00    -0.491 OA
ATOM     24  C   UNL     1      -6.753   1.624   1.217  0.00  0.00    +0.277 C 
ENDBRANCH   6  23
BRANCH   1  25
ATOM     25  C   UNL     1      -0.196  -2.926   3.643  0.00  0.00    -0.043 C 
BRANCH  25  26
ATOM     26  N   UNL     1       0.014  -4.012   2.676  0.00  0.00    +0.385 N 
ATOM     27  H   UNL     1       0.240  -3.570   1.694  0.00  0.00    -0.085 HD
ATOM     28  H   UNL     1      -0.909  -4.606   2.607  0.00  0.00    -0.085 HD
BRANCH  26  29
ATOM     29  C   UNL     1       1.125  -4.879   3.091  0.00  0.00    -0.043 C 
BRANCH  29  32
ATOM     30  C   UNL     1       2.630  -4.618   0.314  0.00  0.00    +0.068 C 
ATOM     31  C   UNL     1       1.974  -5.864   0.851  0.00  0.00    +0.061 A 
ATOM     32  C   UNL     1       1.309  -5.978   2.076  0.00  0.00    -0.024 A 
ATOM     33  C   UNL     1       0.867  -7.252   2.193  0.00  0.00    +0.110 A 
ATOM     34  N   UNL     1       1.231  -7.917   1.077  0.00  0.00    -0.274 N 
ATOM     35  N   UNL     1       1.927  -7.026   0.251  0.00  0.00    -0.177 NA
ATOM     36  C   UNL     1       0.951  -9.325   0.783  0.00  0.00    +0.172 C 
ENDBRANCH  29  32
ENDBRANCH  26  29
ENDBRANCH  25  26
ENDBRANCH   1  25
TORSDOF 9
