REMARK  Name = ZINC04858448
REMARK  7 active torsions:
REMARK  status: ('A' for Active; 'I' for Inactive)
REMARK    1  A    between atoms: C_1  and  C_2
REMARK    2  A    between atoms: C_4  and  C_27
REMARK    3  A    between atoms: N_14  and  C_15
REMARK    4  A    between atoms: N_21  and  C_23
REMARK    5  A    between atoms: C_23  and  C_24
REMARK    6  A    between atoms: C_24  and  C_25
REMARK    7  A    between atoms: C_25  and  O_26
REMARK                            x       y       z     vdW  Elec       q    Type
REMARK                         _______ _______ _______ _____ _____    ______ ____
ROOT
ATOM      1  C   UNL     1      -3.969  -2.541  -7.987  0.00  0.00    +0.044 C 
ATOM      2  C   UNL     1      -3.142  -1.494  -7.286  0.00  0.00    -0.050 A 
ATOM      3  C   UNL     1      -2.350  -0.628  -8.036  0.00  0.00    +0.008 A 
ATOM      4  C   UNL     1      -1.588   0.325  -7.433  0.00  0.00    -0.024 A 
ATOM      5  C   UNL     1      -1.595   0.441  -6.033  0.00  0.00    +0.075 A 
ATOM      6  C   UNL     1      -2.412  -0.432  -5.273  0.00  0.00    +0.001 A 
ATOM      7  C   UNL     1      -3.180  -1.407  -5.927  0.00  0.00    +0.013 A 
ATOM      8  C   UNL     1      -2.429  -0.295  -3.875  0.00  0.00    +0.017 A 
ATOM      9  C   UNL     1      -1.657   0.676  -3.283  0.00  0.00    +0.003 A 
ATOM     10  C   UNL     1      -0.846   1.480  -4.084  0.00  0.00    +0.109 A 
ATOM     11  N   UNL     1      -0.848   1.348  -5.405  0.00  0.00    -0.239 NA
ATOM     12  S   UNL     1       0.230   2.709  -3.412  0.00  0.00    -0.034 S 
ATOM     13  C   UNL     1      -0.399   2.786  -1.764  0.00  0.00    +0.163 C 
ATOM     14  N   UNL     1      -0.553   3.926  -1.130  0.00  0.00    -0.226 NA
ATOM     15  N   UNL     1      -0.721   1.571  -1.179  0.00  0.00    -0.305 N 
ATOM     16  C   UNL     1      -1.789   0.793  -1.795  0.00  0.00    +0.144 C 
ATOM     17  C   UNL     1      -0.740   1.253  -8.264  0.00  0.00    +0.046 C 
ENDROOT
BRANCH  14  18
ATOM     18  C   UNL     1      -0.221   5.103  -1.747  0.00  0.00    +0.067 A 
ATOM     19  C   UNL     1       0.980   5.212  -2.450  0.00  0.00    +0.028 A 
ATOM     20  C   UNL     1       1.306   6.399  -3.074  0.00  0.00    +0.002 A 
ATOM     21  C   UNL     1       0.450   7.483  -2.995  0.00  0.00    +0.000 A 
ATOM     22  C   UNL     1      -0.741   7.383  -2.296  0.00  0.00    +0.002 A 
ATOM     23  C   UNL     1      -1.081   6.201  -1.672  0.00  0.00    +0.028 A 
ENDBRANCH  14  18
BRANCH  15  24
ATOM     24  C   UNL     1      -0.013   1.086   0.008  0.00  0.00    +0.109 C 
BRANCH  24  25
ATOM     25  C   UNL     1      -0.729   1.579   1.267  0.00  0.00    +0.047 C 
BRANCH  25  26
ATOM     26  C   UNL     1       0.011   1.072   2.506  0.00  0.00    +0.157 C 
BRANCH  26  27
ATOM     27  O   UNL     1      -0.658   1.533   3.682  0.00  0.00    -0.395 OA
ATOM     28  H   UNL     1      -0.242   1.249   4.508  0.00  0.00    +0.209 HD
ENDBRANCH  26  27
ENDBRANCH  25  26
ENDBRANCH  24  25
ENDBRANCH  15  24
TORSDOF 5
