REMARK  Name = ZINC32935321
REMARK  6 active torsions:
REMARK  status: ('A' for Active; 'I' for Inactive)
REMARK    1  A    between atoms: C_1  and  C_2
REMARK    2  A    between atoms: C_5  and  N_10
REMARK    3  A    between atoms: C_6  and  C_9
REMARK    4  A    between atoms: C_7  and  O_8
REMARK    5  A    between atoms: N_10  and  S_11
REMARK    6  A    between atoms: S_11  and  C_14
REMARK                            x       y       z     vdW  Elec       q    Type
REMARK                         _______ _______ _______ _____ _____    ______ ____
ROOT
ATOM      1  N   UNL     1      -0.011   0.966   0.007  0.00  0.00    -0.216 N 
ATOM      2  H   UNL     1       0.009  -0.108   0.245  0.00  0.00    +0.174 HD
ENDROOT
BRANCH   1   7
ATOM      3  C   UNL     1       4.844   3.800  -0.761  0.00  0.00    +0.047 C 
ATOM      4  C   UNL     1       3.555   3.046  -0.558  0.00  0.00    -0.009 A 
ATOM      5  C   UNL     1       2.480   3.668   0.049  0.00  0.00    +0.009 A 
ATOM      6  C   UNL     1       1.297   2.981   0.237  0.00  0.00    +0.025 A 
ATOM      7  C   UNL     1       1.185   1.661  -0.183  0.00  0.00    +0.054 A 
ATOM      8  C   UNL     1       2.265   1.034  -0.788  0.00  0.00    +0.014 A 
ATOM      9  C   UNL     1       3.449   1.729  -0.980  0.00  0.00    +0.124 A 
ATOM     10  C   UNL     1       2.150  -0.400  -1.239  0.00  0.00    +0.049 C 
BRANCH   9  11
ATOM     11  O   UNL     1       4.507   1.119  -1.576  0.00  0.00    -0.506 OA
ATOM     12  H   UNL     1       4.422   0.074  -1.911  0.00  0.00    +0.292 HD
ENDBRANCH   9  11
ENDBRANCH   1   7
BRANCH   1  13
ATOM     13  S   UNL     1      -1.459   1.758  -0.124  0.00  0.00    +0.072 S 
ATOM     14  O   UNL     1      -2.474   0.770  -0.012  0.00  0.00    -0.150 OA
ATOM     15  O   UNL     1      -1.389   2.880   0.746  0.00  0.00    -0.150 OA
BRANCH  13  16
ATOM     16  C   UNL     1      -1.557   2.397  -1.763  0.00  0.00    +0.110 A 
ATOM     17  C   UNL     1      -2.117   1.633  -2.771  0.00  0.00    +0.029 A 
ATOM     18  C   UNL     1      -2.195   2.134  -4.056  0.00  0.00    +0.003 A 
ATOM     19  C   UNL     1      -1.712   3.399  -4.336  0.00  0.00    +0.015 A 
ATOM     20  C   UNL     1      -1.151   4.163  -3.328  0.00  0.00    +0.020 A 
ATOM     21  C   UNL     1      -1.079   3.664  -2.040  0.00  0.00    +0.044 A 
ATOM     22 BR   UNL     1      -0.491   5.894  -3.710  0.00  0.00    -0.050 Br
ENDBRANCH  13  16
ENDBRANCH   1  13
TORSDOF 4
