REMARK  Name = ZINC14016897
REMARK  7 active torsions:
REMARK  status: ('A' for Active; 'I' for Inactive)
REMARK    1  A    between atoms: C_1  and  O_2
REMARK    2  A    between atoms: O_2  and  C_3
REMARK    3  A    between atoms: C_3  and  C_5
REMARK    4  A    between atoms: C_8  and  C_11
REMARK    5  A    between atoms: C_17  and  C_19
REMARK    6  A    between atoms: N_24  and  S_26
REMARK    7  A    between atoms: S_26  and  C_29
REMARK                            x       y       z     vdW  Elec       q    Type
REMARK                         _______ _______ _______ _____ _____    ______ ____
ROOT
ATOM      1  C   UNL     1      -5.189  -4.843   6.577  0.00  0.00    +0.080 A 
ATOM      2  C   UNL     1      -5.992  -3.734   6.594  0.00  0.00    +0.076 A 
ATOM      3  S   UNL     1      -5.063  -2.636   5.532  0.00  0.00    -0.060 S 
ATOM      4  C   UNL     1      -3.714  -3.754   5.179  0.00  0.00    +0.165 A 
ATOM      5  N   UNL     1      -4.072  -4.824   5.864  0.00  0.00    -0.225 NA
ATOM      6  N   UNL     1      -2.590  -3.553   4.388  0.00  0.00    -0.264 N 
ATOM      7  C   UNL     1      -2.411  -2.374   3.759  0.00  0.00    +0.223 C 
ATOM      8  O   UNL     1      -3.231  -1.489   3.885  0.00  0.00    -0.275 OA
ATOM      9  H   UNL     1      -1.935  -4.261   4.287  0.00  0.00    +0.157 HD
ENDROOT
BRANCH   1  13
ATOM     10  C   UNL     1      -6.272  -8.310   8.773  0.00  0.00    +0.059 A 
ATOM     11  C   UNL     1      -5.089  -8.295   8.027  0.00  0.00    +0.015 A 
ATOM     12  C   UNL     1      -4.741  -7.179   7.321  0.00  0.00    +0.011 A 
ATOM     13  C   UNL     1      -5.566  -6.052   7.343  0.00  0.00    +0.001 A 
ATOM     14  C   UNL     1      -6.745  -6.064   8.093  0.00  0.00    +0.011 A 
ATOM     15  C   UNL     1      -7.097  -7.181   8.795  0.00  0.00    +0.015 A 
BRANCH  10  16
ATOM     16  C   UNL     1      -6.648  -9.514   9.536  0.00  0.00    +0.339 C 
ATOM     17  O   UNL     1      -5.930 -10.494   9.517  0.00  0.00    -0.245 OA
BRANCH  16  19
ATOM     18  C   UNL     1      -8.094 -10.747  10.981  0.00  0.00    +0.280 C 
ATOM     19  O   UNL     1      -7.788  -9.528  10.255  0.00  0.00    -0.464 OA
ENDBRANCH  16  19
ENDBRANCH  10  16
ENDBRANCH   1  13
BRANCH   7  20
ATOM     20  C   UNL     1      -1.192  -2.156   2.901  0.00  0.00    +0.091 C 
ATOM     21  C   UNL     1       0.069  -2.312   3.755  0.00  0.00    +0.015 C 
ATOM     22  C   UNL     1       1.308  -2.123   2.877  0.00  0.00    +0.018 C 
ATOM     23  C   UNL     1       1.298  -0.716   2.281  0.00  0.00    +0.109 C 
ATOM     24  N   UNL     1       0.024  -0.502   1.581  0.00  0.00    -0.176 NA
ATOM     25  C   UNL     1      -1.230  -0.745   2.307  0.00  0.00    +0.122 C 
BRANCH  24  26
ATOM     26  S   UNL     1       0.002  -0.004   0.002  0.00  0.00    +0.061 S 
ATOM     27  O   UNL     1      -1.243  -0.424  -0.539  0.00  0.00    -0.153 OA
ATOM     28  O   UNL     1       1.248  -0.390  -0.563  0.00  0.00    -0.153 OA
BRANCH  26  29
ATOM     29  C   UNL     1      -0.022   1.758   0.012  0.00  0.00    +0.106 A 
ATOM     30  C   UNL     1      -1.228   2.432   0.021  0.00  0.00    +0.030 A 
ATOM     31  C   UNL     1      -1.248   3.814   0.035  0.00  0.00    +0.022 A 
ATOM     32  C   UNL     1      -0.059   4.523   0.027  0.00  0.00    +0.041 A 
ATOM     33  C   UNL     1       1.148   3.847   0.012  0.00  0.00    +0.022 A 
ATOM     34  C   UNL     1       1.166   2.465   0.004  0.00  0.00    +0.030 A 
ATOM     35 CL   UNL     1      -0.083   6.258   0.036  0.00  0.00    -0.084 Cl
ENDBRANCH  26  29
ENDBRANCH  24  26
ENDBRANCH   7  20
TORSDOF 6
