REMARK  Name = ZINC02885035
REMARK  4 active torsions:
REMARK  status: ('A' for Active; 'I' for Inactive)
REMARK    1  A    between atoms: C_1  and  O_2
REMARK    2  A    between atoms: O_2  and  C_3
REMARK    3  A    between atoms: C_5  and  C_11
REMARK    4  A    between atoms: C_8  and  O_9
REMARK                            x       y       z     vdW  Elec       q    Type
REMARK                         _______ _______ _______ _____ _____    ______ ____
ROOT
ATOM      1  C   UNL     1      -2.513   0.975   0.019  0.00  0.00    +0.060 C 
ATOM      2  C   UNL     1      -2.573   0.088   1.264  0.00  0.00    +0.109 C 
ATOM      3  C   UNL     1      -1.600  -1.053   1.118  0.00  0.00    +0.218 C 
ATOM      4  O   UNL     1      -0.983  -1.445   2.085  0.00  0.00    -0.275 OA
ATOM      5  N   UNL     1      -1.411  -1.639  -0.076  0.00  0.00    -0.285 N 
ATOM      6  C   UNL     1      -2.028  -1.140  -1.228  0.00  0.00    +0.038 A 
ATOM      7  C   UNL     1      -2.586   0.119  -1.218  0.00  0.00    -0.011 A 
ATOM      8  C   UNL     1      -3.224   0.605  -2.371  0.00  0.00    -0.012 A 
ATOM      9  C   UNL     1      -3.834   1.871  -2.387  0.00  0.00    +0.009 A 
ATOM     10  C   UNL     1      -4.443   2.311  -3.522  0.00  0.00    +0.001 A 
ATOM     11  C   UNL     1      -4.472   1.524  -4.672  0.00  0.00    +0.001 A 
ATOM     12  C   UNL     1      -3.892   0.293  -4.694  0.00  0.00    +0.008 A 
ATOM     13  C   UNL     1      -3.254  -0.196  -3.541  0.00  0.00    -0.017 A 
ATOM     14  C   UNL     1      -2.644  -1.462  -3.528  0.00  0.00    +0.010 A 
ATOM     15  C   UNL     1      -2.047  -1.915  -2.395  0.00  0.00    +0.024 A 
ATOM     16  H   UNL     1      -0.839  -2.420  -0.141  0.00  0.00    +0.155 HD
ENDROOT
BRANCH   1  19
ATOM     17  C   UNL     1      -0.056   3.846   0.022  0.00  0.00    +0.163 A 
ATOM     18  C   UNL     1      -1.244   3.131   0.030  0.00  0.00    +0.053 A 
ATOM     19  C   UNL     1      -1.220   1.749   0.017  0.00  0.00    -0.034 A 
ATOM     20  C   UNL     1      -0.013   1.076   0.008  0.00  0.00    +0.028 A 
ATOM     21  C   UNL     1       1.177   1.782   0.000  0.00  0.00    +0.086 A 
ATOM     22  C   UNL     1       1.159   3.169   0.008  0.00  0.00    +0.177 A 
ATOM     23 CL   UNL     1       2.691   0.933  -0.019  0.00  0.00    -0.080 Cl
BRANCH  17  25
ATOM     24  C   UNL     1      -1.363   5.833   0.045  0.00  0.00    +0.277 C 
ATOM     25  O   UNL     1      -0.079   5.205   0.030  0.00  0.00    -0.491 OA
ENDBRANCH  17  25
BRANCH  22  26
ATOM     26  O   UNL     1       2.327   3.866   0.001  0.00  0.00    -0.502 OA
ATOM     27  H   UNL     1       2.657   4.072  -0.885  0.00  0.00    +0.292 HD
ENDBRANCH  22  26
ENDBRANCH   1  19
TORSDOF 3
