REMARK  Name = ZINC23429756
REMARK  7 active torsions:
REMARK  status: ('A' for Active; 'I' for Inactive)
REMARK    1  A    between atoms: C_1  and  C_2
REMARK    2  A    between atoms: C_5  and  S_8
REMARK    3  A    between atoms: S_8  and  C_9
REMARK    4  A    between atoms: C_11  and  N_16
REMARK    5  A    between atoms: N_16  and  C_17
REMARK    6  A    between atoms: C_17  and  C_18
REMARK    7  A    between atoms: C_24  and  C_26
REMARK                            x       y       z     vdW  Elec       q    Type
REMARK                         _______ _______ _______ _____ _____    ______ ____
ROOT
ATOM      1  C   UNL     1      -4.354  -3.091   6.160  0.00  0.00    +0.108 A 
ATOM      2  C   UNL     1      -3.693  -2.052   5.511  0.00  0.00    +0.078 A 
ATOM      3  C   UNL     1      -4.036  -1.772   4.191  0.00  0.00    +0.125 A 
ATOM      4  N   UNL     1      -4.971  -2.507   3.595  0.00  0.00    -0.200 NA
ATOM      5  C   UNL     1      -5.576  -3.491   4.242  0.00  0.00    +0.215 A 
ATOM      6  N   UNL     1      -5.280  -3.784   5.500  0.00  0.00    -0.208 NA
ATOM      7  N   UNL     1      -6.544  -4.234   3.588  0.00  0.00    -0.327 N 
ATOM      8  H   UNL     1      -7.056  -5.054   4.113  0.00  0.00    +0.145 HD
ATOM      9  H   UNL     1      -6.802  -4.003   2.544  0.00  0.00    +0.145 HD
ENDROOT
BRANCH   3  10
ATOM     10  N   UNL     1      -3.407  -0.744   3.506  0.00  0.00    -0.323 N 
ATOM     11  H   UNL     1      -3.680  -0.531   2.462  0.00  0.00    +0.148 HD
BRANCH  10  12
ATOM     12  C   UNL     1      -2.379   0.060   4.172  0.00  0.00    +0.158 C 
BRANCH  12  13
ATOM     13  C   UNL     1      -1.858   1.102   3.216  0.00  0.00    +0.065 A 
ATOM     14  C   UNL     1      -2.063   2.424   3.471  0.00  0.00    +0.095 A 
ATOM     15  C   UNL     1      -1.563   3.373   2.555  0.00  0.00    +0.252 A 
ATOM     16  O   UNL     1      -1.725   4.567   2.746  0.00  0.00    -0.268 OA
ATOM     17  N   UNL     1      -0.897   2.932   1.467  0.00  0.00    -0.311 N 
ATOM     18  H   UNL     1      -0.490   3.653   0.742  0.00  0.00    +0.170 HD
ATOM     19  C   UNL     1      -0.732   1.610   1.270  0.00  0.00    +0.107 A 
ATOM     20  N   UNL     1      -1.195   0.731   2.118  0.00  0.00    -0.237 NA
ATOM     21  C   UNL     1       0.009   1.134   0.047  0.00  0.00    +0.086 C 
ENDBRANCH  12  13
ENDBRANCH  10  12
ENDBRANCH   3  10
BRANCH   1  22
ATOM     22  S   UNL     1      -3.967  -3.488   7.833  0.00  0.00    -0.070 S 
BRANCH  22  27
ATOM     23  C   UNL     1      -8.202  -7.646   8.932  0.00  0.00    +0.044 C 
ATOM     24  C   UNL     1      -7.145  -6.607   8.658  0.00  0.00    -0.050 A 
ATOM     25  C   UNL     1      -5.888  -6.998   8.232  0.00  0.00    +0.004 A 
ATOM     26  C   UNL     1      -4.917  -6.050   7.980  0.00  0.00    +0.015 A 
ATOM     27  C   UNL     1      -5.203  -4.701   8.154  0.00  0.00    +0.014 A 
ATOM     28  C   UNL     1      -6.465  -4.312   8.586  0.00  0.00    +0.015 A 
ATOM     29  C   UNL     1      -7.434  -5.266   8.831  0.00  0.00    +0.004 A 
ENDBRANCH  22  27
ENDBRANCH   1  22
TORSDOF 5
