REMARK  Name = ZINC10816183
REMARK  10 active torsions:
REMARK  status: ('A' for Active; 'I' for Inactive)
REMARK    1  A    between atoms: C_1  and  N_61
REMARK    2  A    between atoms: C_2  and  N_61
REMARK    3  A    between atoms: C_3  and  C_4
REMARK    4  A    between atoms: C_3  and  N_61
REMARK    5  A    between atoms: C_4  and  N_5
REMARK    6  A    between atoms: C_11  and  S_15
REMARK    7  A    between atoms: S_15  and  C_16
REMARK    8  A    between atoms: C_17  and  C_19
REMARK    9  A    between atoms: C_22  and  S_25
REMARK   10  A    between atoms: S_25  and  N_28
REMARK                            x       y       z     vdW  Elec       q    Type
REMARK                         _______ _______ _______ _____ _____    ______ ____
ROOT
ATOM      1  N   UNL     1      -0.142   0.191  -0.539  0.00  0.00    -0.248 N 
ATOM      2  C   UNL     1      -1.185  -0.657  -0.204  0.00  0.00    +0.168 A 
ATOM      3  N   UNL     1      -1.348  -1.922  -0.512  0.00  0.00    -0.224 NA
ATOM      4  C   UNL     1      -2.425  -2.635  -0.113  0.00  0.00    +0.080 A 
ATOM      5  C   UNL     1      -2.719  -3.993  -0.376  0.00  0.00    +0.030 A 
ATOM      6  C   UNL     1      -3.855  -4.568   0.101  0.00  0.00    +0.017 A 
ATOM      7  C   UNL     1      -4.772  -3.847   0.864  0.00  0.00    +0.009 A 
ATOM      8  C   UNL     1      -4.519  -2.510   1.143  0.00  0.00    +0.032 A 
ATOM      9  C   UNL     1      -3.372  -1.928   0.662  0.00  0.00    +0.042 A 
ATOM     10  S   UNL     1      -2.645  -0.310   0.765  0.00  0.00    -0.052 S 
ATOM     11  C   UNL     1      -0.156   1.472  -0.121  0.00  0.00    +0.252 C 
ATOM     12  O   UNL     1      -1.110   1.900   0.498  0.00  0.00    -0.270 OA
ENDROOT
BRANCH  11  13
ATOM     13  C   UNL     1       0.987   2.360  -0.422  0.00  0.00    +0.037 A 
ATOM     14  C   UNL     1       2.266   1.825  -0.585  0.00  0.00    +0.015 A 
ATOM     15  C   UNL     1       3.328   2.658  -0.872  0.00  0.00    +0.029 A 
ATOM     16  C   UNL     1       3.129   4.022  -0.986  0.00  0.00    +0.106 A 
ATOM     17  C   UNL     1       1.865   4.560  -0.821  0.00  0.00    +0.029 A 
ATOM     18  C   UNL     1       0.794   3.737  -0.539  0.00  0.00    +0.015 A 
BRANCH  16  19
ATOM     19  S   UNL     1       4.492   5.080  -1.344  0.00  0.00    +0.061 S 
ATOM     20  O   UNL     1       5.469   4.278  -1.993  0.00  0.00    -0.153 OA
ATOM     21  O   UNL     1       3.951   6.252  -1.939  0.00  0.00    -0.153 OA
BRANCH  19  22
ATOM     22  N   UNL     1       5.146   5.544   0.105  0.00  0.00    -0.177 NA
ATOM     23  C   UNL     1       4.761   6.734   0.877  0.00  0.00    +0.109 C 
ATOM     24  C   UNL     1       5.651   6.770   2.137  0.00  0.00    +0.018 C 
ATOM     25  C   UNL     1       6.878   5.918   1.718  0.00  0.00    +0.018 C 
ATOM     26  C   UNL     1       6.215   4.835   0.831  0.00  0.00    +0.109 C 
ENDBRANCH  19  22
ENDBRANCH  16  19
ENDBRANCH  11  13
BRANCH   7  27
ATOM     27  S   UNL     1      -6.235  -4.622   1.467  0.00  0.00    -0.129 S 
ATOM     28  C   UNL     1      -6.114  -6.325   0.853  0.00  0.00    +0.090 C 
ENDBRANCH   7  27
BRANCH   1  29
ATOM     29  C   UNL     1       0.975  -0.305  -1.346  0.00  0.00    +0.097 C 
BRANCH  29  30
ATOM     30  C   UNL     1       1.851  -1.226  -0.495  0.00  0.00    -0.060 C 
BRANCH  30  33
ATOM     31  C   UNL     1       3.960  -2.415  -0.467  0.00  0.00    -0.097 C 
ATOM     32  C   UNL     1       2.493  -2.596  -2.385  0.00  0.00    -0.097 C 
ATOM     33  N   UNL     1       2.984  -1.700  -1.317  0.00  0.00    +0.377 N 
ATOM     34  H   UNL     1       3.446  -0.890  -1.747  0.00  0.00    -0.083 HD
ENDBRANCH  30  33
ENDBRANCH  29  30
ENDBRANCH   1  29
TORSDOF 7
