REMARK  Name = ZINC14466912
REMARK  7 active torsions:
REMARK  status: ('A' for Active; 'I' for Inactive)
REMARK    1  A    between atoms: C_4  and  C_7
REMARK    2  A    between atoms: C_7  and  C_8
REMARK    3  A    between atoms: C_8  and  N_9
REMARK    4  A    between atoms: N_9  and  S_10
REMARK    5  A    between atoms: S_10  and  C_13
REMARK    6  A    between atoms: C_26  and  C_29
REMARK    7  A    between atoms: C_34  and  O_35
REMARK                            x       y       z     vdW  Elec       q    Type
REMARK                         _______ _______ _______ _____ _____    ______ ____
ROOT
ATOM      1  C   UNL     1       4.821   0.598   1.944  0.00  0.00    +0.106 A 
ATOM      2  C   UNL     1       5.095   0.579   0.589  0.00  0.00    +0.030 A 
ATOM      3  C   UNL     1       4.665   1.619  -0.211  0.00  0.00    +0.025 A 
ATOM      4  C   UNL     1       3.961   2.679   0.347  0.00  0.00    +0.031 A 
ATOM      5  C   UNL     1       3.687   2.704   1.706  0.00  0.00    -0.018 A 
ATOM      6  C   UNL     1       4.124   1.652   2.499  0.00  0.00    +0.034 A 
ATOM      7  C   UNL     1       2.941   3.828   2.351  0.00  0.00    +0.049 C 
ATOM      8  C   UNL     1       1.524   3.429   2.690  0.00  0.00    -0.023 C 
ATOM      9  C   UNL     1       0.708   4.446   2.508  0.00  0.00    -0.030 C 
ATOM     10  C   UNL     1       1.476   5.662   2.029  0.00  0.00    +0.033 C 
ATOM     11  C   UNL     1       2.777   5.053   1.427  0.00  0.00    +0.029 C 
ATOM     12  C   UNL     1       2.447   4.590   0.005  0.00  0.00    +0.109 C 
ATOM     13  N   UNL     1       3.529   3.724  -0.477  0.00  0.00    -0.336 N 
ATOM     14  H   UNL     1       3.936   3.873  -1.345  0.00  0.00    +0.147 HD
ENDROOT
BRANCH  12  15
ATOM     15  C   UNL     1       1.151   3.821   0.012  0.00  0.00    +0.017 A 
ATOM     16  C   UNL     1       1.159   2.454   0.221  0.00  0.00    +0.029 A 
ATOM     17  C   UNL     1      -0.030   1.748   0.229  0.00  0.00    +0.043 A 
ATOM     18  C   UNL     1      -1.229   2.406   0.021  0.00  0.00    +0.043 A 
ATOM     19  C   UNL     1      -1.242   3.773  -0.183  0.00  0.00    +0.084 A 
ATOM     20  C   UNL     1      -0.049   4.483  -0.191  0.00  0.00    +0.140 A 
ATOM     21 CL   UNL     1      -2.748   4.599  -0.436  0.00  0.00    -0.080 Cl
ATOM     22 CL   UNL     1      -0.017   0.032   0.493  0.00  0.00    -0.083 Cl
BRANCH  20  23
ATOM     23  O   UNL     1      -0.059   5.827  -0.396  0.00  0.00    -0.505 OA
ATOM     24  H   UNL     1       0.012   6.083  -1.326  0.00  0.00    +0.292 HD
ENDBRANCH  20  23
ENDBRANCH  12  15
BRANCH   1  25
ATOM     25  S   UNL     1       5.366  -0.728   2.968  0.00  0.00    +0.058 S 
ATOM     26  O   UNL     1       4.513  -0.741   4.104  0.00  0.00    -0.153 OA
ATOM     27  O   UNL     1       5.523  -1.858   2.120  0.00  0.00    -0.153 OA
BRANCH  25  28
ATOM     28  N   UNL     1       6.878  -0.334   3.516  0.00  0.00    -0.190 NA
ATOM     29  H   UNL     1       7.645  -0.866   3.249  0.00  0.00    +0.148 HD
BRANCH  28  30
ATOM     30  C   UNL     1       7.059   0.817   4.403  0.00  0.00    +0.110 C 
BRANCH  30  31
ATOM     31  C   UNL     1       8.442   0.748   5.054  0.00  0.00    +0.052 C 
BRANCH  31  35
ATOM     32  C   UNL     1       8.970   4.106   7.641  0.00  0.00    +0.000 A 
ATOM     33  C   UNL     1       8.424   2.934   8.132  0.00  0.00    +0.000 A 
ATOM     34  C   UNL     1       8.254   1.847   7.295  0.00  0.00    +0.003 A 
ATOM     35  C   UNL     1       8.628   1.932   5.967  0.00  0.00    -0.046 A 
ATOM     36  C   UNL     1       9.178   3.102   5.477  0.00  0.00    +0.003 A 
ATOM     37  C   UNL     1       9.345   4.191   6.313  0.00  0.00    +0.000 A 
ENDBRANCH  31  35
ENDBRANCH  30  31
ENDBRANCH  28  30
ENDBRANCH  25  28
ENDBRANCH   1  25
TORSDOF 7
