REMARK  Name = ZINC06233405
REMARK  11 active torsions:
REMARK  status: ('A' for Active; 'I' for Inactive)
REMARK    1  A    between atoms: C_1  and  C_2
REMARK    2  A    between atoms: C_7  and  C_8
REMARK    3  A    between atoms: C_13  and  C_28
REMARK    4  A    between atoms: C_16  and  C_20
REMARK    5  A    between atoms: C_17  and  C_18
REMARK    6  A    between atoms: C_17  and  C_19
REMARK    7  A    between atoms: N_22  and  N_23
REMARK    8  A    between atoms: N_23  and  C_24
REMARK    9  A    between atoms: C_24  and  C_25
REMARK   10  A    between atoms: C_24  and  C_26
REMARK   11  A    between atoms: C_24  and  C_27
REMARK                            x       y       z     vdW  Elec       q    Type
REMARK                         _______ _______ _______ _____ _____    ______ ____
ROOT
ATOM      1  C   UNL     1       4.182  -0.930   6.287  0.00  0.00    +0.044 C 
ATOM      2  C   UNL     1       2.823  -0.419   5.883  0.00  0.00    -0.045 A 
ATOM      3  C   UNL     1       2.587  -0.098   4.582  0.00  0.00    +0.033 A 
ATOM      4  C   UNL     1       1.321   0.378   4.200  0.00  0.00    +0.090 A 
ATOM      5  C   UNL     1       0.307   0.516   5.181  0.00  0.00    +0.090 A 
ATOM      6  C   UNL     1       0.588   0.175   6.515  0.00  0.00    +0.033 A 
ATOM      7  C   UNL     1       1.826  -0.283   6.847  0.00  0.00    -0.045 A 
ATOM      8  C   UNL     1       2.123  -0.648   8.279  0.00  0.00    +0.044 C 
ATOM      9  N   UNL     1      -0.903   0.967   4.824  0.00  0.00    -0.247 NA
ATOM     10  C   UNL     1      -1.133   1.274   3.575  0.00  0.00    +0.079 A 
ATOM     11  C   UNL     1      -0.128   1.138   2.604  0.00  0.00    +0.071 A 
ATOM     12  N   UNL     1       1.061   0.702   2.926  0.00  0.00    -0.248 NA
ATOM     13  C   UNL     1      -0.729   1.579   1.267  0.00  0.00    +0.018 C 
ATOM     14  C   UNL     1      -0.888   3.126   1.407  0.00  0.00    +0.015 C 
ATOM     15  C   UNL     1      -2.018   3.271   2.486  0.00  0.00    +0.024 C 
ATOM     16  C   UNL     1      -2.381   1.800   2.862  0.00  0.00    +0.098 C 
ATOM     17  C   UNL     1      -2.214   1.101   1.464  0.00  0.00    -0.005 C 
ATOM     18  C   UNL     1      -3.156   1.682   0.407  0.00  0.00    +0.013 C 
ATOM     19  C   UNL     1      -2.327  -0.422   1.558  0.00  0.00    +0.013 C 
ATOM     20  C   UNL     1      -0.013   1.086   0.008  0.00  0.00    +0.018 C 
ENDROOT
BRANCH  16  21
ATOM     21  C   UNL     1      -3.693   1.584   3.571  0.00  0.00    +0.239 C 
ATOM     22  O   UNL     1      -4.563   0.920   3.047  0.00  0.00    -0.273 OA
ATOM     23  N   UNL     1      -3.901   2.128   4.786  0.00  0.00    -0.250 N 
ATOM     24  H   UNL     1      -3.205   2.659   5.205  0.00  0.00    +0.169 HD
BRANCH  23  25
ATOM     25  N   UNL     1      -5.090   1.932   5.429  0.00  0.00    -0.235 NA
ATOM     26  H   UNL     1      -5.864   2.235   4.857  0.00  0.00    +0.145 HD
BRANCH  25  27
ATOM     27  C   UNL     1      -5.103   2.610   6.732  0.00  0.00    +0.028 C 
ATOM     28  C   UNL     1      -4.897   4.112   6.528  0.00  0.00    +0.029 C 
ATOM     29  C   UNL     1      -6.448   2.368   7.420  0.00  0.00    +0.029 C 
ATOM     30  C   UNL     1      -3.976   2.054   7.606  0.00  0.00    +0.029 C 
ENDBRANCH  25  27
ENDBRANCH  23  25
ENDBRANCH  16  21
TORSDOF 3
