REMARK  Name = ZINC20527944
REMARK  7 active torsions:
REMARK  status: ('A' for Active; 'I' for Inactive)
REMARK    1  A    between atoms: C_3  and  C_9
REMARK    2  A    between atoms: N_10  and  N_11
REMARK    3  A    between atoms: C_15  and  S_18
REMARK    4  A    between atoms: N_16  and  N_17
REMARK    5  A    between atoms: S_18  and  C_19
REMARK    6  A    between atoms: C_19  and  C_20
REMARK    7  A    between atoms: N_22  and  C_23
REMARK                            x       y       z     vdW  Elec       q    Type
REMARK                         _______ _______ _______ _____ _____    ______ ____
ROOT
ATOM      1  N   UNL     1       1.191   2.012  -0.064  0.00  0.00    -0.204 N 
ATOM      2  C   UNL     1       1.172   3.399  -0.047  0.00  0.00    +0.254 A 
ATOM      3  N   UNL     1       0.101   4.155  -0.036  0.00  0.00    -0.109 NA
ATOM      4  N   UNL     1       0.515   5.493  -0.016  0.00  0.00    -0.119 NA
ATOM      5  C   UNL     1       1.827   5.511  -0.024  0.00  0.00    +0.210 A 
ATOM      6  N   UNL     1       2.267   4.218  -0.043  0.00  0.00    -0.211 N 
ATOM      7  H   UNL     1       2.151   1.475  -0.078  0.00  0.00    +0.177 HD
ENDROOT
BRANCH   6   8
ATOM      8  N   UNL     1       3.571   3.814  -0.057  0.00  0.00    -0.294 N 
ATOM      9  H   UNL     1       4.379   4.561  -0.052  0.00  0.00    +0.163 HD
ATOM     10  H   UNL     1       3.815   2.741  -0.071  0.00  0.00    +0.163 HD
ENDBRANCH   6   8
BRANCH   1  12
ATOM     11  C   UNL     1       0.006  -0.004  -0.082  0.00  0.00    +0.139 C 
ATOM     12  N   UNL     1      -0.012   1.294  -0.066  0.00  0.00    -0.187 NA
BRANCH  11  15
ATOM     13  C   UNL     1      -2.433  -2.856  -0.102  0.00  0.00    +0.021 A 
ATOM     14  C   UNL     1      -1.245  -2.155  -0.101  0.00  0.00    +0.012 A 
ATOM     15  C   UNL     1      -1.261  -0.759  -0.084  0.00  0.00    +0.013 A 
ATOM     16  C   UNL     1      -2.483  -0.080  -0.061  0.00  0.00    +0.051 A 
ATOM     17  C   UNL     1      -3.664  -0.793  -0.067  0.00  0.00    +0.040 A 
ATOM     18  C   UNL     1      -3.641  -2.178  -0.085  0.00  0.00    +0.042 A 
ATOM     19 CL   UNL     1      -5.131  -3.068  -0.086  0.00  0.00    -0.083 Cl
ATOM     20 CL   UNL     1      -2.514   1.656  -0.032  0.00  0.00    -0.083 Cl
ENDBRANCH  11  15
ENDBRANCH   1  12
BRANCH   5  21
ATOM     21  S   UNL     1       2.842   6.950  -0.013  0.00  0.00    -0.075 S 
BRANCH  21  22
ATOM     22  C   UNL     1       1.657   8.324   0.012  0.00  0.00    +0.173 C 
BRANCH  22  23
ATOM     23  C   UNL     1       2.405   9.632   0.024  0.00  0.00    +0.228 C 
ATOM     24  O   UNL     1       3.618   9.638   0.015  0.00  0.00    -0.275 OA
ATOM     25  N   UNL     1       1.726  10.796   0.043  0.00  0.00    -0.284 N 
ATOM     26  H   UNL     1       0.628  10.793  -0.024  0.00  0.00    +0.155 HD
BRANCH  25  27
ATOM     27  C   UNL     1       2.418  12.009   0.148  0.00  0.00    +0.052 A 
ATOM     28  C   UNL     1       3.660  12.155  -0.455  0.00  0.00    +0.026 A 
ATOM     29  C   UNL     1       4.340  13.353  -0.350  0.00  0.00    +0.022 A 
ATOM     30  C   UNL     1       3.785  14.407   0.355  0.00  0.00    +0.042 A 
ATOM     31  C   UNL     1       2.548  14.264   0.957  0.00  0.00    +0.041 A 
ATOM     32  C   UNL     1       1.860  13.070   0.851  0.00  0.00    +0.064 A 
ATOM     33 CL   UNL     1       0.304  12.893   1.601  0.00  0.00    -0.082 Cl
ATOM     34 CL   UNL     1       4.644  15.910   0.484  0.00  0.00    -0.083 Cl
ENDBRANCH  25  27
ENDBRANCH  22  23
ENDBRANCH  21  22
ENDBRANCH   5  21
TORSDOF 7
