REMARK  Name = ZINC09232506
REMARK  6 active torsions:
REMARK  status: ('A' for Active; 'I' for Inactive)
REMARK    1  A    between atoms: C_1  and  O_2
REMARK    2  A    between atoms: O_2  and  C_3
REMARK    3  A    between atoms: C_10  and  C_28
REMARK    4  A    between atoms: C_12  and  C_19
REMARK    5  A    between atoms: C_23  and  N_25
REMARK    6  A    between atoms: C_28  and  C_30
REMARK                            x       y       z     vdW  Elec       q    Type
REMARK                         _______ _______ _______ _____ _____    ______ ____
ROOT
ATOM      1  C   UNL     1      -5.250   1.608   4.276  0.00  0.00    +0.120 A 
ATOM      2  C   UNL     1      -6.382   0.962   3.799  0.00  0.00    +0.047 A 
ATOM      3  C   UNL     1      -6.322   0.220   2.638  0.00  0.00    +0.027 A 
ATOM      4  C   UNL     1      -5.125   0.112   1.935  0.00  0.00    +0.036 A 
ATOM      5  C   UNL     1      -3.995   0.760   2.421  0.00  0.00    -0.024 A 
ATOM      6  C   UNL     1      -4.053   1.503   3.579  0.00  0.00    +0.050 A 
ATOM      7  C   UNL     1      -2.885   0.449   1.452  0.00  0.00    +0.052 C 
ATOM      8  C   UNL     1      -1.748  -0.304   2.156  0.00  0.00    +0.069 C 
ATOM      9  C   UNL     1      -0.636   0.754   2.325  0.00  0.00    +0.016 C 
ATOM     10  C   UNL     1      -0.894   1.750   1.175  0.00  0.00    -0.047 C 
ATOM     11  C   UNL     1      -2.710   1.825  -0.547  0.00  0.00    -0.005 C 
ATOM     12  S   UNL     1      -1.085   1.974  -1.404  0.00  0.00    -0.181 S 
ATOM     13  C   UNL     1      -0.039   1.290  -0.043  0.00  0.00    +0.052 C 
ATOM     14  C   UNL     1      -3.528  -0.421   0.402  0.00  0.00    +0.212 C 
ATOM     15  O   UNL     1      -2.985  -0.897  -0.573  0.00  0.00    -0.277 OA
ATOM     16  N   UNL     1      -4.818  -0.569   0.753  0.00  0.00    -0.286 N 
ATOM     17  H   UNL     1      -5.462  -1.088   0.245  0.00  0.00    +0.155 HD
ATOM     18  N   UNL     1      -2.364   1.701   0.915  0.00  0.00    +0.401 N 
ATOM     19  H   UNL     1      -2.805   2.484   1.412  0.00  0.00    -0.078 HD
ENDROOT
BRANCH   9  20
ATOM     20  C   UNL     1       0.723   0.120   2.181  0.00  0.00    -0.043 A 
ATOM     21  C   UNL     1       0.914  -1.198   2.549  0.00  0.00    +0.004 A 
ATOM     22  C   UNL     1       2.160  -1.781   2.412  0.00  0.00    +0.002 A 
ATOM     23  C   UNL     1       3.218  -1.042   1.915  0.00  0.00    +0.033 A 
ATOM     24  C   UNL     1       3.028   0.278   1.552  0.00  0.00    +0.126 A 
ATOM     25  C   UNL     1       1.781   0.859   1.685  0.00  0.00    +0.036 A 
BRANCH  24  26
ATOM     26  N   UNL     1       4.161   1.069   1.021  0.00  0.00    +0.056 N 
ATOM     27  O   UNL     1       3.994   2.232   0.701  0.00  0.00    -0.126 OA
ATOM     28  O   UNL     1       5.260   0.557   0.904  0.00  0.00    -0.126 OA
ENDBRANCH  24  26
ENDBRANCH   9  20
BRANCH   1  30
ATOM     29  C   UNL     1      -6.577   2.403   6.081  0.00  0.00    +0.277 C 
ATOM     30  O   UNL     1      -5.312   2.340   5.420  0.00  0.00    -0.495 OA
ENDBRANCH   1  30
BRANCH   8  31
ATOM     31  C   UNL     1      -1.264  -1.446   1.300  0.00  0.00    +0.168 C 
ATOM     32  O   UNL     1      -0.834  -1.229   0.187  0.00  0.00    -0.292 OA
BRANCH  31  33
ATOM     33  C   UNL     1      -1.312  -2.824   1.815  0.00  0.00    +0.036 A 
ATOM     34  C   UNL     1      -0.869  -3.896   1.027  0.00  0.00    +0.014 A 
ATOM     35  C   UNL     1      -0.932  -5.171   1.560  0.00  0.00    +0.020 A 
ATOM     36  C   UNL     1      -1.434  -5.347   2.837  0.00  0.00    +0.111 A 
ATOM     37  N   UNL     1      -1.849  -4.320   3.555  0.00  0.00    -0.263 NA
ATOM     38  C   UNL     1      -1.805  -3.087   3.096  0.00  0.00    +0.122 A 
ENDBRANCH  31  33
ENDBRANCH   8  31
TORSDOF 5
