REMARK  Name = ZINC05080346
REMARK  8 active torsions:
REMARK  status: ('A' for Active; 'I' for Inactive)
REMARK    1  A    between atoms: C_1  and  C_2
REMARK    2  A    between atoms: C_2  and  C_8
REMARK    3  A    between atoms: N_3  and  N_4
REMARK    4  A    between atoms: C_14  and  C_35
REMARK    5  A    between atoms: C_24  and  C_34
REMARK    6  A    between atoms: C_27  and  O_30
REMARK    7  A    between atoms: O_30  and  C_31
REMARK    8  A    between atoms: C_31  and  C_33
REMARK                            x       y       z     vdW  Elec       q    Type
REMARK                         _______ _______ _______ _____ _____    ______ ____
ROOT
ATOM      1  C   UNL     1       0.429   5.168   4.040  0.00  0.00    +0.041 C 
ATOM      2  C   UNL     1      -0.959   5.404   4.670  0.00  0.00    +0.010 C 
ATOM      3  C   UNL     1      -1.872   5.923   3.537  0.00  0.00    +0.005 C 
ATOM      4  C   UNL     1      -1.165   5.386   2.225  0.00  0.00    -0.001 C 
ATOM      5  C   UNL     1       0.291   5.566   2.565  0.00  0.00    -0.021 C 
ATOM      6  C   UNL     1       1.192   4.759   1.657  0.00  0.00    +0.008 C 
ATOM      7  C   UNL     1       0.797   3.284   1.674  0.00  0.00    +0.005 C 
ATOM      8  C   UNL     1      -0.652   3.150   1.185  0.00  0.00    +0.003 C 
ATOM      9  C   UNL     1      -1.549   3.905   2.145  0.00  0.00    +0.000 C 
ATOM     10  C   UNL     1      -2.990   3.824   1.619  0.00  0.00    +0.031 C 
ATOM     11  C   UNL     1      -3.363   2.397   1.356  0.00  0.00    -0.027 C 
ATOM     12  C   UNL     1      -2.498   1.452   1.170  0.00  0.00    -0.064 C 
ATOM     13  C   UNL     1      -1.009   1.667   1.170  0.00  0.00    -0.008 C 
ATOM     14  C   UNL     1      -0.396   0.950   2.371  0.00  0.00    +0.015 C 
ATOM     15  C   UNL     1      -1.257  -0.249   2.764  0.00  0.00    +0.046 C 
ATOM     16  C   UNL     1      -1.889  -0.899   1.535  0.00  0.00    +0.180 C 
ATOM     17  C   UNL     1      -2.977   0.024   0.969  0.00  0.00    +0.075 C 
ATOM     18  C   UNL     1      -0.434   1.046  -0.104  0.00  0.00    +0.016 C 
ATOM     19  C   UNL     1       0.632   7.050   2.415  0.00  0.00    +0.012 C 
ENDROOT
BRANCH   1  21
ATOM     20  C   UNL     1       1.122   7.450   5.101  0.00  0.00    +0.062 C 
ATOM     21  C   UNL     1       1.461   6.033   4.718  0.00  0.00    +0.037 C 
ATOM     22  N   UNL     1       2.625   5.564   4.967  0.00  0.00    -0.188 NA
BRANCH  22  23
ATOM     23  N   UNL     1       2.979   4.288   4.507  0.00  0.00    -0.191 N 
ATOM     24  C   UNL     1       4.164   3.751   4.859  0.00  0.00    +0.317 C 
ATOM     25  O   UNL     1       4.512   2.685   4.387  0.00  0.00    -0.251 OA
ATOM     26  N   UNL     1       4.964   4.394   5.732  0.00  0.00    -0.312 N 
ATOM     27  H   UNL     1       2.372   3.793   3.936  0.00  0.00    +0.179 HD
ATOM     28  H   UNL     1       4.686   5.244   6.108  0.00  0.00    +0.147 HD
ATOM     29  H   UNL     1       5.816   4.007   5.985  0.00  0.00    +0.147 HD
ENDBRANCH  22  23
ENDBRANCH   1  21
BRANCH  16  30
ATOM     30  O   UNL     1      -0.868  -1.119   0.525  0.00  0.00    -0.461 OA
BRANCH  30  31
ATOM     31  C   UNL     1      -1.041  -2.164  -0.299  0.00  0.00    +0.304 C 
ATOM     32  O   UNL     1      -2.013  -2.872  -0.180  0.00  0.00    -0.251 OA
ATOM     33  C   UNL     1      -0.024  -2.455  -1.371  0.00  0.00    +0.136 C 
ENDBRANCH  30  31
ENDBRANCH  16  30
TORSDOF 4
