REMARK  Name = ZINC22855168
REMARK  6 active torsions:
REMARK  status: ('A' for Active; 'I' for Inactive)
REMARK    1  A    between atoms: C_1  and  C_2
REMARK    2  A    between atoms: C_2  and  C_3
REMARK    3  A    between atoms: C_9  and  C_11
REMARK    4  A    between atoms: C_11  and  C_13
REMARK    5  A    between atoms: C_11  and  N_20
REMARK    6  A    between atoms: C_23  and  O_26
REMARK                            x       y       z     vdW  Elec       q    Type
REMARK                         _______ _______ _______ _____ _____    ______ ____
ROOT
ATOM      1  C   UNL     1      -0.013   1.086   0.008  0.00  0.00    +0.006 C 
ENDROOT
BRANCH   1   8
ATOM      2  C   UNL     1      -2.718   2.286   5.184  0.00  0.00    +0.152 A 
ATOM      3  N   UNL     1      -2.602   3.277   4.304  0.00  0.00    -0.205 NA
ATOM      4  C   UNL     1      -1.990   2.839   3.238  0.00  0.00    +0.199 A 
ATOM      5  N   UNL     1      -1.683   1.522   3.397  0.00  0.00    -0.170 N 
ATOM      6  N   UNL     1      -2.181   1.204   4.688  0.00  0.00    -0.146 NA
ATOM      7  C   UNL     1      -1.031   0.898   2.361  0.00  0.00    +0.282 A 
ATOM      8  C   UNL     1      -0.718   1.572   1.248  0.00  0.00    +0.050 A 
ATOM      9  S   UNL     1      -1.349   3.201   1.621  0.00  0.00    -0.050 S 
ATOM     10  O   UNL     1      -0.701  -0.417   2.467  0.00  0.00    -0.265 OA
BRANCH   2  12
ATOM     11  C   UNL     1      -4.857   2.065   6.420  0.00  0.00    +0.012 C 
ATOM     12  C   UNL     1      -3.367   2.394   6.540  0.00  0.00    +0.075 C 
ENDBRANCH   2  12
ENDBRANCH   1   8
BRANCH   1  13
ATOM     13  C   UNL     1       1.401   1.607  -0.003  0.00  0.00    -0.056 A 
ATOM     14  C   UNL     1       1.657   2.903  -0.413  0.00  0.00    +0.004 A 
ATOM     15  C   UNL     1       2.953   3.383  -0.418  0.00  0.00    +0.020 A 
ATOM     16  C   UNL     1       3.995   2.564  -0.022  0.00  0.00    +0.041 A 
ATOM     17  C   UNL     1       3.740   1.267   0.383  0.00  0.00    +0.020 A 
ATOM     18  C   UNL     1       2.443   0.789   0.393  0.00  0.00    +0.004 A 
ATOM     19 CL   UNL     1       5.624   3.166  -0.034  0.00  0.00    -0.084 Cl
ENDBRANCH   1  13
BRANCH   1  20
ATOM     20  N   UNL     1      -0.723   1.572  -1.182  0.00  0.00    +0.388 N 
ATOM     21  C   UNL     1       0.050   1.306  -2.402  0.00  0.00    -0.075 C 
ATOM     22  C   UNL     1      -0.648   1.953  -3.601  0.00  0.00    +0.013 C 
ATOM     23  C   UNL     1      -2.061   1.378  -3.734  0.00  0.00    +0.111 C 
ATOM     24  C   UNL     1      -2.829   1.626  -2.433  0.00  0.00    +0.013 C 
ATOM     25  C   UNL     1      -2.068   0.989  -1.268  0.00  0.00    -0.075 C 
ATOM     26  H   UNL     1      -0.836   2.663  -1.088  0.00  0.00    -0.080 HD
BRANCH  23  27
ATOM     27  O   UNL     1      -2.737   2.019  -4.817  0.00  0.00    -0.392 OA
ATOM     28  H   UNL     1      -3.770   1.735  -5.066  0.00  0.00    +0.210 HD
ENDBRANCH  23  27
ENDBRANCH   1  20
TORSDOF 5
