REMARK  Name = ZINC20028365
REMARK  11 active torsions:
REMARK  status: ('A' for Active; 'I' for Inactive)
REMARK    1  A    between atoms: C_1  and  C_2
REMARK    2  A    between atoms: C_7  and  C_14
REMARK    3  A    between atoms: C_11  and  C_12
REMARK    4  A    between atoms: C_15  and  C_26
REMARK    5  A    between atoms: C_16  and  C_25
REMARK    6  A    between atoms: C_18  and  C_24
REMARK    7  A    between atoms: C_19  and  C_20
REMARK    8  A    between atoms: C_20  and  O_22
REMARK    9  A    between atoms: O_22  and  C_23
REMARK   10  A    between atoms: C_26  and  O_28
REMARK   11  A    between atoms: O_28  and  C_29
REMARK                            x       y       z     vdW  Elec       q    Type
REMARK                         _______ _______ _______ _____ _____    ______ ____
ROOT
ATOM      1  C   UNL     1       4.228   0.854   0.825  0.00  0.00    +0.099 C 
ATOM      2  C   UNL     1       5.149   0.224  -0.181  0.00  0.00    +0.065 C 
ATOM      3  C   UNL     1       6.094  -0.657   0.187  0.00  0.00    +0.016 C 
ATOM      4  N   UNL     1       6.252  -1.006   1.500  0.00  0.00    -0.321 N 
ATOM      5  C   UNL     1       5.723  -0.224   2.491  0.00  0.00    +0.016 C 
ATOM      6  C   UNL     1       4.763   0.676   2.218  0.00  0.00    +0.065 C 
ATOM      7  C   UNL     1       6.224  -0.373   3.904  0.00  0.00    +0.061 C 
ATOM      8  C   UNL     1       6.989  -1.270  -0.859  0.00  0.00    +0.061 C 
ATOM      9  H   UNL     1       6.808  -1.918   1.764  0.00  0.00    +0.152 HD
ENDROOT
BRANCH   1  16
ATOM     10  C   UNL     1      -2.487  -3.345   0.539  0.00  0.00    +0.044 C 
ATOM     11  C   UNL     1      -1.106  -2.750   0.648  0.00  0.00    -0.045 A 
ATOM     12  C   UNL     1      -0.030  -3.572   0.976  0.00  0.00    +0.004 A 
ATOM     13  C   UNL     1       1.229  -3.064   1.083  0.00  0.00    +0.010 A 
ATOM     14  C   UNL     1       1.446  -1.695   0.859  0.00  0.00    +0.001 A 
ATOM     15  C   UNL     1       2.733  -1.132   0.959  0.00  0.00    +0.017 A 
ATOM     16  C   UNL     1       2.870   0.207   0.729  0.00  0.00    +0.002 A 
ATOM     17  C   UNL     1       1.752   0.975   0.404  0.00  0.00    +0.134 A 
ATOM     18  N   UNL     1       0.555   0.446   0.312  0.00  0.00    -0.235 NA
ATOM     19  C   UNL     1       0.353  -0.858   0.526  0.00  0.00    +0.076 A 
ATOM     20  C   UNL     1      -0.932  -1.419   0.425  0.00  0.00    -0.022 A 
ATOM     21  C   UNL     1      -2.111  -0.550   0.071  0.00  0.00    +0.046 C 
ATOM     22 CL   UNL     1       1.950   2.675   0.115  0.00  0.00    -0.062 Cl
ENDBRANCH   1  16
BRANCH   6  23
ATOM     23  C   UNL     1       4.244   1.473   3.265  0.00  0.00    +0.337 C 
ATOM     24  O   UNL     1       4.656   2.606   3.429  0.00  0.00    -0.245 OA
BRANCH  23  25
ATOM     25  O   UNL     1       3.292   0.977   4.082  0.00  0.00    -0.465 OA
ATOM     26  C   UNL     1       2.813   1.837   5.118  0.00  0.00    +0.280 C 
ENDBRANCH  23  25
ENDBRANCH   6  23
BRANCH   2  27
ATOM     27  C   UNL     1       5.018   0.566  -1.547  0.00  0.00    +0.337 C 
ATOM     28  O   UNL     1       5.757   0.064  -2.373  0.00  0.00    -0.245 OA
BRANCH  27  29
ATOM     29  O   UNL     1       4.074   1.450  -1.934  0.00  0.00    -0.465 OA
ATOM     30  C   UNL     1       3.999   1.749  -3.329  0.00  0.00    +0.280 C 
ENDBRANCH  27  29
ENDBRANCH   2  27
TORSDOF 5
