REMARK  Name = ZINC58989968
REMARK  11 active torsions:
REMARK  status: ('A' for Active; 'I' for Inactive)
REMARK    1  A    between atoms: C_1  and  C_2
REMARK    2  A    between atoms: C_2  and  C_24
REMARK    3  A    between atoms: N_3  and  N_4
REMARK    4  A    between atoms: C_5  and  C_7
REMARK    5  A    between atoms: C_7  and  C_8
REMARK    6  A    between atoms: C_8  and  C_9
REMARK    7  A    between atoms: C_9  and  S_10
REMARK    8  A    between atoms: S_10  and  C_11
REMARK    9  A    between atoms: C_14  and  C_17
REMARK   10  A    between atoms: N_15  and  N_16
REMARK   11  A    between atoms: C_22  and  O_23
REMARK                            x       y       z     vdW  Elec       q    Type
REMARK                         _______ _______ _______ _____ _____    ______ ____
ROOT
ATOM      1  C   UNL     1      -2.505  -4.073   3.921  0.00  0.00    +0.020 C 
ENDROOT
BRANCH   1   2
ATOM      2  C   UNL     1      -2.251  -3.660   2.470  0.00  0.00    +0.098 C 
BRANCH   2   4
ATOM      3  N   UNL     1      -1.050  -1.864   1.264  0.00  0.00    -0.207 N 
ATOM      4  C   UNL     1      -1.403  -2.414   2.443  0.00  0.00    +0.232 C 
ATOM      5  O   UNL     1      -1.037  -1.907   3.483  0.00  0.00    -0.274 OA
ATOM      6  H   UNL     1      -1.342  -2.270   0.433  0.00  0.00    +0.177 HD
BRANCH   3   9
ATOM      7  C   UNL     1       0.974   1.026   0.064  0.00  0.00    +0.068 C 
ATOM      8  C   UNL     1       0.004  -0.126   0.110  0.00  0.00    +0.063 C 
ATOM      9  N   UNL     1      -0.261  -0.707   1.240  0.00  0.00    -0.185 NA
BRANCH   8  10
ATOM     10  C   UNL     1      -0.645  -0.593  -1.129  0.00  0.00    +0.001 A 
ATOM     11  C   UNL     1      -1.982  -0.999  -1.110  0.00  0.00    +0.013 A 
ATOM     12  C   UNL     1      -2.586  -1.436  -2.269  0.00  0.00    +0.050 A 
ATOM     13  C   UNL     1      -1.871  -1.474  -3.458  0.00  0.00    +0.166 A 
ATOM     14  C   UNL     1      -0.537  -1.069  -3.485  0.00  0.00    +0.167 A 
ATOM     15  C   UNL     1       0.073  -0.625  -2.327  0.00  0.00    +0.059 A 
ATOM     16  O   UNL     1      -0.067  -1.201  -4.760  0.00  0.00    -0.453 OA
ATOM     17  C   UNL     1      -1.000  -2.073  -5.425  0.00  0.00    +0.466 C 
ATOM     18  O   UNL     1      -2.235  -1.857  -4.717  0.00  0.00    -0.453 OA
ENDBRANCH   8  10
ENDBRANCH   3   9
ENDBRANCH   2   4
ENDBRANCH   1   2
BRANCH   1  19
ATOM     19  C   UNL     1      -3.366  -5.337   3.948  0.00  0.00    +0.078 C 
BRANCH  19  20
ATOM     20  S   UNL     1      -3.667  -5.827   5.668  0.00  0.00    -0.084 S 
BRANCH  20  21
ATOM     21  C   UNL     1      -4.659  -7.277   5.531  0.00  0.00    +0.209 A 
ATOM     22  N   UNL     1      -5.060  -7.845   4.416  0.00  0.00    -0.121 NA
ATOM     23  N   UNL     1      -5.766  -8.886   4.679  0.00  0.00    -0.127 NA
ATOM     24  C   UNL     1      -5.859  -9.047   5.979  0.00  0.00    +0.185 A 
ATOM     25  N   UNL     1      -5.149  -8.025   6.565  0.00  0.00    -0.224 N 
BRANCH  24  26
ATOM     26  C   UNL     1      -6.587 -10.125   6.680  0.00  0.00    +0.062 A 
ATOM     27  C   UNL     1      -7.584  -9.813   7.604  0.00  0.00    +0.015 A 
ATOM     28  C   UNL     1      -8.260 -10.824   8.256  0.00  0.00    +0.001 A 
ATOM     29  C   UNL     1      -7.952 -12.148   7.997  0.00  0.00    +0.004 A 
ATOM     30  C   UNL     1      -6.965 -12.470   7.084  0.00  0.00    +0.046 A 
ATOM     31  C   UNL     1      -6.282 -11.466   6.416  0.00  0.00    +0.128 A 
BRANCH  31  32
ATOM     32  O   UNL     1      -5.317 -11.782   5.514  0.00  0.00    -0.506 OA
ATOM     33  H   UNL     1      -4.433 -11.862   5.896  0.00  0.00    +0.292 HD
ENDBRANCH  31  32
ENDBRANCH  24  26
BRANCH  25  34
ATOM     34  N   UNL     1      -4.972  -7.802   7.901  0.00  0.00    -0.295 N 
ATOM     35  H   UNL     1      -5.747  -7.285   8.287  0.00  0.00    +0.163 HD
ATOM     36  H   UNL     1      -4.833  -8.670   8.397  0.00  0.00    +0.163 HD
ENDBRANCH  25  34
ENDBRANCH  20  21
ENDBRANCH  19  20
ENDBRANCH   1  19
TORSDOF 10
