REMARK  Name = ZINC09257918
REMARK  5 active torsions:
REMARK  status: ('A' for Active; 'I' for Inactive)
REMARK    1  A    between atoms: C_4  and  C_7
REMARK    2  A    between atoms: C_14  and  C_18
REMARK    3  A    between atoms: C_18  and  N_57
REMARK    4  A    between atoms: N_22  and  S_25
REMARK    5  A    between atoms: S_25  and  C_28
REMARK                            x       y       z     vdW  Elec       q    Type
REMARK                         _______ _______ _______ _____ _____    ______ ____
ROOT
ATOM      1  C   UNL     1      -4.628   4.336   0.068  0.00  0.00    -0.003 C 
ENDROOT
BRANCH   1   9
ATOM      2  C   UNL     1       1.153   1.772   0.001  0.00  0.00    +0.022 A 
ATOM      3  C   UNL     1      -0.013   1.076   0.008  0.00  0.00    +0.031 A 
ATOM      4  C   UNL     1      -1.237   1.763   0.018  0.00  0.00    +0.073 A 
ATOM      5  C   UNL     1      -2.570   1.229   0.032  0.00  0.00    +0.260 A 
ATOM      6  O   UNL     1      -2.754   0.024   0.027  0.00  0.00    -0.267 OA
ATOM      7  N   UNL     1      -3.612   2.080   0.046  0.00  0.00    -0.312 N 
ATOM      8  H   UNL     1      -4.515   1.724   0.053  0.00  0.00    +0.170 HD
ATOM      9  C   UNL     1      -3.428   3.425   0.052  0.00  0.00    +0.094 A 
ATOM     10  N   UNL     1      -2.229   3.943   0.043  0.00  0.00    -0.229 NA
ATOM     11  C   UNL     1      -1.149   3.169   0.029  0.00  0.00    +0.116 A 
ATOM     12  S   UNL     1       0.601   3.469   0.014  0.00  0.00    -0.068 S 
BRANCH   2  16
ATOM     13  C   UNL     1       5.130   0.281  -0.042  0.00  0.00    +0.000 A 
ATOM     14  C   UNL     1       4.906   1.646  -0.034  0.00  0.00    +0.001 A 
ATOM     15  C   UNL     1       3.617   2.137  -0.020  0.00  0.00    +0.009 A 
ATOM     16  C   UNL     1       2.537   1.253  -0.015  0.00  0.00    -0.011 A 
ATOM     17  C   UNL     1       2.769  -0.123  -0.017  0.00  0.00    +0.009 A 
ATOM     18  C   UNL     1       4.064  -0.601  -0.037  0.00  0.00    +0.001 A 
ENDBRANCH   2  16
ENDBRANCH   1   9
BRANCH   1  25
ATOM     19  C   UNL     1      -3.340   6.014   1.233  0.00  0.00    -0.077 C 
ATOM     20  C   UNL     1      -2.263   7.001   0.841  0.00  0.00    -0.001 C 
ATOM     21  C   UNL     1      -2.744   8.433   1.130  0.00  0.00    +0.107 C 
ATOM     22  N   UNL     1      -4.167   8.602   0.778  0.00  0.00    -0.178 NA
ATOM     23  C   UNL     1      -4.742   8.043  -0.429  0.00  0.00    +0.091 C 
ATOM     24  C   UNL     1      -5.267   6.616  -0.144  0.00  0.00    -0.061 C 
ATOM     25  N   UNL     1      -4.147   5.720   0.013  0.00  0.00    +0.385 N 
ATOM     26  H   UNL     1      -3.538   5.825  -0.807  0.00  0.00    -0.081 HD
BRANCH  22  27
ATOM     27  S   UNL     1      -5.144   9.463   1.801  0.00  0.00    +0.061 S 
ATOM     28  O   UNL     1      -4.295  10.329   2.541  0.00  0.00    -0.153 OA
ATOM     29  O   UNL     1      -6.228   9.944   1.018  0.00  0.00    -0.153 OA
BRANCH  27  30
ATOM     30  C   UNL     1      -5.825   8.319   2.955  0.00  0.00    +0.106 A 
ATOM     31  C   UNL     1      -7.025   7.690   2.679  0.00  0.00    +0.031 A 
ATOM     32  C   UNL     1      -7.558   6.789   3.581  0.00  0.00    +0.040 A 
ATOM     33  C   UNL     1      -6.895   6.525   4.768  0.00  0.00    +0.124 A 
ATOM     34  C   UNL     1      -5.696   7.159   5.046  0.00  0.00    +0.040 A 
ATOM     35  C   UNL     1      -5.163   8.056   4.140  0.00  0.00    +0.031 A 
ATOM     36  F   UNL     1      -7.417   5.648   5.653  0.00  0.00    -0.205 F 
ENDBRANCH  27  30
ENDBRANCH  22  27
ENDBRANCH   1  25
TORSDOF 5
