REMARK  Name = ZINC58425435
REMARK  6 active torsions:
REMARK  status: ('A' for Active; 'I' for Inactive)
REMARK    1  A    between atoms: C_1  and  C_2
REMARK    2  A    between atoms: C_2  and  C_3
REMARK    3  A    between atoms: C_13  and  C_16
REMARK    4  A    between atoms: C_16  and  C_17
REMARK    5  A    between atoms: C_16  and  C_18
REMARK    6  A    between atoms: C_16  and  C_19
REMARK                            x       y       z     vdW  Elec       q    Type
REMARK                         _______ _______ _______ _____ _____    ______ ____
ROOT
ATOM      1  C   UNL     1      -1.433  -0.534   0.013  0.00  0.00    +0.092 C 
ATOM      2  C   UNL     1      -1.416  -2.059  -0.121  0.00  0.00    +0.250 C 
ATOM      3  O   UNL     1      -2.761  -2.550  -0.057  0.00  0.00    -0.462 OA
ATOM      4  C   UNL     1      -3.481  -2.121   1.002  0.00  0.00    +0.328 C 
ATOM      5  O   UNL     1      -4.108  -2.895   1.685  0.00  0.00    -0.249 OA
ATOM      6  C   UNL     1      -3.474  -0.640   1.306  0.00  0.00    +0.117 C 
ATOM      7  N   UNL     1      -2.084  -0.160   1.278  0.00  0.00    -0.296 NA
ATOM      8  C   UNL     1      -4.295   0.101   0.251  0.00  0.00    +0.034 C 
ATOM      9  C   UNL     1      -4.288   1.600   0.558  0.00  0.00    +0.006 C 
ATOM     10  C   UNL     1      -4.894   1.839   1.943  0.00  0.00    -0.005 C 
ATOM     11  C   UNL     1      -4.067   1.100   2.997  0.00  0.00    +0.006 C 
ATOM     12  C   UNL     1      -4.074  -0.400   2.691  0.00  0.00    +0.034 C 
ATOM     13  H   UNL     1      -1.565  -0.511   2.069  0.00  0.00    +0.123 HD
ENDROOT
BRANCH  10  14
ATOM     14  C   UNL     1      -4.889   3.338   2.249  0.00  0.00    -0.035 C 
ATOM     15  C   UNL     1      -5.716   4.077   1.196  0.00  0.00    +0.011 C 
ATOM     16  C   UNL     1      -5.495   3.577   3.634  0.00  0.00    +0.011 C 
ATOM     17  C   UNL     1      -3.450   3.858   2.226  0.00  0.00    +0.011 C 
ENDBRANCH  10  14
BRANCH   1  19
ATOM     18  C   UNL     1      -0.019   1.526   0.010  0.00  0.00    +0.005 C 
ATOM     19  C   UNL     1       0.002  -0.004   0.002  0.00  0.00    +0.019 C 
ENDBRANCH   1  19
TORSDOF 2
