REMARK  Name = ZINC21636336
REMARK  10 active torsions:
REMARK  status: ('A' for Active; 'I' for Inactive)
REMARK    1  A    between atoms: C_1  and  N_2
REMARK    2  A    between atoms: N_2  and  C_3
REMARK    3  A    between atoms: N_2  and  C_4
REMARK    4  A    between atoms: C_4  and  C_6
REMARK    5  A    between atoms: C_4  and  C_27
REMARK    6  A    between atoms: C_6  and  N_7
REMARK    7  A    between atoms: C_8  and  C_10
REMARK    8  A    between atoms: N_13  and  S_16
REMARK    9  A    between atoms: S_16  and  C_19
REMARK   10  A    between atoms: C_24  and  C_25
REMARK                            x       y       z     vdW  Elec       q    Type
REMARK                         _______ _______ _______ _____ _____    ______ ____
ROOT
ATOM      1  N   UNL     1      -2.610   5.998   3.132  0.00  0.00    -0.316 N 
ATOM      2  C   UNL     1      -2.179   4.739   3.345  0.00  0.00    +0.216 C 
ATOM      3  O   UNL     1      -1.184   4.542   4.010  0.00  0.00    -0.276 OA
ATOM      4  H   UNL     1      -3.513   6.176   2.529  0.00  0.00    +0.149 HD
ENDROOT
BRANCH   2   5
ATOM      5  C   UNL     1      -2.935   3.575   2.757  0.00  0.00    +0.077 C 
ATOM      6  C   UNL     1      -2.240   2.268   3.146  0.00  0.00    +0.030 C 
ATOM      7  C   UNL     1      -2.991   1.089   2.518  0.00  0.00    +0.110 C 
ATOM      8  N   UNL     1      -4.404   1.163   2.914  0.00  0.00    -0.177 NA
ATOM      9  C   UNL     1      -5.144   2.407   2.663  0.00  0.00    +0.110 C 
ATOM     10  C   UNL     1      -4.368   3.573   3.294  0.00  0.00    +0.030 C 
BRANCH   8  11
ATOM     11  S   UNL     1      -5.150  -0.134   3.624  0.00  0.00    +0.062 S 
ATOM     12  O   UNL     1      -6.541   0.012   3.375  0.00  0.00    -0.153 OA
ATOM     13  O   UNL     1      -4.422  -1.288   3.227  0.00  0.00    -0.153 OA
BRANCH  11  14
ATOM     14  C   UNL     1      -4.930   0.026   5.364  0.00  0.00    +0.123 A 
ATOM     15  C   UNL     1      -6.021   0.232   6.183  0.00  0.00    +0.030 A 
ATOM     16  C   UNL     1      -5.850   0.354   7.551  0.00  0.00    +0.002 A 
ATOM     17  C   UNL     1      -4.585   0.281   8.106  0.00  0.00    +0.001 A 
ATOM     18  C   UNL     1      -3.485   0.081   7.298  0.00  0.00    +0.021 A 
ATOM     19  C   UNL     1      -3.650  -0.048   5.918  0.00  0.00    +0.078 A 
BRANCH  19  20
ATOM     20  C   UNL     1      -2.512  -0.256   5.073  0.00  0.00    +0.101 C 
ATOM     21  N   UNL     1      -1.610  -0.421   4.403  0.00  0.00    -0.191 NA
ENDBRANCH  19  20
ENDBRANCH  11  14
ENDBRANCH   8  11
ENDBRANCH   2   5
BRANCH   1  22
ATOM     22  C   UNL     1      -1.876   7.130   3.704  0.00  0.00    +0.093 C 
BRANCH  22  23
ATOM     23  C   UNL     1      -2.409   8.435   3.111  0.00  0.00    -0.020 C 
BRANCH  23  24
ATOM     24  C   UNL     1      -1.741   9.604   3.787  0.00  0.00    -0.041 A 
ATOM     25  C   UNL     1      -0.752  10.311   3.129  0.00  0.00    +0.003 A 
ATOM     26  C   UNL     1      -0.142  11.386   3.747  0.00  0.00    +0.000 A 
ATOM     27  C   UNL     1      -0.513  11.749   5.029  0.00  0.00    +0.001 A 
ATOM     28  C   UNL     1      -1.498  11.040   5.690  0.00  0.00    +0.020 A 
ATOM     29  C   UNL     1      -2.112   9.967   5.069  0.00  0.00    +0.043 A 
ATOM     30 CL   UNL     1      -3.349   9.075   5.900  0.00  0.00    -0.083 Cl
ENDBRANCH  23  24
BRANCH  23  32
ATOM     31  C   UNL     1      -0.794   7.912   1.384  0.00  0.00    -0.096 C 
ATOM     32  N   UNL     1      -2.121   8.473   1.671  0.00  0.00    +0.382 N 
ATOM     33  C   UNL     1      -3.164   7.774   0.907  0.00  0.00    -0.096 C 
ATOM     34  H   UNL     1      -2.119   9.526   1.354  0.00  0.00    -0.082 HD
ENDBRANCH  23  32
ENDBRANCH  22  23
ENDBRANCH   1  22
TORSDOF 8
