REMARK  Name = ZINC19219293
REMARK  6 active torsions:
REMARK  status: ('A' for Active; 'I' for Inactive)
REMARK    1  A    between atoms: C_1  and  C_2
REMARK    2  A    between atoms: C_8  and  O_33
REMARK    3  A    between atoms: N_15  and  C_18
REMARK    4  A    between atoms: C_18  and  C_19
REMARK    5  A    between atoms: C_19  and  C_21
REMARK    6  A    between atoms: C_19  and  O_32
REMARK                            x       y       z     vdW  Elec       q    Type
REMARK                         _______ _______ _______ _____ _____    ______ ____
ROOT
ATOM      1  C   UNL     1       6.938   4.985   5.729  0.00  0.00    +0.044 C 
ATOM      2  C   UNL     1       5.546   4.451   5.509  0.00  0.00    -0.050 A 
ATOM      3  C   UNL     1       4.573   5.262   4.955  0.00  0.00    +0.007 A 
ATOM      4  C   UNL     1       3.299   4.772   4.755  0.00  0.00    +0.046 A 
ATOM      5  C   UNL     1       2.989   3.462   5.108  0.00  0.00    +0.127 A 
ATOM      6  C   UNL     1       3.965   2.652   5.660  0.00  0.00    +0.023 A 
ATOM      7  C   UNL     1       5.242   3.150   5.861  0.00  0.00    +0.013 A 
ATOM      8  C   UNL     1       3.674   1.225   6.050  0.00  0.00    +0.152 C 
ATOM      9  C   UNL     1       2.161   1.021   6.167  0.00  0.00    +0.084 C 
ATOM     10  C   UNL     1       1.498   1.608   4.916  0.00  0.00    +0.110 C 
ATOM     11  O   UNL     1       1.722   3.016   4.898  0.00  0.00    -0.485 OA
ATOM     12  C   UNL     1      -0.004   1.321   4.953  0.00  0.00    +0.029 C 
ATOM     13  C   UNL     1      -0.652   1.850   3.671  0.00  0.00    -0.075 C 
ATOM     14  N   UNL     1      -0.037   1.201   2.506  0.00  0.00    +0.382 N 
ATOM     15  C   UNL     1       1.397   1.509   2.424  0.00  0.00    -0.075 C 
ATOM     16  C   UNL     1       2.108   0.969   3.667  0.00  0.00    +0.029 C 
ATOM     17  H   UNL     1      -0.140   0.114   2.635  0.00  0.00    -0.082 HD
ENDROOT
BRANCH   8  18
ATOM     18  O   UNL     1       4.290   0.941   7.308  0.00  0.00    -0.387 OA
ATOM     19  H   UNL     1       4.187  -0.058   7.758  0.00  0.00    +0.210 HD
ENDBRANCH   8  18
BRANCH  14  20
ATOM     20  C   UNL     1      -0.729   1.579   1.267  0.00  0.00    -0.042 C 
BRANCH  20  21
ATOM     21  C   UNL     1      -2.152   1.017   1.285  0.00  0.00    +0.128 C 
BRANCH  21  22
ATOM     22  C   UNL     1      -2.856   1.391   0.007  0.00  0.00    -0.017 A 
ATOM     23  C   UNL     1      -2.697   0.610  -1.122  0.00  0.00    +0.010 A 
ATOM     24  C   UNL     1      -3.344   0.944  -2.298  0.00  0.00    +0.050 A 
ATOM     25  C   UNL     1      -4.146   2.073  -2.343  0.00  0.00    +0.162 A 
ATOM     26  C   UNL     1      -4.301   2.860  -1.212  0.00  0.00    +0.162 A 
ATOM     27  C   UNL     1      -3.656   2.519  -0.035  0.00  0.00    +0.055 A 
ATOM     28  O   UNL     1      -5.094   3.970  -1.266  0.00  0.00    -0.488 OA
ATOM     29  C   UNL     1      -4.611   5.044  -2.075  0.00  0.00    +0.232 C 
ATOM     30  C   UNL     1      -4.993   4.836  -3.532  0.00  0.00    +0.082 C 
ATOM     31  C   UNL     1      -4.327   3.609  -4.136  0.00  0.00    +0.232 C 
ATOM     32  O   UNL     1      -4.787   2.417  -3.498  0.00  0.00    -0.488 OA
ENDBRANCH  21  22
BRANCH  21  33
ATOM     33  O   UNL     1      -2.100  -0.406   1.401  0.00  0.00    -0.389 OA
ATOM     34  H   UNL     1      -3.032  -0.990   1.430  0.00  0.00    +0.210 HD
ENDBRANCH  21  33
ENDBRANCH  20  21
ENDBRANCH  14  20
TORSDOF 5
