REMARK  Name = ZINC15970089
REMARK  8 active torsions:
REMARK  status: ('A' for Active; 'I' for Inactive)
REMARK    1  A    between atoms: C_1  and  C_2
REMARK    2  A    between atoms: C_4  and  C_39
REMARK    3  A    between atoms: C_13  and  C_16
REMARK    4  A    between atoms: C_16  and  C_17
REMARK    5  A    between atoms: N_29  and  C_32
REMARK    6  A    between atoms: C_32  and  C_33
REMARK    7  A    between atoms: C_33  and  O_34
REMARK    8  A    between atoms: O_34  and  C_35
REMARK                            x       y       z     vdW  Elec       q    Type
REMARK                         _______ _______ _______ _____ _____    ______ ____
ROOT
ATOM      1  C   UNL     1      -0.018   1.503   0.010  0.00  0.00    +0.044 C 
ATOM      2  C   UNL     1       0.002  -0.004   0.002  0.00  0.00    -0.050 A 
ATOM      3  C   UNL     1       0.006  -0.691  -1.199  0.00  0.00    +0.008 A 
ATOM      4  C   UNL     1       0.025  -2.070  -1.212  0.00  0.00    -0.029 A 
ATOM      5  C   UNL     1       0.042  -2.782  -0.015  0.00  0.00    +0.042 A 
ATOM      6  C   UNL     1       0.035  -2.081   1.187  0.00  0.00    +0.004 A 
ATOM      7  C   UNL     1       0.023  -0.704   1.195  0.00  0.00    +0.011 A 
ATOM      8  C   UNL     1       0.049  -3.122   2.270  0.00  0.00    +0.136 C 
ATOM      9  C   UNL     1       1.267  -2.968   3.188  0.00  0.00    +0.122 C 
ATOM     10  C   UNL     1       0.745  -3.357   4.599  0.00  0.00    +0.107 C 
ATOM     11  C   UNL     1      -0.743  -3.709   4.388  0.00  0.00    +0.072 C 
ATOM     12  N   UNL     1      -1.134  -3.008   3.143  0.00  0.00    -0.295 NA
ATOM     13  C   UNL     1       1.525  -4.610   4.926  0.00  0.00    +0.227 C 
ATOM     14  O   UNL     1       1.424  -5.251   5.950  0.00  0.00    -0.275 OA
ATOM     15  N   UNL     1       2.342  -4.903   3.908  0.00  0.00    -0.239 N 
ATOM     16  C   UNL     1       2.286  -4.038   2.870  0.00  0.00    +0.228 C 
ATOM     17  O   UNL     1       2.938  -4.104   1.850  0.00  0.00    -0.275 OA
ATOM     18  C   UNL     1       0.069  -4.440   1.545  0.00  0.00    +0.243 C 
ATOM     19  O   UNL     1       0.087  -5.543   2.048  0.00  0.00    -0.273 OA
ATOM     20  N   UNL     1       0.064  -4.157   0.228  0.00  0.00    -0.283 N 
ATOM     21  C   UNL     1       0.029  -2.808  -2.526  0.00  0.00    +0.045 C 
ATOM     22  H   UNL     1      -1.349  -2.042   3.337  0.00  0.00    +0.124 HD
ATOM     23  H   UNL     1       0.074  -4.830  -0.470  0.00  0.00    +0.155 HD
ENDROOT
BRANCH  11  24
ATOM     24  C   UNL     1      -1.579  -3.229   5.576  0.00  0.00    +0.056 C 
BRANCH  24  25
ATOM     25  C   UNL     1      -3.003  -3.690   5.407  0.00  0.00    -0.021 A 
ATOM     26  C   UNL     1      -4.011  -2.988   4.865  0.00  0.00    +0.087 A 
ATOM     27  N   UNL     1      -5.160  -3.731   4.882  0.00  0.00    -0.360 N 
ATOM     28  H   UNL     1      -6.020  -3.435   4.544  0.00  0.00    +0.165 HD
ATOM     29  C   UNL     1      -4.913  -4.961   5.450  0.00  0.00    +0.047 A 
ATOM     30  C   UNL     1      -3.550  -4.991   5.799  0.00  0.00    +0.003 A 
ATOM     31  C   UNL     1      -3.009  -6.131   6.396  0.00  0.00    +0.010 A 
ATOM     32  C   UNL     1      -3.807  -7.214   6.637  0.00  0.00    +0.001 A 
ATOM     33  C   UNL     1      -5.151  -7.191   6.291  0.00  0.00    +0.002 A 
ATOM     34  C   UNL     1      -5.708  -6.072   5.709  0.00  0.00    +0.026 A 
ENDBRANCH  24  25
ENDBRANCH  11  24
BRANCH  15  35
ATOM     35  C   UNL     1       3.234  -6.066   3.917  0.00  0.00    +0.144 C 
BRANCH  35  36
ATOM     36  C   UNL     1       2.507  -7.271   3.317  0.00  0.00    +0.179 C 
BRANCH  36  37
ATOM     37  O   UNL     1       2.227  -7.020   1.938  0.00  0.00    -0.381 OA
ATOM     38  C   UNL     1       1.545  -8.090   1.280  0.00  0.00    +0.194 C 
ENDBRANCH  36  37
ENDBRANCH  35  36
ENDBRANCH  15  35
TORSDOF 5
