REMARK  Name = ZINC44960132
REMARK  10 active torsions:
REMARK  status: ('A' for Active; 'I' for Inactive)
REMARK    1  A    between atoms: C_1  and  C_2
REMARK    2  A    between atoms: C_2  and  C_4
REMARK    3  A    between atoms: C_2  and  C_12
REMARK    4  A    between atoms: C_5  and  C_6
REMARK    5  A    between atoms: C_6  and  C_8
REMARK    6  A    between atoms: C_6  and  O_11
REMARK    7  A    between atoms: C_18  and  C_36
REMARK    8  A    between atoms: C_23  and  C_24
REMARK    9  A    between atoms: C_27  and  O_35
REMARK   10  A    between atoms: C_30  and  O_34
REMARK                            x       y       z     vdW  Elec       q    Type
REMARK                         _______ _______ _______ _____ _____    ______ ____
ROOT
ATOM      1  C   UNL     1       1.081  -0.526  -1.298  0.00  0.00    +0.002 C 
ATOM      2  C   UNL     1       2.624  -0.427  -1.430  0.00  0.00    +0.005 C 
ATOM      3  C   UNL     1       3.145  -1.885  -1.572  0.00  0.00    +0.009 C 
ATOM      4  C   UNL     1       1.927  -2.627  -2.126  0.00  0.00    +0.021 C 
ATOM      5  C   UNL     1       0.781  -2.017  -1.268  0.00  0.00    -0.022 C 
ATOM      6  C   UNL     1      -0.530  -2.496  -1.845  0.00  0.00    +0.008 C 
ATOM      7  C   UNL     1      -0.625  -4.010  -1.586  0.00  0.00    +0.005 C 
ATOM      8  C   UNL     1       0.537  -4.767  -2.225  0.00  0.00    +0.031 C 
ATOM      9  C   UNL     1       1.876  -4.107  -1.892  0.00  0.00    -0.066 C 
ATOM     10  C   UNL     1       2.918  -4.792  -1.420  0.00  0.00    -0.000 C 
ATOM     11  C   UNL     1       0.904  -2.527   0.170  0.00  0.00    +0.012 C 
ENDROOT
BRANCH  10  12
ATOM     12  C   UNL     1       2.811  -6.237  -1.211  0.00  0.00    +0.004 C 
ATOM     13  C   UNL     1       3.865  -6.930  -0.734  0.00  0.00    -0.040 C 
ATOM     14  C   UNL     1       3.797  -8.428  -0.510  0.00  0.00    +0.067 C 
ATOM     15  C   UNL     1       5.060  -9.062  -1.101  0.00  0.00    +0.122 C 
ATOM     16  C   UNL     1       6.301  -8.448  -0.451  0.00  0.00    +0.067 C 
ATOM     17  C   UNL     1       6.412  -6.970  -0.839  0.00  0.00    +0.147 C 
ATOM     18  C   UNL     1       5.145  -6.266  -0.409  0.00  0.00    -0.023 C 
ATOM     19  C   UNL     1       5.184  -5.100   0.236  0.00  0.00    +0.015 C 
BRANCH  17  20
ATOM     20  O   UNL     1       7.539  -6.384  -0.183  0.00  0.00    -0.387 OA
ATOM     21  H   UNL     1       7.668  -5.448  -0.385  0.00  0.00    +0.210 HD
ENDBRANCH  17  20
BRANCH  15  22
ATOM     22  O   UNL     1       5.044 -10.470  -0.855  0.00  0.00    -0.391 OA
ATOM     23  H   UNL     1       4.286 -10.928  -1.242  0.00  0.00    +0.210 HD
ENDBRANCH  15  22
ENDBRANCH  10  12
BRANCH   1  25
ATOM     24  C   UNL     1       0.959   1.627  -0.037  0.00  0.00    +0.012 C 
ATOM     25  C   UNL     1       0.615   0.137  -0.001  0.00  0.00    +0.012 C 
BRANCH  25  26
ATOM     26  C   UNL     1      -0.875  -0.032   0.142  0.00  0.00    -0.025 C 
ATOM     27  C   UNL     1      -1.367  -0.666   1.178  0.00  0.00    +0.000 C 
BRANCH  27  28
ATOM     28  C   UNL     1      -2.857  -0.835   1.320  0.00  0.00    +0.140 C 
BRANCH  28  29
ATOM     29  C   UNL     1      -3.190  -2.320   1.482  0.00  0.00    +0.022 C 
ATOM     30  C   UNL     1      -3.931  -3.007   0.334  0.00  0.00    +0.007 C 
ATOM     31  C   UNL     1      -4.663  -2.701   1.643  0.00  0.00    +0.007 C 
ENDBRANCH  28  29
BRANCH  28  32
ATOM     32  O   UNL     1      -3.508  -0.326   0.154  0.00  0.00    -0.387 OA
ATOM     33  H   UNL     1      -3.248  -0.767  -0.665  0.00  0.00    +0.210 HD
ENDBRANCH  28  32
ENDBRANCH  27  28
ENDBRANCH  25  26
ENDBRANCH   1  25
TORSDOF 8
