REMARK  Name = ZINC21334101
REMARK  7 active torsions:
REMARK  status: ('A' for Active; 'I' for Inactive)
REMARK    1  A    between atoms: C_5  and  C_7
REMARK    2  A    between atoms: N_8  and  N_9
REMARK    3  A    between atoms: C_10  and  C_22
REMARK    4  A    between atoms: N_14  and  C_15
REMARK    5  A    between atoms: C_15  and  C_16
REMARK    6  A    between atoms: C_25  and  O_31
REMARK    7  A    between atoms: C_26  and  C_28
REMARK                            x       y       z     vdW  Elec       q    Type
REMARK                         _______ _______ _______ _____ _____    ______ ____
ROOT
ATOM      1  N   UNL     1       3.605   6.246   0.103  0.00  0.00    -0.208 N 
ATOM      2  C   UNL     1       2.455   5.573  -0.213  0.00  0.00    +0.082 A 
ATOM      3  C   UNL     1       1.290   6.246  -0.302  0.00  0.00    +0.077 A 
ATOM      4  S   UNL     1       1.791   7.920   0.063  0.00  0.00    -0.056 S 
ATOM      5  C   UNL     1       3.532   7.611   0.312  0.00  0.00    +0.190 A 
ATOM      6  N   UNL     1       4.486   8.452   0.618  0.00  0.00    -0.257 NA
ENDROOT
BRANCH   2   7
ATOM      7  C   UNL     1       2.490   4.113  -0.450  0.00  0.00    +0.002 A 
ATOM      8  C   UNL     1       3.640   3.518  -0.977  0.00  0.00    +0.013 A 
ATOM      9  C   UNL     1       3.679   2.158  -1.199  0.00  0.00    +0.047 A 
ATOM     10  C   UNL     1       2.576   1.370  -0.902  0.00  0.00    +0.129 A 
ATOM     11  C   UNL     1       1.417   1.956  -0.374  0.00  0.00    +0.078 A 
ATOM     12  C   UNL     1       1.376   3.333  -0.155  0.00  0.00    +0.026 A 
BRANCH  11  13
ATOM     13  C   UNL     1       0.242   1.121  -0.058  0.00  0.00    +0.245 C 
ATOM     14  O   UNL     1       0.279  -0.078  -0.255  0.00  0.00    -0.270 OA
ATOM     15  N   UNL     1      -0.872   1.688   0.445  0.00  0.00    -0.325 N 
ATOM     16  H   UNL     1      -1.748   1.066   0.680  0.00  0.00    +0.145 HD
ATOM     17  H   UNL     1      -0.906   2.774   0.618  0.00  0.00    +0.145 HD
ENDBRANCH  11  13
BRANCH  10  18
ATOM     18  O   UNL     1       2.619   0.032  -1.124  0.00  0.00    -0.506 OA
ATOM     19  H   UNL     1       1.744  -0.593  -0.888  0.00  0.00    +0.292 HD
ENDBRANCH  10  18
ENDBRANCH   2   7
BRANCH   1  21
ATOM     20  C   UNL     1       5.783   6.062   0.936  0.00  0.00    +0.161 C 
ATOM     21  N   UNL     1       4.827   5.569   0.207  0.00  0.00    -0.170 NA
BRANCH  20  26
ATOM     22  C   UNL     1       9.368   5.331   1.738  0.00  0.00    +0.004 A 
ATOM     23  C   UNL     1       9.544   4.197   0.956  0.00  0.00    +0.020 A 
ATOM     24  C   UNL     1       8.487   3.721   0.201  0.00  0.00    +0.111 A 
ATOM     25  N   UNL     1       7.318   4.327   0.215  0.00  0.00    -0.254 NA
ATOM     26  C   UNL     1       7.107   5.415   0.950  0.00  0.00    +0.084 A 
ATOM     27  C   UNL     1       8.133   5.952   1.732  0.00  0.00    +0.029 A 
ENDBRANCH  20  26
ENDBRANCH   1  21
BRANCH   6  28
ATOM     28  C   UNL     1       4.178   9.873   0.802  0.00  0.00    +0.176 C 
BRANCH  28  29
ATOM     29  C   UNL     1       4.556  10.296   2.223  0.00  0.00    +0.140 C 
ATOM     30  C   UNL     1       4.236  11.790   2.427  0.00  0.00    +0.035 C 
ATOM     31  C   UNL     1       3.245  11.807   3.617  0.00  0.00    +0.031 C 
ATOM     32  C   UNL     1       3.526  10.441   4.293  0.00  0.00    +0.160 C 
ATOM     33  O   UNL     1       3.774   9.558   3.177  0.00  0.00    -0.375 OA
ENDBRANCH  28  29
ENDBRANCH   6  28
TORSDOF 7
