REMARK  Name = ZINC36408810
REMARK  8 active torsions:
REMARK  status: ('A' for Active; 'I' for Inactive)
REMARK    1  A    between atoms: C_1  and  C_2
REMARK    2  A    between atoms: C_14  and  C_16
REMARK    3  A    between atoms: C_16  and  N_17
REMARK    4  A    between atoms: N_17  and  C_18
REMARK    5  A    between atoms: N_17  and  C_19
REMARK    6  A    between atoms: C_19  and  C_20
REMARK    7  A    between atoms: C_19  and  C_21
REMARK    8  A    between atoms: N_23  and  C_24
REMARK                            x       y       z     vdW  Elec       q    Type
REMARK                         _______ _______ _______ _____ _____    ______ ____
ROOT
ATOM      1  C   UNL     1       0.780  -1.280   3.567  0.00  0.00    +0.020 C 
ENDROOT
BRANCH   1  15
ATOM      2  C   UNL     1       0.295   2.342   0.722  0.00  0.00    +0.029 C 
ATOM      3  C   UNL     1       0.023   0.857   0.478  0.00  0.00    +0.087 C 
ATOM      4  C   UNL     1       0.517   0.472  -0.917  0.00  0.00    +0.118 C 
ATOM      5  C   UNL     1       0.627  -1.026  -1.033  0.00  0.00    +0.219 C 
ATOM      6  O   UNL     1      -0.209  -1.645  -1.656  0.00  0.00    -0.275 OA
ATOM      7  N   UNL     1       1.652  -1.683  -0.448  0.00  0.00    -0.284 N 
ATOM      8  C   UNL     1       2.571  -0.996   0.353  0.00  0.00    +0.055 A 
ATOM      9  C   UNL     1       3.934  -1.155   0.167  0.00  0.00    +0.025 A 
ATOM     10  C   UNL     1       4.824  -0.484   0.986  0.00  0.00    +0.002 A 
ATOM     11  C   UNL     1       4.357   0.344   1.991  0.00  0.00    +0.002 A 
ATOM     12  C   UNL     1       2.997   0.515   2.177  0.00  0.00    +0.025 A 
ATOM     13  C   UNL     1       2.100  -0.145   1.353  0.00  0.00    +0.058 A 
ATOM     14  N   UNL     1       0.720   0.061   1.490  0.00  0.00    -0.268 N 
ATOM     15  C   UNL     1       0.048  -0.464   2.534  0.00  0.00    +0.204 C 
ATOM     16  O   UNL     1      -1.145  -0.279   2.641  0.00  0.00    -0.277 OA
ATOM     17  H   UNL     1       1.751  -2.639  -0.584  0.00  0.00    +0.155 HD
ENDBRANCH   1  15
BRANCH   1  18
ATOM     18  N   UNL     1      -0.168  -1.735   4.593  0.00  0.00    +0.391 N 
ATOM     19  C   UNL     1      -0.697  -0.573   5.320  0.00  0.00    -0.094 C 
ATOM     20  H   UNL     1      -0.928  -2.231   4.153  0.00  0.00    -0.080 HD
BRANCH  18  21
ATOM     21  C   UNL     1       0.521  -2.629   5.534  0.00  0.00    +0.017 C 
ATOM     22  C   UNL     1       1.132  -3.804   4.768  0.00  0.00    -0.004 C 
BRANCH  21  23
ATOM     23  C   UNL     1      -0.467  -3.149   6.547  0.00  0.00    +0.203 C 
ATOM     24  O   UNL     1      -1.639  -3.251   6.253  0.00  0.00    -0.277 OA
ATOM     25  N   UNL     1      -0.047  -3.500   7.779  0.00  0.00    -0.286 N 
ATOM     26  H   UNL     1       0.898  -3.474   7.995  0.00  0.00    +0.155 HD
BRANCH  25  27
ATOM     27  C   UNL     1      -0.976  -3.901   8.746  0.00  0.00    +0.053 A 
ATOM     28  C   UNL     1      -2.170  -4.496   8.360  0.00  0.00    +0.025 A 
ATOM     29  C   UNL     1      -3.084  -4.892   9.317  0.00  0.00    +0.003 A 
ATOM     30  C   UNL     1      -2.813  -4.696  10.659  0.00  0.00    +0.021 A 
ATOM     31  C   UNL     1      -1.624  -4.104  11.048  0.00  0.00    +0.061 A 
ATOM     32  C   UNL     1      -0.702  -3.711  10.095  0.00  0.00    +0.080 A 
ATOM     33 CL   UNL     1       0.792  -2.974  10.583  0.00  0.00    -0.080 Cl
ATOM     34 CL   UNL     1      -1.288  -3.860  12.734  0.00  0.00    -0.082 Cl
ENDBRANCH  25  27
ENDBRANCH  21  23
ENDBRANCH  18  21
ENDBRANCH   1  18
TORSDOF 5
