REMARK  Name = ZINC63098799
REMARK  8 active torsions:
REMARK  status: ('A' for Active; 'I' for Inactive)
REMARK    1  A    between atoms: C_1  and  N_2
REMARK    2  A    between atoms: C_4  and  C_12
REMARK    3  A    between atoms: C_13  and  C_14
REMARK    4  A    between atoms: C_13  and  N_28
REMARK    5  A    between atoms: N_16  and  C_17
REMARK    6  A    between atoms: C_17  and  C_18
REMARK    7  A    between atoms: C_18  and  C_19
REMARK    8  A    between atoms: C_29  and  C_31
REMARK                            x       y       z     vdW  Elec       q    Type
REMARK                         _______ _______ _______ _____ _____    ______ ____
ROOT
ATOM      1  C   UNL     1      -0.978  -3.142   1.231  0.00  0.00    +0.011 C 
ATOM      2  C   UNL     1      -1.918  -4.083   1.117  0.00  0.00    +0.093 C 
ENDROOT
BRANCH   1   6
ATOM      3  C   UNL     1       0.676   1.153  -0.076  0.00  0.00    +0.129 C 
ATOM      4  N   UNL     1       0.522  -0.304  -0.037  0.00  0.00    -0.332 N 
ATOM      5  C   UNL     1      -0.760  -1.014  -0.063  0.00  0.00    +0.117 C 
ATOM      6  C   UNL     1      -0.395  -2.506  -0.005  0.00  0.00    +0.063 C 
ATOM      7  C   UNL     1       1.116  -2.526   0.051  0.00  0.00    -0.018 A 
ATOM      8  C   UNL     1       1.575  -1.218   0.023  0.00  0.00    +0.033 A 
ATOM      9  C   UNL     1       2.951  -0.982   0.059  0.00  0.00    +0.023 A 
ATOM     10  C   UNL     1       3.836  -2.037   0.118  0.00  0.00    +0.002 A 
ATOM     11  C   UNL     1       3.368  -3.338   0.142  0.00  0.00    +0.000 A 
ATOM     12  C   UNL     1       2.007  -3.580   0.115  0.00  0.00    +0.006 A 
ENDBRANCH   1   6
BRANCH   2  13
ATOM     13  C   UNL     1      -2.572  -4.622   2.325  0.00  0.00    +0.258 C 
ATOM     14  O   UNL     1      -3.428  -5.480   2.221  0.00  0.00    -0.269 OA
ATOM     15  N   UNL     1      -2.221  -4.165   3.543  0.00  0.00    -0.310 N 
ATOM     16  H   UNL     1      -1.538  -3.481   3.626  0.00  0.00    +0.149 HD
BRANCH  15  17
ATOM     17  C   UNL     1      -2.870  -4.700   4.742  0.00  0.00    +0.109 C 
BRANCH  17  18
ATOM     18  C   UNL     1      -2.293  -4.016   5.983  0.00  0.00    +0.052 C 
BRANCH  18  19
ATOM     19  C   UNL     1      -2.961  -4.566   7.216  0.00  0.00    -0.040 C 
ATOM     20  C   UNL     1      -2.510  -5.566   8.008  0.00  0.00    -0.001 A 
ATOM     21  C   UNL     1      -1.310  -6.409   7.958  0.00  0.00    +0.010 A 
ATOM     22  C   UNL     1      -1.129  -7.350   8.913  0.00  0.00    +0.001 A 
ATOM     23  C   UNL     1      -2.057  -7.540   9.946  0.00  0.00    +0.002 A 
ATOM     24  C   UNL     1      -3.183  -6.804  10.059  0.00  0.00    +0.026 A 
ATOM     25  C   UNL     1      -3.475  -5.787   9.109  0.00  0.00    +0.043 A 
ATOM     26  N   UNL     1      -4.482  -4.955   9.003  0.00  0.00    -0.380 N 
ATOM     27  C   UNL     1      -4.268  -4.108   7.824  0.00  0.00    +0.144 C 
ATOM     28  H   UNL     1      -5.241  -4.905   9.605  0.00  0.00    +0.160 HD
ENDBRANCH  18  19
ENDBRANCH  17  18
ENDBRANCH  15  17
ENDBRANCH   2  13
BRANCH   2  29
ATOM     29  N   UNL     1      -2.283  -4.559  -0.148  0.00  0.00    -0.278 N 
ATOM     30  C   UNL     1      -2.178  -5.873  -0.431  0.00  0.00    +0.248 C 
ATOM     31  O   UNL     1      -1.683  -6.631   0.381  0.00  0.00    -0.270 OA
ATOM     32  H   UNL     1      -2.612  -3.943  -0.822  0.00  0.00    +0.155 HD
BRANCH  30  33
ATOM     33  C   UNL     1      -2.664  -6.391  -1.726  0.00  0.00    +0.037 A 
ATOM     34  C   UNL     1      -3.228  -5.523  -2.662  0.00  0.00    +0.013 A 
ATOM     35  C   UNL     1      -3.679  -6.013  -3.870  0.00  0.00    +0.001 A 
ATOM     36  C   UNL     1      -3.575  -7.364  -4.154  0.00  0.00    +0.000 A 
ATOM     37  C   UNL     1      -3.018  -8.230  -3.231  0.00  0.00    +0.001 A 
ATOM     38  C   UNL     1      -2.556  -7.751  -2.022  0.00  0.00    +0.013 A 
ENDBRANCH  30  33
ENDBRANCH   2  29
TORSDOF 7
