REMARK  Name = ZINC19848986
REMARK  8 active torsions:
REMARK  status: ('A' for Active; 'I' for Inactive)
REMARK    1  A    between atoms: C_1  and  C_2
REMARK    2  A    between atoms: C_2  and  C_3
REMARK    3  A    between atoms: C_3  and  C_35
REMARK    4  A    between atoms: C_8  and  C_11
REMARK    5  A    between atoms: C_14  and  O_18
REMARK    6  A    between atoms: C_16  and  O_17
REMARK    7  A    between atoms: O_18  and  C_19
REMARK    8  A    between atoms: N_22  and  C_25
REMARK                            x       y       z     vdW  Elec       q    Type
REMARK                         _______ _______ _______ _____ _____    ______ ____
ROOT
ATOM      1  C   UNL     1      -4.228   7.801  -1.142  0.00  0.00    +0.048 C 
ATOM      2  C   UNL     1      -3.367   6.667  -0.637  0.00  0.00    +0.086 C 
ATOM      3  C   UNL     1      -2.977   7.298   0.759  0.00  0.00    +0.077 C 
ATOM      4  C   UNL     1      -4.311   7.697   1.275  0.00  0.00    -0.023 C 
ATOM      5  N   UNL     1      -5.075   8.122   0.056  0.00  0.00    +0.396 N 
ATOM      6  C   UNL     1      -1.982   6.317   1.192  0.00  0.00    +0.229 C 
ATOM      7  O   UNL     1      -1.778   5.918   2.319  0.00  0.00    -0.275 OA
ATOM      8  N   UNL     1      -1.327   5.951   0.043  0.00  0.00    -0.209 N 
ATOM      9  C   UNL     1      -1.999   6.332  -1.089  0.00  0.00    +0.229 C 
ATOM     10  O   UNL     1      -1.564   6.384  -2.219  0.00  0.00    -0.275 OA
ATOM     11  H   UNL     1      -5.275   9.203   0.085  0.00  0.00    -0.083 HD
ATOM     12  H   UNL     1      -6.027   7.575  -0.011  0.00  0.00    -0.083 HD
ENDROOT
BRANCH   8  13
ATOM     13  C   UNL     1      -0.111   5.258   0.029  0.00  0.00    +0.052 A 
ATOM     14  C   UNL     1       1.081   5.949   0.021  0.00  0.00    +0.024 A 
ATOM     15  C   UNL     1       2.296   5.270   0.006  0.00  0.00    +0.002 A 
ATOM     16  C   UNL     1       2.341   3.909  -0.000  0.00  0.00    +0.008 A 
ATOM     17  C   UNL     1       1.147   3.168   0.008  0.00  0.00    -0.016 A 
ATOM     18  C   UNL     1      -0.096   3.848   0.023  0.00  0.00    +0.004 A 
ATOM     19  C   UNL     1      -1.287   3.106   0.030  0.00  0.00    +0.010 A 
ATOM     20  C   UNL     1      -1.234   1.746   0.017  0.00  0.00    +0.001 A 
ATOM     21  C   UNL     1      -0.013   1.076   0.008  0.00  0.00    +0.001 A 
ATOM     22  C   UNL     1       1.163   1.762   0.000  0.00  0.00    +0.008 A 
ENDBRANCH   8  13
BRANCH   4  23
ATOM     23  C   UNL     1      -4.989   6.527   1.940  0.00  0.00    -0.019 A 
ATOM     24  C   UNL     1      -5.823   5.705   1.206  0.00  0.00    +0.009 A 
ATOM     25  C   UNL     1      -6.446   4.631   1.813  0.00  0.00    +0.046 A 
ATOM     26  C   UNL     1      -6.236   4.377   3.161  0.00  0.00    +0.124 A 
ATOM     27  C   UNL     1      -5.401   5.200   3.899  0.00  0.00    +0.091 A 
ATOM     28  C   UNL     1      -4.772   6.274   3.286  0.00  0.00    +0.122 A 
BRANCH  28  29
ATOM     29  O   UNL     1      -3.948   7.080   4.006  0.00  0.00    -0.506 OA
ATOM     30  H   UNL     1      -3.776   6.879   5.074  0.00  0.00    +0.292 HD
ENDBRANCH  28  29
BRANCH  26  31
ATOM     31  O   UNL     1      -6.850   3.321   3.757  0.00  0.00    -0.495 OA
ATOM     32  C   UNL     1      -7.697   2.515   2.936  0.00  0.00    +0.277 C 
ENDBRANCH  26  31
ENDBRANCH   4  23
BRANCH   1  33
ATOM     33  C   UNL     1      -3.380   8.984  -1.531  0.00  0.00    +0.346 C 
ATOM     34  O   UNL     1      -2.226   8.822  -1.852  0.00  0.00    -0.248 OA
ATOM     35  O   UNL     1      -3.906  10.219  -1.521  0.00  0.00    -0.248 OA
ENDBRANCH   1  33
BRANCH   1  37
ATOM     36  C   UNL     1      -5.950   8.514  -2.805  0.00  0.00    +0.003 C 
ATOM     37  C   UNL     1      -5.093   7.344  -2.318  0.00  0.00    -0.004 C 
ENDBRANCH   1  37
TORSDOF 6
