REMARK  Name = ZINC64802099
REMARK  9 active torsions:
REMARK  status: ('A' for Active; 'I' for Inactive)
REMARK    1  A    between atoms: C_1  and  C_2
REMARK    2  A    between atoms: C_4  and  C_33
REMARK    3  A    between atoms: C_5  and  S_10
REMARK    4  A    between atoms: C_7  and  O_8
REMARK    5  A    between atoms: O_8  and  C_9
REMARK    6  A    between atoms: S_10  and  N_13
REMARK    7  A    between atoms: N_13  and  C_14
REMARK    8  A    between atoms: C_17  and  N_20
REMARK    9  A    between atoms: C_23  and  C_32
REMARK                            x       y       z     vdW  Elec       q    Type
REMARK                         _______ _______ _______ _____ _____    ______ ____
ROOT
ATOM      1  C   UNL     1      -2.237  -5.436  -1.980  0.00  0.00    +0.048 A 
ATOM      2  C   UNL     1      -2.274  -4.228  -2.663  0.00  0.00    +0.026 A 
ATOM      3  C   UNL     1      -2.748  -4.182  -3.960  0.00  0.00    +0.025 A 
ATOM      4  C   UNL     1      -3.187  -5.345  -4.580  0.00  0.00    +0.032 A 
ATOM      5  C   UNL     1      -3.150  -6.553  -3.897  0.00  0.00    +0.025 A 
ATOM      6  C   UNL     1      -2.671  -6.600  -2.602  0.00  0.00    +0.026 A 
ENDROOT
BRANCH   4   7
ATOM      7  N   UNL     1      -3.669  -5.298  -5.894  0.00  0.00    -0.299 N 
ATOM      8  C   UNL     1      -4.694  -6.144  -6.288  0.00  0.00    +0.128 A 
ATOM      9  C   UNL     1      -5.098  -6.194  -7.624  0.00  0.00    +0.064 A 
ATOM     10  C   UNL     1      -6.124  -7.052  -7.970  0.00  0.00    +0.019 A 
ATOM     11  N   UNL     1      -6.690  -7.796  -7.032  0.00  0.00    -0.331 N 
ATOM     12  C   UNL     1      -6.287  -7.728  -5.772  0.00  0.00    +0.197 A 
ATOM     13  N   UNL     1      -5.303  -6.923  -5.400  0.00  0.00    -0.201 NA
ATOM     14  N   UNL     1      -6.905  -8.522  -4.821  0.00  0.00    -0.301 N 
ATOM     15  C   UNL     1      -7.998  -9.471  -5.077  0.00  0.00    +0.108 C 
ATOM     16  C   UNL     1      -8.380 -10.106  -3.724  0.00  0.00    +0.020 C 
ATOM     17  C   UNL     1      -7.866  -9.065  -2.694  0.00  0.00    +0.020 C 
ATOM     18  C   UNL     1      -6.572  -8.560  -3.385  0.00  0.00    +0.108 C 
ATOM     19  C   UNL     1      -6.593  -7.139  -9.399  0.00  0.00    +0.063 C 
ATOM     20  H   UNL     1      -3.284  -4.674  -6.530  0.00  0.00    +0.154 HD
ATOM     21  H   UNL     1      -7.411  -8.400  -7.271  0.00  0.00    +0.168 HD
ENDBRANCH   4   7
BRANCH   1  22
ATOM     22  N   UNL     1      -1.757  -5.483  -0.667  0.00  0.00    -0.216 N 
ATOM     23  H   UNL     1      -2.247  -5.974   0.012  0.00  0.00    +0.174 HD
BRANCH  22  24
ATOM     24  S   UNL     1      -0.352  -4.701  -0.271  0.00  0.00    +0.073 S 
ATOM     25  O   UNL     1      -0.075  -5.024   1.085  0.00  0.00    -0.150 OA
ATOM     26  O   UNL     1      -0.493  -3.360  -0.721  0.00  0.00    -0.150 OA
BRANCH  24  31
ATOM     27  C   UNL     1       4.056  -7.184  -3.564  0.00  0.00    +0.047 C 
ATOM     28  C   UNL     1       2.956  -6.563  -2.743  0.00  0.00    -0.008 A 
ATOM     29  C   UNL     1       2.290  -7.317  -1.796  0.00  0.00    +0.012 A 
ATOM     30  C   UNL     1       1.281  -6.748  -1.042  0.00  0.00    -0.023 A 
ATOM     31  C   UNL     1       0.935  -5.423  -1.233  0.00  0.00    +0.115 A 
ATOM     32  C   UNL     1       1.599  -4.664  -2.178  0.00  0.00    +0.075 A 
ATOM     33  C   UNL     1       2.616  -5.232  -2.932  0.00  0.00    +0.125 A 
ATOM     34  C   UNL     1       0.555  -7.573  -0.011  0.00  0.00    +0.046 C 
BRANCH  33  35
ATOM     35  O   UNL     1       3.273  -4.486  -3.858  0.00  0.00    -0.495 OA
ATOM     36  C   UNL     1       2.870  -3.123  -3.999  0.00  0.00    +0.277 C 
ENDBRANCH  33  35
ENDBRANCH  24  31
ENDBRANCH  22  24
ENDBRANCH   1  22
TORSDOF 5
