REMARK  Name = ZINC01220341
REMARK  9 active torsions:
REMARK  status: ('A' for Active; 'I' for Inactive)
REMARK    1  A    between atoms: C_3  and  N_29
REMARK    2  A    between atoms: C_6  and  C_7
REMARK    3  A    between atoms: C_7  and  O_8
REMARK    4  A    between atoms: O_8  and  C_9
REMARK    5  A    between atoms: C_12  and  C_15
REMARK    6  A    between atoms: C_16  and  C_17
REMARK    7  A    between atoms: C_16  and  C_19
REMARK    8  A    between atoms: N_21  and  C_22
REMARK    9  A    between atoms: C_25  and  O_28
REMARK                            x       y       z     vdW  Elec       q    Type
REMARK                         _______ _______ _______ _____ _____    ______ ____
ROOT
ATOM      1  C   UNL     1       4.123  -9.046  -0.931  0.00  0.00    +0.121 A 
ATOM      2  C   UNL     1       5.262  -8.247  -0.944  0.00  0.00    +0.046 A 
ATOM      3  C   UNL     1       5.156  -6.898  -0.754  0.00  0.00    +0.011 A 
ATOM      4  C   UNL     1       3.896  -6.319  -0.546  0.00  0.00    -0.023 A 
ATOM      5  C   UNL     1       2.752  -7.130  -0.528  0.00  0.00    +0.011 A 
ATOM      6  C   UNL     1       2.870  -8.477  -0.725  0.00  0.00    +0.046 A 
ENDROOT
BRANCH   4   7
ATOM      7  C   UNL     1       3.776  -4.874  -0.342  0.00  0.00    +0.032 C 
ATOM      8  C   UNL     1       2.663  -4.204  -0.801  0.00  0.00    +0.114 C 
BRANCH   8   9
ATOM      9  C   UNL     1       2.463  -2.788  -0.456  0.00  0.00    +0.259 C 
ATOM     10  O   UNL     1       3.280  -2.208   0.234  0.00  0.00    -0.269 OA
ATOM     11  N   UNL     1       1.374  -2.132  -0.905  0.00  0.00    -0.281 N 
ATOM     12  H   UNL     1       0.685  -2.612  -1.391  0.00  0.00    +0.155 HD
BRANCH  11  13
ATOM     13  C   UNL     1       1.237  -0.759  -0.669  0.00  0.00    +0.034 A 
ATOM     14  C   UNL     1       2.352   0.068  -0.713  0.00  0.00    +0.027 A 
ATOM     15  C   UNL     1       2.216   1.423  -0.481  0.00  0.00    +0.047 A 
ATOM     16  C   UNL     1       0.966   1.957  -0.204  0.00  0.00    +0.117 A 
ATOM     17  C   UNL     1      -0.148   1.132  -0.160  0.00  0.00    +0.047 A 
ATOM     18  C   UNL     1      -0.014  -0.223  -0.392  0.00  0.00    +0.027 A 
BRANCH  16  19
ATOM     19  O   UNL     1       0.833   3.291   0.025  0.00  0.00    -0.507 OA
ATOM     20  H   UNL     1       0.661   3.811  -0.772  0.00  0.00    +0.292 HD
ENDBRANCH  16  19
ENDBRANCH  11  13
ENDBRANCH   8   9
BRANCH   8  21
ATOM     21  C   UNL     1       1.701  -4.886  -1.613  0.00  0.00    +0.104 C 
ATOM     22  N   UNL     1       0.938  -5.427  -2.258  0.00  0.00    -0.191 NA
ENDBRANCH   8  21
ENDBRANCH   4   7
BRANCH   1  23
ATOM     23  O   UNL     1       4.234 -10.384  -1.120  0.00  0.00    -0.487 OA
BRANCH  23  24
ATOM     24  C   UNL     1       3.026 -11.146  -1.095  0.00  0.00    +0.264 C 
BRANCH  24  30
ATOM     25  C   UNL     1       3.362 -13.114  -2.605  0.00  0.00    +0.009 A 
ATOM     26  C   UNL     1       3.659 -14.448  -2.813  0.00  0.00    +0.033 A 
ATOM     27  C   UNL     1       3.928 -15.272  -1.736  0.00  0.00    +0.126 A 
ATOM     28  C   UNL     1       3.905 -14.761  -0.452  0.00  0.00    +0.033 A 
ATOM     29  C   UNL     1       3.613 -13.425  -0.244  0.00  0.00    +0.009 A 
ATOM     30  C   UNL     1       3.344 -12.601  -1.321  0.00  0.00    -0.010 A 
BRANCH  27  31
ATOM     31  N   UNL     1       4.241 -16.701  -1.958  0.00  0.00    +0.056 N 
ATOM     32  O   UNL     1       4.478 -17.427  -1.009  0.00  0.00    -0.126 OA
ATOM     33  O   UNL     1       4.261 -17.152  -3.089  0.00  0.00    -0.126 OA
ENDBRANCH  27  31
ENDBRANCH  24  30
ENDBRANCH  23  24
ENDBRANCH   1  23
TORSDOF 9
