REMARK  Name = ZINC14241112
REMARK  12 active torsions:
REMARK  status: ('A' for Active; 'I' for Inactive)
REMARK    1  A    between atoms: C_1  and  C_2
REMARK    2  A    between atoms: C_5  and  S_8
REMARK    3  A    between atoms: S_8  and  N_11
REMARK    4  A    between atoms: N_11  and  C_12
REMARK    5  A    between atoms: C_12  and  C_14
REMARK    6  A    between atoms: C_12  and  C_18
REMARK    7  A    between atoms: C_14  and  C_15
REMARK    8  A    between atoms: C_15  and  C_16
REMARK    9  A    between atoms: C_15  and  C_17
REMARK   10  A    between atoms: N_20  and  N_21
REMARK   11  A    between atoms: C_22  and  C_24
REMARK   12  A    between atoms: C_24  and  C_25
REMARK                            x       y       z     vdW  Elec       q    Type
REMARK                         _______ _______ _______ _____ _____    ______ ____
ROOT
ATOM      1  C   UNL     1      -3.977   3.924   3.207  0.00  0.00    +0.248 C 
ATOM      2  O   UNL     1      -4.423   4.373   2.172  0.00  0.00    -0.273 OA
ATOM      3  N   UNL     1      -2.995   3.002   3.173  0.00  0.00    -0.233 N 
ATOM      4  H   UNL     1      -2.638   2.642   4.001  0.00  0.00    +0.173 HD
ENDROOT
BRANCH   3   5
ATOM      5  N   UNL     1      -2.488   2.562   1.943  0.00  0.00    -0.234 N 
ATOM      6  C   UNL     1      -1.506   1.640   1.909  0.00  0.00    +0.233 C 
ATOM      7  O   UNL     1      -1.060   1.190   2.944  0.00  0.00    -0.274 OA
ATOM      8  H   UNL     1      -2.845   2.922   1.115  0.00  0.00    +0.173 HD
BRANCH   6   9
ATOM      9  C   UNL     1      -0.961   1.167   0.586  0.00  0.00    +0.134 C 
BRANCH   9  10
ATOM     10  C   UNL     1       0.120   0.145   0.824  0.00  0.00    -0.014 A 
ATOM     11  C   UNL     1       1.441   0.376   0.875  0.00  0.00    +0.087 A 
ATOM     12  N   UNL     1       2.111  -0.794   1.104  0.00  0.00    -0.360 N 
ATOM     13  H   UNL     1       3.075  -0.879   1.180  0.00  0.00    +0.165 HD
ATOM     14  C   UNL     1       1.215  -1.835   1.208  0.00  0.00    +0.047 A 
ATOM     15  C   UNL     1      -0.072  -1.292   1.038  0.00  0.00    +0.003 A 
ATOM     16  C   UNL     1      -1.192  -2.123   1.096  0.00  0.00    +0.010 A 
ATOM     17  C   UNL     1      -1.032  -3.462   1.318  0.00  0.00    +0.001 A 
ATOM     18  C   UNL     1       0.236  -4.003   1.486  0.00  0.00    +0.002 A 
ATOM     19  C   UNL     1       1.355  -3.200   1.433  0.00  0.00    +0.026 A 
ENDBRANCH   9  10
ENDBRANCH   6   9
ENDBRANCH   3   5
BRANCH   1  20
ATOM     20  C   UNL     1      -4.522   4.396   4.530  0.00  0.00    +0.164 C 
BRANCH  20  21
ATOM     21  N   UNL     1      -5.573   5.391   4.298  0.00  0.00    -0.178 NA
ATOM     22  H   UNL     1      -6.478   5.103   4.104  0.00  0.00    +0.149 HD
BRANCH  21  23
ATOM     23  S   UNL     1      -5.214   7.006   4.368  0.00  0.00    +0.059 S 
ATOM     24  O   UNL     1      -6.414   7.702   4.059  0.00  0.00    -0.153 OA
ATOM     25  O   UNL     1      -4.505   7.212   5.583  0.00  0.00    -0.153 OA
BRANCH  23  30
ATOM     26  C   UNL     1      -1.340   8.170  -0.109  0.00  0.00    +0.044 C 
ATOM     27  C   UNL     1      -2.308   7.879   1.010  0.00  0.00    -0.050 A 
ATOM     28  C   UNL     1      -3.669   7.981   0.790  0.00  0.00    +0.005 A 
ATOM     29  C   UNL     1      -4.556   7.714   1.816  0.00  0.00    +0.029 A 
ATOM     30  C   UNL     1      -4.083   7.345   3.061  0.00  0.00    +0.105 A 
ATOM     31  C   UNL     1      -2.722   7.249   3.282  0.00  0.00    +0.029 A 
ATOM     32  C   UNL     1      -1.834   7.511   2.255  0.00  0.00    +0.005 A 
ENDBRANCH  23  30
ENDBRANCH  21  23
ENDBRANCH  20  21
BRANCH  20  33
ATOM     33  C   UNL     1      -5.105   3.207   5.295  0.00  0.00    +0.033 C 
BRANCH  33  34
ATOM     34  C   UNL     1      -5.558   3.666   6.683  0.00  0.00    -0.015 C 
ATOM     35  C   UNL     1      -6.274   2.515   7.393  0.00  0.00    +0.007 C 
ATOM     36  C   UNL     1      -4.338   4.090   7.503  0.00  0.00    +0.007 C 
ENDBRANCH  33  34
ENDBRANCH  20  33
ENDBRANCH   1  20
TORSDOF 9
