REMARK  Name = ZINC49931993
REMARK  7 active torsions:
REMARK  status: ('A' for Active; 'I' for Inactive)
REMARK    1  A    between atoms: C_1  and  C_2
REMARK    2  A    between atoms: C_2  and  C_4
REMARK    3  A    between atoms: C_2  and  N_11
REMARK    4  A    between atoms: C_12  and  C_14
REMARK    5  A    between atoms: C_16  and  O_21
REMARK    6  A    between atoms: C_19  and  O_20
REMARK    7  A    between atoms: O_21  and  C_22
REMARK                            x       y       z     vdW  Elec       q    Type
REMARK                         _______ _______ _______ _____ _____    ______ ____
ROOT
ATOM      1  N   UNL     1      -1.372  -0.511   0.012  0.00  0.00    -0.305 N 
ATOM      2  C   UNL     1      -2.051  -0.643  -1.145  0.00  0.00    +0.248 C 
ATOM      3  O   UNL     1      -1.522  -0.341  -2.197  0.00  0.00    -0.270 OA
ATOM      4  H   UNL     1      -1.794  -0.752   0.852  0.00  0.00    +0.150 HD
ENDROOT
BRANCH   2   5
ATOM      5  C   UNL     1      -3.435  -1.153  -1.134  0.00  0.00    +0.081 A 
ATOM      6  C   UNL     1      -4.048  -1.496   0.074  0.00  0.00    +0.062 A 
ATOM      7  C   UNL     1      -5.345  -1.974   0.076  0.00  0.00    +0.121 A 
ATOM      8  C   UNL     1      -6.040  -2.114  -1.119  0.00  0.00    +0.049 A 
ATOM      9  C   UNL     1      -5.442  -1.777  -2.317  0.00  0.00    +0.050 A 
ATOM     10  C   UNL     1      -4.144  -1.292  -2.335  0.00  0.00    +0.129 A 
BRANCH  10  11
ATOM     11  O   UNL     1      -3.558  -0.956  -3.513  0.00  0.00    -0.506 OA
ATOM     12  H   UNL     1      -3.085  -1.685  -3.938  0.00  0.00    +0.292 HD
ENDBRANCH  10  11
BRANCH   7  13
ATOM     13  O   UNL     1      -5.943  -2.308   1.251  0.00  0.00    -0.495 OA
ATOM     14  C   UNL     1      -7.284  -2.794   1.181  0.00  0.00    +0.277 C 
ENDBRANCH   7  13
ENDBRANCH   2   5
BRANCH   1  16
ATOM     15  C   UNL     1      -0.019   1.526   0.010  0.00  0.00    +0.033 C 
ATOM     16  C   UNL     1       0.002  -0.004   0.002  0.00  0.00    +0.100 C 
BRANCH  16  17
ATOM     17  C   UNL     1       0.731  -0.503   1.223  0.00  0.00    -0.027 A 
ATOM     18  C   UNL     1       0.081  -0.558   2.442  0.00  0.00    +0.006 A 
ATOM     19  C   UNL     1       0.749  -1.017   3.562  0.00  0.00    +0.015 A 
ATOM     20  C   UNL     1       2.068  -1.420   3.463  0.00  0.00    +0.018 A 
ATOM     21  C   UNL     1       2.718  -1.365   2.243  0.00  0.00    +0.015 A 
ATOM     22  C   UNL     1       2.048  -0.911   1.123  0.00  0.00    +0.006 A 
ATOM     23 BR   UNL     1       2.983  -2.046   4.995  0.00  0.00    -0.050 Br
ENDBRANCH  16  17
ENDBRANCH   1  16
TORSDOF 5
