REMARK  Name = ZINC35380552
REMARK  7 active torsions:
REMARK  status: ('A' for Active; 'I' for Inactive)
REMARK    1  A    between atoms: C_1  and  C_2
REMARK    2  A    between atoms: C_8  and  N_10
REMARK    3  A    between atoms: C_11  and  C_13
REMARK    4  A    between atoms: C_13  and  O_14
REMARK    5  A    between atoms: O_14  and  C_15
REMARK    6  A    between atoms: C_15  and  C_17
REMARK    7  A    between atoms: C_19  and  N_25
REMARK                            x       y       z     vdW  Elec       q    Type
REMARK                         _______ _______ _______ _____ _____    ______ ____
ROOT
ATOM      1  C   UNL     1       0.486   1.052   7.117  0.00  0.00    +0.360 C 
ATOM      2  O   UNL     1      -0.683   1.361   7.230  0.00  0.00    -0.243 OA
ENDROOT
BRANCH   1   3
ATOM      3  C   UNL     1       1.389   1.133   8.286  0.00  0.00    +0.169 A 
ATOM      4  C   UNL     1       0.891   1.561   9.514  0.00  0.00    +0.095 A 
ATOM      5  C   UNL     1       1.756   1.632  10.606  0.00  0.00    +0.067 A 
ATOM      6  C   UNL     1       3.089   1.270  10.420  0.00  0.00    +0.100 A 
ATOM      7  C   UNL     1       3.509   0.855   9.166  0.00  0.00    +0.150 A 
ATOM      8  N   UNL     1       2.668   0.793   8.155  0.00  0.00    -0.226 NA
ATOM      9 CL   UNL     1       5.168   0.403   8.927  0.00  0.00    -0.060 Cl
ATOM     10 CL   UNL     1       4.210   1.340  11.743  0.00  0.00    -0.078 Cl
ATOM     11 CL   UNL     1      -0.781   1.998   9.682  0.00  0.00    -0.079 Cl
BRANCH   5  12
ATOM     12  N   UNL     1       1.298   2.055  11.853  0.00  0.00    -0.356 N 
ATOM     13  H   UNL     1       0.368   2.304  11.969  0.00  0.00    +0.142 HD
ATOM     14  H   UNL     1       1.910   2.100  12.604  0.00  0.00    +0.142 HD
ENDBRANCH   5  12
ENDBRANCH   1   3
BRANCH   1  15
ATOM     15  O   UNL     1       0.961   0.634   5.927  0.00  0.00    -0.451 OA
BRANCH  15  16
ATOM     16  C   UNL     1       0.033   0.579   4.842  0.00  0.00    +0.328 C 
BRANCH  16  18
ATOM     17  N   UNL     1       0.056  -0.038   2.447  0.00  0.00    -0.309 N 
ATOM     18  C   UNL     1       0.738   0.093   3.602  0.00  0.00    +0.251 C 
ATOM     19  O   UNL     1       1.919  -0.179   3.644  0.00  0.00    -0.272 OA
ATOM     20  H   UNL     1      -0.888   0.180   2.413  0.00  0.00    +0.149 HD
BRANCH  17  27
ATOM     21  C   UNL     1      -0.019   1.526   0.010  0.00  0.00    +0.009 C 
ATOM     22  C   UNL     1       0.002  -0.004   0.002  0.00  0.00    +0.006 C 
ATOM     23  C   UNL     1       0.718  -0.497  -1.257  0.00  0.00    +0.005 C 
ATOM     24  C   UNL     1       0.739  -2.027  -1.265  0.00  0.00    +0.000 C 
ATOM     25  C   UNL     1       1.479  -2.534  -0.026  0.00  0.00    +0.002 C 
ATOM     26  C   UNL     1       0.763  -2.041   1.233  0.00  0.00    +0.022 C 
ATOM     27  C   UNL     1       0.742  -0.511   1.242  0.00  0.00    +0.076 C 
ENDBRANCH  17  27
ENDBRANCH  16  18
ENDBRANCH  15  16
ENDBRANCH   1  15
TORSDOF 6
