REMARK  Name = ZINC28629397
REMARK  8 active torsions:
REMARK  status: ('A' for Active; 'I' for Inactive)
REMARK    1  A    between atoms: C_1  and  C_2
REMARK    2  A    between atoms: C_2  and  C_3
REMARK    3  A    between atoms: C_2  and  C_4
REMARK    4  A    between atoms: C_7  and  C_10
REMARK    5  A    between atoms: C_12  and  C_27
REMARK    6  A    between atoms: C_14  and  C_19
REMARK    7  A    between atoms: C_14  and  O_26
REMARK    8  A    between atoms: C_27  and  C_29
REMARK                            x       y       z     vdW  Elec       q    Type
REMARK                         _______ _______ _______ _____ _____    ______ ____
ROOT
ATOM      1  C   UNL     1      -1.986  -0.412  -1.490  0.00  0.00    +0.120 C 
ATOM      2  C   UNL     1      -2.804   0.879  -1.597  0.00  0.00    +0.144 C 
ATOM      3  C   UNL     1      -2.403   1.808  -0.447  0.00  0.00    +0.172 C 
ATOM      4  N   UNL     1      -2.578   1.103   0.824  0.00  0.00    -0.267 N 
ATOM      5  C   UNL     1      -2.457  -0.230   0.904  0.00  0.00    +0.302 C 
ATOM      6  O   UNL     1      -2.602  -0.765   1.986  0.00  0.00    -0.253 OA
ATOM      7  N   UNL     1      -2.184  -0.997  -0.162  0.00  0.00    -0.292 N 
ATOM      8  H   UNL     1      -2.813   1.668   1.738  0.00  0.00    +0.153 HD
ATOM      9  H   UNL     1      -2.109  -2.085  -0.024  0.00  0.00    +0.151 HD
ENDROOT
BRANCH   3  10
ATOM     10  C   UNL     1      -0.960   2.211  -0.605  0.00  0.00    +0.003 A 
ATOM     11  C   UNL     1       0.038   1.444  -0.034  0.00  0.00    +0.009 A 
ATOM     12  C   UNL     1       1.363   1.810  -0.184  0.00  0.00    +0.020 A 
ATOM     13  C   UNL     1       1.689   2.947  -0.901  0.00  0.00    +0.041 A 
ATOM     14  C   UNL     1       0.689   3.718  -1.468  0.00  0.00    +0.020 A 
ATOM     15  C   UNL     1      -0.635   3.351  -1.317  0.00  0.00    +0.009 A 
ATOM     16 CL   UNL     1       3.352   3.407  -1.090  0.00  0.00    -0.084 Cl
ENDBRANCH   3  10
BRANCH   1  20
ATOM     17  C   UNL     1      -3.283  -3.178  -4.475  0.00  0.00    -0.045 A 
ATOM     18  C   UNL     1      -2.320  -2.235  -4.779  0.00  0.00    +0.004 A 
ATOM     19  C   UNL     1      -1.899  -1.340  -3.813  0.00  0.00    +0.006 A 
ATOM     20  C   UNL     1      -2.444  -1.388  -2.543  0.00  0.00    -0.026 A 
ATOM     21  C   UNL     1      -3.404  -2.334  -2.238  0.00  0.00    +0.006 A 
ATOM     22  C   UNL     1      -3.826  -3.227  -3.205  0.00  0.00    +0.004 A 
BRANCH  17  24
ATOM     23  C   UNL     1      -3.456  -5.582  -5.058  0.00  0.00    +0.012 C 
ATOM     24  C   UNL     1      -3.740  -4.154  -5.528  0.00  0.00    +0.013 C 
ATOM     25  C   UNL     1      -5.243  -3.985  -5.763  0.00  0.00    +0.012 C 
ENDBRANCH  17  24
ENDBRANCH   1  20
BRANCH   3  26
ATOM     26  O   UNL     1      -3.229   2.974  -0.464  0.00  0.00    -0.367 OA
ATOM     27  H   UNL     1      -3.087   3.760   0.293  0.00  0.00    +0.212 HD
ENDBRANCH   3  26
BRANCH   2  28
ATOM     28  C   UNL     1      -4.273   0.556  -1.498  0.00  0.00    +0.245 C 
ATOM     29  O   UNL     1      -4.649  -0.325  -0.763  0.00  0.00    -0.287 OA
BRANCH  28  30
ATOM     30  C   UNL     1      -5.272   1.332  -2.317  0.00  0.00    +0.451 C 
ATOM     31  F   UNL     1      -6.560   0.846  -2.066  0.00  0.00    -0.163 F 
ATOM     32  F   UNL     1      -5.209   2.685  -1.970  0.00  0.00    -0.163 F 
ATOM     33  F   UNL     1      -4.976   1.184  -3.677  0.00  0.00    -0.163 F 
ENDBRANCH  28  30
ENDBRANCH   2  28
TORSDOF 6
