REMARK  Name = ZINC09280149
REMARK  8 active torsions:
REMARK  status: ('A' for Active; 'I' for Inactive)
REMARK    1  A    between atoms: C_4  and  C_7
REMARK    2  A    between atoms: C_7  and  O_8
REMARK    3  A    between atoms: O_8  and  C_9
REMARK    4  A    between atoms: C_18  and  C_30
REMARK    5  A    between atoms: C_20  and  C_26
REMARK    6  A    between atoms: C_20  and  C_28
REMARK    7  A    between atoms: C_21  and  N_25
REMARK    8  A    between atoms: C_22  and  C_23
REMARK                            x       y       z     vdW  Elec       q    Type
REMARK                         _______ _______ _______ _____ _____    ______ ____
ROOT
ATOM      1  C   UNL     1      -1.827   5.993  -3.420  0.00  0.00    +0.403 C 
ATOM      2  O   UNL     1      -0.670   5.789  -3.108  0.00  0.00    -0.226 OA
ATOM      3  N   UNL     1      -2.771   5.071  -3.146  0.00  0.00    -0.263 N 
ATOM      4  C   UNL     1      -4.183   5.285  -3.511  0.00  0.00    +0.138 C 
ATOM      5  C   UNL     1      -4.995   5.143  -2.249  0.00  0.00    -0.003 C 
ATOM      6  C   UNL     1      -4.576   4.399  -1.245  0.00  0.00    -0.026 C 
ATOM      7  C   UNL     1      -3.310   3.595  -1.256  0.00  0.00    +0.048 C 
ATOM      8  C   UNL     1      -2.437   3.812  -2.471  0.00  0.00    +0.120 C 
ATOM      9  C   UNL     1      -2.554   3.870   0.045  0.00  0.00    +0.071 C 
ATOM     10  C   UNL     1      -3.400   3.383   1.222  0.00  0.00    +0.188 C 
ATOM     11  C   UNL     1      -4.800   3.912   1.152  0.00  0.00    +0.054 C 
ATOM     12  C   UNL     1      -5.370   4.378   0.013  0.00  0.00    +0.074 C 
ENDROOT
BRANCH   9  13
ATOM     13  C   UNL     1      -1.239   3.134   0.030  0.00  0.00    -0.004 A 
ATOM     14  C   UNL     1      -1.179   1.835  -0.440  0.00  0.00    +0.046 A 
ATOM     15  C   UNL     1       0.028   1.157  -0.449  0.00  0.00    +0.020 A 
ATOM     16  C   UNL     1       1.175   1.783   0.001  0.00  0.00    +0.003 A 
ATOM     17  C   UNL     1       1.117   3.084   0.465  0.00  0.00    +0.020 A 
ATOM     18  C   UNL     1      -0.090   3.760   0.480  0.00  0.00    +0.046 A 
ATOM     19 CL   UNL     1      -0.163   5.394   1.063  0.00  0.00    -0.083 Cl
ATOM     20 CL   UNL     1      -2.619   1.051  -1.011  0.00  0.00    -0.083 Cl
ENDBRANCH   9  13
BRANCH  11  21
ATOM     21  N   UNL     1      -5.544   3.925   2.299  0.00  0.00    -0.358 N 
ATOM     22  H   UNL     1      -6.575   4.306   2.281  0.00  0.00    +0.142 HD
ATOM     23  H   UNL     1      -5.111   3.553   3.240  0.00  0.00    +0.142 HD
ENDBRANCH  11  21
BRANCH  12  24
ATOM     24  C   UNL     1      -6.724   4.846   0.021  0.00  0.00    +0.101 C 
ATOM     25  N   UNL     1      -7.798   5.217   0.028  0.00  0.00    -0.191 NA
ENDBRANCH  12  24
BRANCH  10  26
ATOM     26  C   UNL     1      -3.440   1.912   1.208  0.00  0.00    +0.091 C 
ATOM     27  N   UNL     1      -3.472   0.776   1.197  0.00  0.00    -0.194 NA
ENDBRANCH  10  26
BRANCH  10  28
ATOM     28  C   UNL     1      -2.778   3.833   2.479  0.00  0.00    +0.091 C 
ATOM     29  N   UNL     1      -2.299   4.180   3.449  0.00  0.00    -0.194 NA
ENDBRANCH  10  28
BRANCH   1  30
ATOM     30  O   UNL     1      -2.165   7.139  -4.041  0.00  0.00    -0.445 OA
BRANCH  30  31
ATOM     31  C   UNL     1      -1.096   8.085  -4.305  0.00  0.00    +0.269 C 
BRANCH  31  35
ATOM     32  C   UNL     1      -2.693  11.523  -6.274  0.00  0.00    +0.000 A 
ATOM     33  C   UNL     1      -2.631  11.484  -4.894  0.00  0.00    +0.000 A 
ATOM     34  C   UNL     1      -2.114  10.372  -4.257  0.00  0.00    +0.007 A 
ATOM     35  C   UNL     1      -1.660   9.298  -5.000  0.00  0.00    -0.010 A 
ATOM     36  C   UNL     1      -1.717   9.339  -6.380  0.00  0.00    +0.007 A 
ATOM     37  C   UNL     1      -2.238  10.450  -7.017  0.00  0.00    +0.000 A 
ENDBRANCH  31  35
ENDBRANCH  30  31
ENDBRANCH   1  30
TORSDOF 8
