REMARK  Name = ZINC58995908
REMARK  11 active torsions:
REMARK  status: ('A' for Active; 'I' for Inactive)
REMARK    1  A    between atoms: C_1  and  C_2
REMARK    2  A    between atoms: C_2  and  C_3
REMARK    3  A    between atoms: C_2  and  N_13
REMARK    4  A    between atoms: C_6  and  C_9
REMARK    5  A    between atoms: C_9  and  C_10
REMARK    6  A    between atoms: C_9  and  C_11
REMARK    7  A    between atoms: C_9  and  C_12
REMARK    8  A    between atoms: C_14  and  C_16
REMARK    9  A    between atoms: C_17  and  C_18
REMARK   10  A    between atoms: C_21  and  S_24
REMARK   11  A    between atoms: S_24  and  N_27
REMARK                            x       y       z     vdW  Elec       q    Type
REMARK                         _______ _______ _______ _____ _____    ______ ____
ROOT
ATOM      1  N   UNL     1       0.688  -0.476  -1.203  0.00  0.00    -0.305 N 
ATOM      2  C   UNL     1       2.031  -0.587  -1.215  0.00  0.00    +0.237 C 
ATOM      3  O   UNL     1       2.674  -0.294  -0.224  0.00  0.00    -0.271 OA
ATOM      4  H   UNL     1       0.175  -0.710  -1.993  0.00  0.00    +0.150 HD
ENDROOT
BRANCH   1   6
ATOM      5  C   UNL     1      -0.019   1.526   0.010  0.00  0.00    +0.033 C 
ATOM      6  C   UNL     1       0.002  -0.004   0.002  0.00  0.00    +0.100 C 
BRANCH   6   7
ATOM      7  C   UNL     1      -1.412  -0.526   0.013  0.00  0.00    -0.027 A 
ATOM      8  C   UNL     1      -2.141  -0.569  -1.161  0.00  0.00    +0.006 A 
ATOM      9  C   UNL     1      -3.438  -1.047  -1.151  0.00  0.00    +0.004 A 
ATOM     10  C   UNL     1      -4.005  -1.483   0.032  0.00  0.00    -0.042 A 
ATOM     11  C   UNL     1      -3.275  -1.441   1.205  0.00  0.00    +0.004 A 
ATOM     12  C   UNL     1      -1.977  -0.966   1.195  0.00  0.00    +0.006 A 
BRANCH  10  13
ATOM     13  C   UNL     1      -5.419  -2.004   0.043  0.00  0.00    -0.013 C 
ATOM     14  C   UNL     1      -5.524  -3.216  -0.885  0.00  0.00    +0.015 C 
ATOM     15  C   UNL     1      -5.800  -2.417   1.466  0.00  0.00    +0.015 C 
ATOM     16  C   UNL     1      -6.370  -0.907  -0.441  0.00  0.00    +0.015 C 
ENDBRANCH  10  13
ENDBRANCH   6   7
ENDBRANCH   1   6
BRANCH   2  17
ATOM     17  C   UNL     1       2.716  -1.059  -2.420  0.00  0.00    +0.068 C 
ATOM     18  C   UNL     1       4.060  -1.170  -2.431  0.00  0.00    +0.013 C 
BRANCH  18  19
ATOM     19  C   UNL     1       4.749  -1.644  -3.642  0.00  0.00    -0.025 A 
ATOM     20  C   UNL     1       4.014  -1.976  -4.785  0.00  0.00    +0.010 A 
ATOM     21  C   UNL     1       4.666  -2.420  -5.915  0.00  0.00    +0.029 A 
ATOM     22  C   UNL     1       6.045  -2.538  -5.921  0.00  0.00    +0.105 A 
ATOM     23  C   UNL     1       6.780  -2.211  -4.795  0.00  0.00    +0.029 A 
ATOM     24  C   UNL     1       6.142  -1.760  -3.658  0.00  0.00    +0.010 A 
BRANCH  22  25
ATOM     25  S   UNL     1       6.870  -3.107  -7.371  0.00  0.00    +0.056 S 
ATOM     26  O   UNL     1       8.113  -3.648  -6.945  0.00  0.00    -0.153 OA
ATOM     27  O   UNL     1       5.921  -3.865  -8.107  0.00  0.00    -0.153 OA
BRANCH  25  28
ATOM     28  N   UNL     1       7.224  -1.774  -8.288  0.00  0.00    -0.204 NA
ATOM     29  H   UNL     1       8.006  -1.774  -8.862  0.00  0.00    +0.144 HD
ATOM     30  H   UNL     1       6.650  -0.993  -8.251  0.00  0.00    +0.144 HD
ENDBRANCH  25  28
ENDBRANCH  22  25
ENDBRANCH  18  19
ENDBRANCH   2  17
TORSDOF 7
