REMARK  Name = ZINC55549147
REMARK  5 active torsions:
REMARK  status: ('A' for Active; 'I' for Inactive)
REMARK    1  A    between atoms: C_4  and  C_7
REMARK    2  A    between atoms: N_9  and  N_10
REMARK    3  A    between atoms: N_10  and  S_11
REMARK    4  A    between atoms: S_11  and  C_14
REMARK    5  A    between atoms: C_16  and  C_24
REMARK                            x       y       z     vdW  Elec       q    Type
REMARK                         _______ _______ _______ _____ _____    ______ ____
ROOT
ATOM      1  S   UNL     1       5.414  -4.024   1.009  0.00  0.00    +0.074 S 
ATOM      2  O   UNL     1       4.970  -3.032   0.094  0.00  0.00    -0.152 OA
ATOM      3  O   UNL     1       6.683  -4.652   0.896  0.00  0.00    -0.152 OA
ENDROOT
BRANCH   1   4
ATOM      4  C   UNL     1       4.211  -5.311   0.978  0.00  0.00    +0.111 A 
ATOM      5  C   UNL     1       4.613  -6.614   0.790  0.00  0.00    +0.044 A 
ATOM      6  C   UNL     1       3.659  -7.634   0.764  0.00  0.00    +0.065 A 
ATOM      7  C   UNL     1       2.311  -7.316   0.926  0.00  0.00    +0.019 A 
ATOM      8  C   UNL     1       1.918  -6.000   1.113  0.00  0.00    -0.042 A 
ATOM      9  C   UNL     1       2.866  -5.000   1.148  0.00  0.00    -0.018 A 
ATOM     10  C   UNL     1       2.508  -3.553   1.369  0.00  0.00    +0.037 C 
ATOM     11  C   UNL     1       1.021  -3.321   1.107  0.00  0.00    +0.005 C 
ATOM     12  C   UNL     1       0.221  -4.354   1.910  0.00  0.00    +0.005 C 
ATOM     13  C   UNL     1       0.445  -5.728   1.273  0.00  0.00    +0.035 C 
BRANCH   6  14
ATOM     14  C   UNL     1       4.074  -9.036   0.567  0.00  0.00    +0.387 C 
ATOM     15  O   UNL     1       5.258  -9.309   0.425  0.00  0.00    -0.241 OA
ATOM     16  O   UNL     1       3.235  -9.925   0.545  0.00  0.00    -0.241 OA
ENDBRANCH   6  14
ENDBRANCH   1   4
BRANCH   1  17
ATOM     17  N   UNL     1       5.358  -3.338   2.515  0.00  0.00    -0.108 NA
ATOM     18  H   UNL     1       5.215  -2.384   2.608  0.00  0.00    +0.172 HD
BRANCH  17  21
ATOM     19  C   UNL     1       6.484  -3.853   4.548  0.00  0.00    +0.259 C 
ATOM     20  O   UNL     1       7.161  -2.853   4.413  0.00  0.00    -0.269 OA
ATOM     21  N   UNL     1       5.516  -4.138   3.655  0.00  0.00    -0.228 N 
ATOM     22  H   UNL     1       4.928  -4.895   3.802  0.00  0.00    +0.171 HD
BRANCH  19  26
ATOM     23  C   UNL     1       7.171  -6.454   7.836  0.00  0.00    +0.000 A 
ATOM     24  C   UNL     1       8.013  -5.377   7.622  0.00  0.00    +0.001 A 
ATOM     25  C   UNL     1       7.796  -4.528   6.556  0.00  0.00    +0.013 A 
ATOM     26  C   UNL     1       6.724  -4.759   5.692  0.00  0.00    +0.038 A 
ATOM     27  C   UNL     1       5.878  -5.847   5.914  0.00  0.00    +0.013 A 
ATOM     28  C   UNL     1       6.107  -6.687   6.984  0.00  0.00    +0.001 A 
ENDBRANCH  19  26
ENDBRANCH  17  21
ENDBRANCH   1  17
TORSDOF 5
