REMARK  Name = ZINC21248230
REMARK  13 active torsions:
REMARK  status: ('A' for Active; 'I' for Inactive)
REMARK    1  A    between atoms: C_1  and  C_2
REMARK    2  A    between atoms: C_2  and  C_3
REMARK    3  A    between atoms: C_3  and  C_5
REMARK    4  A    between atoms: C_3  and  O_6
REMARK    5  A    between atoms: O_6  and  C_7
REMARK    6  A    between atoms: C_12  and  C_13
REMARK    7  A    between atoms: C_18  and  C_23
REMARK    8  A    between atoms: C_26  and  O_31
REMARK    9  A    between atoms: C_27  and  O_29
REMARK   10  A    between atoms: O_29  and  C_30
REMARK   11  A    between atoms: O_31  and  C_32
REMARK   12  A    between atoms: C_32  and  C_33
REMARK   13  A    between atoms: C_32  and  C_34
REMARK                            x       y       z     vdW  Elec       q    Type
REMARK                         _______ _______ _______ _____ _____    ______ ____
ROOT
ATOM      1  C   UNL     1      10.926   9.472  -1.988  0.00  0.00    +0.139 C 
ATOM      2  C   UNL     1      10.070   8.345  -1.463  0.00  0.00    +0.037 C 
ATOM      3  C   UNL     1       9.998   7.941  -0.183  0.00  0.00    +0.017 C 
ATOM      4  C   UNL     1       9.093   6.784   0.209  0.00  0.00    +0.059 C 
ATOM      5  C   UNL     1       7.859   6.759  -0.691  0.00  0.00    +0.032 C 
ATOM      6  C   UNL     1       8.340   6.592  -2.137  0.00  0.00    +0.088 C 
ATOM      7  C   UNL     1       9.290   7.707  -2.456  0.00  0.00    +0.163 C 
ATOM      8  O   UNL     1       9.394   8.077  -3.609  0.00  0.00    -0.292 OA
ATOM      9  N   UNL     1      10.700   8.487   0.842  0.00  0.00    -0.316 N 
ATOM     10  C   UNL     1      10.830   9.851   1.079  0.00  0.00    +0.052 A 
ATOM     11  C   UNL     1      10.312  10.459   2.209  0.00  0.00    +0.025 A 
ATOM     12  C   UNL     1      10.520  11.814   2.405  0.00  0.00    +0.002 A 
ATOM     13  C   UNL     1      11.240  12.551   1.483  0.00  0.00    +0.002 A 
ATOM     14  C   UNL     1      11.743  11.947   0.344  0.00  0.00    +0.025 A 
ATOM     15  C   UNL     1      11.519  10.596   0.134  0.00  0.00    +0.049 A 
ATOM     16  N   UNL     1      11.908   9.970  -1.049  0.00  0.00    -0.331 N 
ATOM     17  H   UNL     1      11.220   7.837   1.561  0.00  0.00    +0.152 HD
ATOM     18  H   UNL     1      12.981   9.857  -1.264  0.00  0.00    +0.147 HD
ENDROOT
BRANCH   1  24
ATOM     19  C   UNL     1      10.455  11.561  -3.293  0.00  0.00    +0.126 A 
ATOM     20  C   UNL     1       9.619  12.608  -3.653  0.00  0.00    +0.046 A 
ATOM     21  C   UNL     1       8.356  12.703  -3.101  0.00  0.00    +0.004 A 
ATOM     22  C   UNL     1       7.925  11.755  -2.192  0.00  0.00    +0.001 A 
ATOM     23  C   UNL     1       8.754  10.707  -1.835  0.00  0.00    +0.009 A 
ATOM     24  C   UNL     1      10.020  10.611  -2.381  0.00  0.00    +0.019 A 
BRANCH  19  25
ATOM     25  O   UNL     1      11.698  11.466  -3.834  0.00  0.00    -0.489 OA
BRANCH  25  26
ATOM     26  C   UNL     1      12.086  12.488  -4.754  0.00  0.00    +0.170 C 
ATOM     27  C   UNL     1      11.555  12.148  -6.148  0.00  0.00    +0.052 C 
BRANCH  26  29
ATOM     28  C   UNL     1      14.134  13.045  -3.437  0.00  0.00    +0.007 C 
ATOM     29  C   UNL     1      13.612  12.583  -4.798  0.00  0.00    +0.041 C 
ENDBRANCH  26  29
ENDBRANCH  25  26
ENDBRANCH  19  25
ENDBRANCH   1  24
BRANCH   5  30
ATOM     30  C   UNL     1       6.973   5.601  -0.310  0.00  0.00    -0.040 A 
ATOM     31  C   UNL     1       7.459   4.309  -0.380  0.00  0.00    +0.008 A 
ATOM     32  C   UNL     1       6.650   3.243  -0.033  0.00  0.00    +0.050 A 
ATOM     33  C   UNL     1       5.349   3.469   0.387  0.00  0.00    +0.162 A 
ATOM     34  C   UNL     1       4.858   4.770   0.452  0.00  0.00    +0.162 A 
ATOM     35  C   UNL     1       5.676   5.834   0.108  0.00  0.00    +0.053 A 
BRANCH  34  36
ATOM     36  O   UNL     1       3.580   4.996   0.858  0.00  0.00    -0.491 OA
ATOM     37  C   UNL     1       3.144   6.356   0.901  0.00  0.00    +0.277 C 
ENDBRANCH  34  36
BRANCH  33  38
ATOM     38  O   UNL     1       4.551   2.422   0.729  0.00  0.00    -0.486 OA
BRANCH  38  39
ATOM     39  C   UNL     1       5.153   1.126   0.744  0.00  0.00    +0.167 C 
ATOM     40  C   UNL     1       4.360   0.205   1.673  0.00  0.00    +0.051 C 
ATOM     41  C   UNL     1       5.150   0.546  -0.672  0.00  0.00    +0.051 C 
ENDBRANCH  38  39
ENDBRANCH  33  38
ENDBRANCH   5  30
TORSDOF 8
