REMARK  Name = ZINC40371517
REMARK  5 active torsions:
REMARK  status: ('A' for Active; 'I' for Inactive)
REMARK    1  A    between atoms: C_1  and  C_2
REMARK    2  A    between atoms: C_5  and  C_7
REMARK    3  A    between atoms: N_9  and  C_10
REMARK    4  A    between atoms: C_10  and  C_18
REMARK    5  A    between atoms: N_19  and  O_20
REMARK                            x       y       z     vdW  Elec       q    Type
REMARK                         _______ _______ _______ _____ _____    ______ ____
ROOT
ATOM      1  C   UNL     1       2.515   0.357   4.400  0.00  0.00    +0.093 C 
ATOM      2  C   UNL     1       1.597   1.366   5.041  0.00  0.00    +0.033 C 
ATOM      3  C   UNL     1       0.469   0.883   5.933  0.00  0.00    +0.002 C 
ATOM      4  C   UNL     1      -0.405  -0.183   5.269  0.00  0.00    +0.000 C 
ATOM      5  C   UNL     1      -0.184  -1.522   5.996  0.00  0.00    +0.000 C 
ATOM      6  C   UNL     1       1.167  -2.120   5.604  0.00  0.00    +0.000 C 
ATOM      7  C   UNL     1       2.279  -1.349   6.312  0.00  0.00    +0.002 C 
ATOM      8  C   UNL     1       3.185  -0.618   5.346  0.00  0.00    +0.033 C 
ENDROOT
BRANCH   1   9
ATOM      9  C   UNL     1       3.657   1.169   3.764  0.00  0.00    +0.155 C 
ATOM     10  N   UNL     1       4.881   0.938   4.106  0.00  0.00    -0.075 NA
ATOM     11  N   UNL     1       3.374   2.141   2.831  0.00  0.00    -0.342 N 
ATOM     12  H   UNL     1       2.464   2.264   2.519  0.00  0.00    +0.144 HD
ATOM     13  H   UNL     1       4.086   2.703   2.485  0.00  0.00    +0.144 HD
BRANCH  10  14
ATOM     14  O   UNL     1       5.933   1.685   3.521  0.00  0.00    -0.408 OA
ATOM     15  H   UNL     1       6.813   1.441   3.839  0.00  0.00    +0.328 HD
ENDBRANCH  10  14
ENDBRANCH   1   9
BRANCH   1  18
ATOM     16  C   UNL     1       2.595  -1.176   2.507  0.00  0.00    +0.217 C 
ATOM     17  O   UNL     1       3.787  -1.297   2.691  0.00  0.00    -0.275 OA
ATOM     18  N   UNL     1       1.877  -0.332   3.275  0.00  0.00    -0.303 N 
ATOM     19  H   UNL     1       0.939  -0.180   3.082  0.00  0.00    +0.150 HD
BRANCH  16  23
ATOM     20  C   UNL     1       4.276  -2.973   0.914  0.00  0.00    +0.008 C 
ATOM     21  C   UNL     1       2.784  -2.910   0.585  0.00  0.00    -0.002 C 
ATOM     22  C   UNL     1       2.250  -1.615  -0.029  0.00  0.00    +0.017 C 
ATOM     23  C   UNL     1       1.915  -1.970   1.422  0.00  0.00    +0.078 C 
ENDBRANCH  16  23
ENDBRANCH   1  18
TORSDOF 4
