REMARK  Name = ZINC05348285
REMARK  8 active torsions:
REMARK  status: ('A' for Active; 'I' for Inactive)
REMARK    1  A    between atoms: C_1  and  C_2
REMARK    2  A    between atoms: C_4  and  O_26
REMARK    3  A    between atoms: C_6  and  C_25
REMARK    4  A    between atoms: C_7  and  C_13
REMARK    5  A    between atoms: C_13  and  C_14
REMARK    6  A    between atoms: N_16  and  C_17
REMARK    7  A    between atoms: C_17  and  C_18
REMARK    8  A    between atoms: C_18  and  C_19
REMARK                            x       y       z     vdW  Elec       q    Type
REMARK                         _______ _______ _______ _____ _____    ______ ____
ROOT
ATOM      1  C   UNL     1      -6.570  -3.964  -0.853  0.00  0.00    +0.044 C 
ATOM      2  C   UNL     1      -5.627  -2.791  -0.937  0.00  0.00    -0.043 A 
ATOM      3  C   UNL     1      -5.155  -2.379  -2.173  0.00  0.00    +0.049 A 
ATOM      4  C   UNL     1      -4.290  -1.304  -2.266  0.00  0.00    +0.128 A 
ATOM      5  C   UNL     1      -3.893  -0.634  -1.098  0.00  0.00    +0.062 A 
ATOM      6  C   UNL     1      -2.983   0.510  -1.157  0.00  0.00    -0.026 A 
ATOM      7  C   UNL     1      -2.633   1.112   0.010  0.00  0.00    +0.049 A 
ATOM      8  C   UNL     1      -3.155   0.634   1.230  0.00  0.00    +0.341 A 
ATOM      9  O   UNL     1      -2.837   1.185   2.268  0.00  0.00    -0.245 OA
ATOM     10  O   UNL     1      -3.993  -0.413   1.275  0.00  0.00    -0.422 OA
ATOM     11  C   UNL     1      -4.376  -1.059   0.153  0.00  0.00    +0.143 A 
ATOM     12  C   UNL     1      -5.244  -2.140   0.218  0.00  0.00    +0.050 A 
ATOM     13  C   UNL     1      -2.445   1.005  -2.474  0.00  0.00    +0.045 C 
ENDROOT
BRANCH   4  14
ATOM     14  O   UNL     1      -3.828  -0.901  -3.476  0.00  0.00    -0.506 OA
ATOM     15  H   UNL     1      -4.382  -0.236  -3.907  0.00  0.00    +0.292 HD
ENDBRANCH   4  14
BRANCH   7  16
ATOM     16  C   UNL     1      -1.694   2.291   0.000  0.00  0.00    +0.138 C 
BRANCH  16  17
ATOM     17  C   UNL     1      -0.274   1.803   0.126  0.00  0.00    +0.218 C 
ATOM     18  O   UNL     1      -0.046   0.615   0.215  0.00  0.00    -0.275 OA
ATOM     19  N   UNL     1       0.744   2.687   0.134  0.00  0.00    -0.315 N 
ATOM     20  H   UNL     1       0.562   3.637   0.063  0.00  0.00    +0.149 HD
BRANCH  19  21
ATOM     21  C   UNL     1       2.125   2.212   0.250  0.00  0.00    +0.108 C 
BRANCH  21  22
ATOM     22  C   UNL     1       3.079   3.409   0.235  0.00  0.00    +0.049 C 
BRANCH  22  23
ATOM     23  C   UNL     1       4.500   2.921   0.354  0.00  0.00    -0.072 C 
ATOM     24  C   UNL     1       5.175   2.747  -0.736  0.00  0.00    -0.028 C 
ATOM     25  C   UNL     1       6.593   2.257  -0.778  0.00  0.00    +0.027 C 
ATOM     26  C   UNL     1       7.242   2.405   0.601  0.00  0.00    +0.004 C 
ATOM     27  C   UNL     1       6.300   1.797   1.648  0.00  0.00    +0.005 C 
ATOM     28  C   UNL     1       5.045   2.672   1.730  0.00  0.00    +0.030 C 
ENDBRANCH  22  23
ENDBRANCH  21  22
ENDBRANCH  19  21
ENDBRANCH  16  17
ENDBRANCH   7  16
TORSDOF 6
