REMARK  Name = ZINC63784127
REMARK  9 active torsions:
REMARK  status: ('A' for Active; 'I' for Inactive)
REMARK    1  A    between atoms: C_1  and  C_2
REMARK    2  A    between atoms: C_5  and  C_8
REMARK    3  A    between atoms: C_8  and  N_10
REMARK    4  A    between atoms: C_11  and  N_12
REMARK    5  A    between atoms: N_12  and  C_13
REMARK    6  A    between atoms: C_13  and  C_14
REMARK    7  A    between atoms: C_14  and  C_15
REMARK    8  A    between atoms: C_28  and  C_33
REMARK    9  A    between atoms: C_30  and  C_32
REMARK                            x       y       z     vdW  Elec       q    Type
REMARK                         _______ _______ _______ _____ _____    ______ ____
ROOT
ATOM      1  N   UNL     1      -0.006  -4.947   0.923  0.00  0.00    -0.141 NA
ATOM      2  C   UNL     1       0.072  -6.269   0.899  0.00  0.00    +0.218 C 
ATOM      3  N   UNL     1      -0.028  -6.981   2.062  0.00  0.00    -0.295 N 
ATOM      4  C   UNL     1      -0.329  -6.330   3.251  0.00  0.00    +0.231 A 
ATOM      5  N   UNL     1      -0.627  -5.040   3.224  0.00  0.00    -0.217 NA
ATOM      6  C   UNL     1      -0.917  -4.390   4.338  0.00  0.00    +0.044 A 
ATOM      7  C   UNL     1      -0.907  -5.075   5.543  0.00  0.00    +0.046 A 
ATOM      8  C   UNL     1      -0.591  -6.424   5.535  0.00  0.00    +0.044 A 
ATOM      9  N   UNL     1      -0.315  -7.015   4.384  0.00  0.00    -0.217 NA
ATOM     10  C   UNL     1      -0.567  -7.210   6.821  0.00  0.00    +0.066 C 
ATOM     11  C   UNL     1      -1.255  -2.921   4.299  0.00  0.00    +0.066 C 
ATOM     12  H   UNL     1       0.110  -7.941   2.056  0.00  0.00    +0.172 HD
ENDROOT
BRANCH   1  13
ATOM     13  C   UNL     1      -0.035  -4.257  -0.225  0.00  0.00    +0.270 C 
ATOM     14  O   UNL     1      -0.089  -4.846  -1.289  0.00  0.00    -0.268 OA
BRANCH  13  19
ATOM     15  C   UNL     1       0.097   1.498  -0.126  0.00  0.00    +0.044 C 
ATOM     16  C   UNL     1       0.062  -0.009  -0.152  0.00  0.00    -0.050 A 
ATOM     17  C   UNL     1       0.065  -0.677  -1.363  0.00  0.00    +0.004 A 
ATOM     18  C   UNL     1       0.034  -2.056  -1.393  0.00  0.00    +0.013 A 
ATOM     19  C   UNL     1      -0.001  -2.776  -0.200  0.00  0.00    +0.039 A 
ATOM     20  C   UNL     1      -0.003  -2.097   1.019  0.00  0.00    +0.013 A 
ATOM     21  C   UNL     1       0.033  -0.717   1.036  0.00  0.00    +0.004 A 
ENDBRANCH  13  19
ENDBRANCH   1  13
BRANCH   2  22
ATOM     22  N   UNL     1       0.253  -6.919  -0.286  0.00  0.00    -0.252 NA
BRANCH  22  23
ATOM     23  C   UNL     1       0.452  -8.371  -0.301  0.00  0.00    +0.149 C 
BRANCH  23  24
ATOM     24  C   UNL     1       0.752  -8.829  -1.730  0.00  0.00    +0.056 C 
BRANCH  24  25
ATOM     25  C   UNL     1       0.835 -10.333  -1.768  0.00  0.00    -0.040 C 
ATOM     26  C   UNL     1      -0.157 -11.194  -2.089  0.00  0.00    +0.000 A 
ATOM     27  C   UNL     1      -1.556 -10.996  -2.483  0.00  0.00    +0.030 A 
ATOM     28  C   UNL     1      -2.323 -12.079  -2.748  0.00  0.00    +0.042 A 
ATOM     29  C   UNL     1      -1.815 -13.383  -2.655  0.00  0.00    +0.022 A 
ATOM     30  C   UNL     1      -0.539 -13.645  -2.299  0.00  0.00    +0.027 A 
ATOM     31  C   UNL     1       0.356 -12.581  -1.998  0.00  0.00    +0.043 A 
ATOM     32  N   UNL     1       1.615 -12.576  -1.635  0.00  0.00    -0.380 N 
ATOM     33  C   UNL     1       2.047 -11.185  -1.461  0.00  0.00    +0.144 C 
ATOM     34 CL   UNL     1      -3.980 -11.849  -3.215  0.00  0.00    -0.084 Cl
ATOM     35  H   UNL     1       2.170 -13.361  -1.508  0.00  0.00    +0.160 HD
ENDBRANCH  24  25
ENDBRANCH  23  24
ENDBRANCH  22  23
ENDBRANCH   2  22
TORSDOF 6
