REMARK  Name = ZINC62495946
REMARK  6 active torsions:
REMARK  status: ('A' for Active; 'I' for Inactive)
REMARK    1  A    between atoms: C_4  and  C_7
REMARK    2  A    between atoms: C_7  and  C_8
REMARK    3  A    between atoms: N_12  and  C_21
REMARK    4  A    between atoms: C_16  and  N_20
REMARK    5  A    between atoms: C_21  and  C_22
REMARK    6  A    between atoms: N_24  and  N_25
REMARK                            x       y       z     vdW  Elec       q    Type
REMARK                         _______ _______ _______ _____ _____    ______ ____
ROOT
ATOM      1  C   UNL     1       4.171  -0.963   1.399  0.00  0.00    +0.263 C 
ATOM      2  C   UNL     1       5.544  -1.587   1.382  0.00  0.00    +0.261 C 
ATOM      3  O   UNL     1       6.532  -0.887   1.461  0.00  0.00    -0.271 OA
ATOM      4  N   UNL     1       5.669  -2.927   1.281  0.00  0.00    -0.256 N 
ATOM      5  C   UNL     1       4.516  -3.727   1.319  0.00  0.00    +0.079 A 
ATOM      6  C   UNL     1       4.583  -5.072   0.992  0.00  0.00    +0.029 A 
ATOM      7  C   UNL     1       3.438  -5.846   1.021  0.00  0.00    +0.025 A 
ATOM      8  C   UNL     1       2.222  -5.279   1.378  0.00  0.00    +0.028 A 
ATOM      9  C   UNL     1       2.153  -3.932   1.711  0.00  0.00    +0.070 A 
ATOM     10  C   UNL     1       3.299  -3.158   1.688  0.00  0.00    +0.145 A 
ATOM     11  O   UNL     1       3.250  -1.846   2.043  0.00  0.00    -0.477 OA
ENDROOT
BRANCH   8  12
ATOM     12  N   UNL     1       1.065  -6.064   1.400  0.00  0.00    -0.358 N 
ATOM     13  H   UNL     1       1.112  -7.005   1.167  0.00  0.00    +0.142 HD
ATOM     14  H   UNL     1       0.215  -5.668   1.649  0.00  0.00    +0.142 HD
ENDBRANCH   8  12
BRANCH   1  15
ATOM     15  C   UNL     1       3.711  -0.707  -0.038  0.00  0.00    +0.089 C 
BRANCH  15  19
ATOM     16  C   UNL     1      -0.017   1.378   0.010  0.00  0.00    +0.000 A 
ATOM     17  C   UNL     1       1.171   2.086   0.002  0.00  0.00    +0.000 A 
ATOM     18  C   UNL     1       2.377   1.411  -0.013  0.00  0.00    +0.004 A 
ATOM     19  C   UNL     1       2.396   0.029  -0.020  0.00  0.00    -0.043 A 
ATOM     20  C   UNL     1       1.208  -0.679  -0.012  0.00  0.00    +0.004 A 
ATOM     21  C   UNL     1       0.002  -0.004   0.002  0.00  0.00    +0.000 A 
ENDBRANCH  15  19
ENDBRANCH   1  15
BRANCH   4  22
ATOM     22  C   UNL     1       6.992  -3.539   1.131  0.00  0.00    +0.210 C 
BRANCH  22  23
ATOM     23  C   UNL     1       7.561  -3.845   2.493  0.00  0.00    +0.244 C 
ATOM     24  O   UNL     1       6.924  -3.578   3.490  0.00  0.00    -0.273 OA
ATOM     25  N   UNL     1       8.777  -4.415   2.602  0.00  0.00    -0.252 N 
ATOM     26  H   UNL     1       9.286  -4.628   1.804  0.00  0.00    +0.169 HD
BRANCH  25  27
ATOM     27  N   UNL     1       9.293  -4.693   3.836  0.00  0.00    -0.254 NA
ATOM     28  H   UNL     1       8.665  -5.279   4.366  0.00  0.00    +0.140 HD
ATOM     29  H   UNL     1      10.205  -5.116   3.760  0.00  0.00    +0.140 HD
ENDBRANCH  25  27
ENDBRANCH  22  23
ENDBRANCH   4  22
TORSDOF 6
