REMARK  Name = ZINC08692439
REMARK  4 active torsions:
REMARK  status: ('A' for Active; 'I' for Inactive)
REMARK    1  A    between atoms: C_1  and  C_2
REMARK    2  A    between atoms: C_13  and  C_15
REMARK    3  A    between atoms: C_15  and  S_16
REMARK    4  A    between atoms: S_16  and  C_17
REMARK                            x       y       z     vdW  Elec       q    Type
REMARK                         _______ _______ _______ _____ _____    ______ ____
ROOT
ATOM      1  C   UNL     1      -0.019   1.526   0.010  0.00  0.00    +0.008 C 
ATOM      2  C   UNL     1       0.002  -0.004   0.002  0.00  0.00    -0.009 C 
ATOM      3  C   UNL     1       0.726  -0.501  -1.253  0.00  0.00    +0.008 C 
ATOM      4  C   UNL     1       0.536  -2.011  -1.397  0.00  0.00    +0.037 C 
ATOM      5  C   UNL     1       0.949  -2.688  -0.093  0.00  0.00    -0.023 A 
ATOM      6  C   UNL     1       1.031  -1.976   1.055  0.00  0.00    -0.004 A 
ATOM      7  S   UNL     1       1.536  -3.145   2.292  0.00  0.00    -0.073 S 
ATOM      8  C   UNL     1       1.636  -4.581   1.270  0.00  0.00    +0.116 A 
ATOM      9  C   UNL     1       1.271  -4.101  -0.007  0.00  0.00    +0.075 A 
ATOM     10  C   UNL     1       1.256  -5.054  -1.081  0.00  0.00    +0.260 A 
ATOM     11  N   UNL     1       1.598  -6.321  -0.747  0.00  0.00    -0.310 N 
ATOM     12  C   UNL     1       1.935  -6.688   0.512  0.00  0.00    +0.121 A 
ATOM     13  N   UNL     1       1.960  -5.845   1.522  0.00  0.00    -0.226 NA
ATOM     14  O   UNL     1       0.955  -4.742  -2.220  0.00  0.00    -0.267 OA
ATOM     15  C   UNL     1       0.751  -0.516   1.241  0.00  0.00    +0.046 C 
ATOM     16  H   UNL     1       1.601  -6.997  -1.442  0.00  0.00    +0.170 HD
ENDROOT
BRANCH  12  17
ATOM     17  C   UNL     1       2.299  -8.128   0.769  0.00  0.00    +0.151 C 
BRANCH  17  18
ATOM     18  S   UNL     1       2.705  -8.346   2.523  0.00  0.00    -0.077 S 
BRANCH  18  19
ATOM     19  C   UNL     1       3.102 -10.057   2.659  0.00  0.00    +0.210 A 
ATOM     20  N   UNL     1       3.463 -10.685   3.785  0.00  0.00    -0.188 NA
ATOM     21  C   UNL     1       3.686 -11.956   3.530  0.00  0.00    +0.209 A 
ATOM     22  N   UNL     1       3.468 -12.163   2.215  0.00  0.00    -0.246 N 
ATOM     23  H   UNL     1       3.553 -13.003   1.737  0.00  0.00    +0.192 HD
ATOM     24  N   UNL     1       3.087 -10.924   1.675  0.00  0.00    -0.144 NA
ATOM     25  N   UNL     1       4.077 -12.913   4.449  0.00  0.00    -0.328 N 
ATOM     26  H   UNL     1       4.210 -12.667   5.378  0.00  0.00    +0.145 HD
ATOM     27  H   UNL     1       4.219 -13.829   4.165  0.00  0.00    +0.145 HD
ENDBRANCH  18  19
ENDBRANCH  17  18
ENDBRANCH  12  17
TORSDOF 3
