REMARK  Name = ZINC33193681
REMARK  6 active torsions:
REMARK  status: ('A' for Active; 'I' for Inactive)
REMARK    1  A    between atoms: C_1  and  C_2
REMARK    2  A    between atoms: C_2  and  C_4
REMARK    3  A    between atoms: C_2  and  N_10
REMARK    4  A    between atoms: C_11  and  C_13
REMARK    5  A    between atoms: C_16  and  S_19
REMARK    6  A    between atoms: S_19  and  N_22
REMARK                            x       y       z     vdW  Elec       q    Type
REMARK                         _______ _______ _______ _____ _____    ______ ____
ROOT
ATOM      1  C   UNL     1      -1.009   3.627  -5.278  0.00  0.00    +0.037 A 
ATOM      2  C   UNL     1      -2.077   3.824  -4.401  0.00  0.00    +0.015 A 
ATOM      3  C   UNL     1      -1.837   4.257  -3.113  0.00  0.00    +0.029 A 
ATOM      4  C   UNL     1      -0.541   4.494  -2.690  0.00  0.00    +0.106 A 
ATOM      5  C   UNL     1       0.521   4.306  -3.555  0.00  0.00    +0.029 A 
ATOM      6  C   UNL     1       0.296   3.868  -4.844  0.00  0.00    +0.015 A 
ENDROOT
BRANCH   1   8
ATOM      7  N   UNL     1      -0.225   2.973  -7.503  0.00  0.00    -0.304 N 
ATOM      8  C   UNL     1      -1.258   3.163  -6.659  0.00  0.00    +0.245 C 
ATOM      9  O   UNL     1      -2.395   2.952  -7.034  0.00  0.00    -0.270 OA
ATOM     10  H   UNL     1       0.804   3.163  -7.164  0.00  0.00    +0.150 HD
BRANCH   7  12
ATOM     11  C   UNL     1      -0.789   3.715  -9.764  0.00  0.00    +0.033 C 
ATOM     12  C   UNL     1      -0.472   2.513  -8.872  0.00  0.00    +0.107 C 
BRANCH  12  13
ATOM     13  C   UNL     1       0.754   1.809  -9.395  0.00  0.00    +0.011 A 
ATOM     14  C   UNL     1       0.837   0.688 -10.151  0.00  0.00    +0.014 A 
ATOM     15  C   UNL     1       2.084   0.217 -10.518  0.00  0.00    +0.028 A 
ATOM     16  C   UNL     1       3.187   0.892 -10.110  0.00  0.00    +0.078 A 
ATOM     17  S   UNL     1       2.473   2.241  -9.184  0.00  0.00    -0.080 S 
ATOM     18 CL   UNL     1       4.859   0.540 -10.416  0.00  0.00    -0.076 Cl
ENDBRANCH  12  13
ENDBRANCH   7  12
ENDBRANCH   1   8
BRANCH   4  19
ATOM     19  S   UNL     1      -0.244   5.047  -1.043  0.00  0.00    +0.061 S 
ATOM     20  O   UNL     1      -1.440   5.675  -0.603  0.00  0.00    -0.153 OA
ATOM     21  O   UNL     1       1.008   5.720  -1.060  0.00  0.00    -0.153 OA
BRANCH  19  22
ATOM     22  N   UNL     1      -0.044   3.699  -0.103  0.00  0.00    -0.166 NA
ATOM     23  C   UNL     1      -1.187   3.052   0.562  0.00  0.00    +0.128 C 
ATOM     24  C   UNL     1      -1.310   1.625   0.017  0.00  0.00    +0.121 C 
ATOM     25  N   UNL     1      -0.011   0.966   0.007  0.00  0.00    -0.313 N 
ATOM     26  C   UNL     1       1.161   1.602  -0.000  0.00  0.00    +0.229 C 
ATOM     27  O   UNL     1       2.176   0.944  -0.093  0.00  0.00    -0.274 OA
ATOM     28  C   UNL     1       1.283   3.098   0.101  0.00  0.00    +0.205 C 
ATOM     29  H   UNL     1       0.048  -0.133   0.006  0.00  0.00    +0.149 HD
ENDBRANCH  19  22
ENDBRANCH   4  19
TORSDOF 5
