REMARK  Name = ZINC44786294
REMARK  8 active torsions:
REMARK  status: ('A' for Active; 'I' for Inactive)
REMARK    1  A    between atoms: C_1  and  C_2
REMARK    2  A    between atoms: C_2  and  C_4
REMARK    3  A    between atoms: C_2  and  N_11
REMARK    4  A    between atoms: C_12  and  C_14
REMARK    5  A    between atoms: C_14  and  C_15
REMARK    6  A    between atoms: C_14  and  C_16
REMARK    7  A    between atoms: C_14  and  C_17
REMARK    8  A    between atoms: N_18  and  O_19
REMARK                            x       y       z     vdW  Elec       q    Type
REMARK                         _______ _______ _______ _____ _____    ______ ____
ROOT
ATOM      1  N   UNL     1       0.711  -0.489   1.189  0.00  0.00    -0.308 N 
ATOM      2  C   UNL     1       2.054  -0.600   1.174  0.00  0.00    +0.226 C 
ATOM      3  O   UNL     1       2.676  -0.297   0.177  0.00  0.00    -0.275 OA
ATOM      4  H   UNL     1       0.213  -0.731   1.986  0.00  0.00    +0.149 HD
ENDROOT
BRANCH   2   5
ATOM      5  C   UNL     1       2.783  -1.099   2.395  0.00  0.00    +0.099 C 
ATOM      6  C   UNL     1       2.502  -0.165   3.574  0.00  0.00    +0.028 C 
ATOM      7  C   UNL     1       2.300  -2.510   2.736  0.00  0.00    +0.028 C 
BRANCH   5   8
ATOM      8  C   UNL     1       4.264  -1.128   2.119  0.00  0.00    +0.146 C 
ATOM      9  N   UNL     1       5.070  -0.424   2.842  0.00  0.00    -0.076 NA
ATOM     10  N   UNL     1       4.758  -1.905   1.095  0.00  0.00    -0.343 N 
ATOM     11  H   UNL     1       4.153  -2.434   0.551  0.00  0.00    +0.144 HD
ATOM     12  H   UNL     1       5.712  -1.924   0.917  0.00  0.00    +0.144 HD
BRANCH   9  13
ATOM     13  O   UNL     1       6.462  -0.451   2.583  0.00  0.00    -0.408 OA
ATOM     14  H   UNL     1       6.983   0.107   3.175  0.00  0.00    +0.328 HD
ENDBRANCH   9  13
ENDBRANCH   5   8
ENDBRANCH   2   5
BRANCH   1  16
ATOM     15  C   UNL     1      -0.019   1.526   0.010  0.00  0.00    +0.033 C 
ATOM     16  C   UNL     1       0.002  -0.004   0.002  0.00  0.00    +0.100 C 
BRANCH  16  17
ATOM     17  C   UNL     1      -1.412  -0.526   0.013  0.00  0.00    -0.027 A 
ATOM     18  C   UNL     1      -2.123  -0.571   1.198  0.00  0.00    +0.007 A 
ATOM     19  C   UNL     1      -3.419  -1.049   1.208  0.00  0.00    +0.020 A 
ATOM     20  C   UNL     1      -4.006  -1.483   0.032  0.00  0.00    +0.041 A 
ATOM     21  C   UNL     1      -3.294  -1.437  -1.153  0.00  0.00    +0.020 A 
ATOM     22  C   UNL     1      -1.999  -0.954  -1.163  0.00  0.00    +0.007 A 
ATOM     23 CL   UNL     1      -5.634  -2.084   0.045  0.00  0.00    -0.084 Cl
ENDBRANCH  16  17
ENDBRANCH   1  16
TORSDOF 5
