REMARK  Name = ZINC64048342
REMARK  7 active torsions:
REMARK  status: ('A' for Active; 'I' for Inactive)
REMARK    1  A    between atoms: C_4  and  N_7
REMARK    2  A    between atoms: C_10  and  C_17
REMARK    3  A    between atoms: C_17  and  C_18
REMARK    4  A    between atoms: C_18  and  C_19
REMARK    5  A    between atoms: N_21  and  C_22
REMARK    6  A    between atoms: C_22  and  C_23
REMARK    7  A    between atoms: C_23  and  C_24
REMARK                            x       y       z     vdW  Elec       q    Type
REMARK                         _______ _______ _______ _____ _____    ______ ____
ROOT
ATOM      1  C   UNL     1       2.784  -4.662   2.660  0.00  0.00    +0.083 C 
ENDROOT
BRANCH   1   5
ATOM      2  N   UNL     1       3.623  -0.651  -0.037  0.00  0.00    -0.214 N 
ATOM      3  C   UNL     1       3.884  -1.835   0.583  0.00  0.00    +0.170 A 
ATOM      4  N   UNL     1       3.161  -2.676   1.338  0.00  0.00    -0.214 NA
ATOM      5  C   UNL     1       3.666  -3.773   1.820  0.00  0.00    +0.113 A 
ATOM      6  N   UNL     1       4.950  -4.155   1.603  0.00  0.00    -0.310 N 
ATOM      7  C   UNL     1       5.774  -3.384   0.855  0.00  0.00    +0.262 A 
ATOM      8  O   UNL     1       6.929  -3.710   0.649  0.00  0.00    -0.267 OA
ATOM      9  C   UNL     1       5.224  -2.146   0.303  0.00  0.00    +0.103 A 
ATOM     10  C   UNL     1       5.736  -1.108  -0.498  0.00  0.00    +0.150 A 
ATOM     11  N   UNL     1       4.786  -0.236  -0.697  0.00  0.00    -0.172 NA
ATOM     12  H   UNL     1       5.279  -4.983   1.986  0.00  0.00    +0.170 HD
BRANCH   2  16
ATOM     13  C   UNL     1      -0.017   1.379   0.010  0.00  0.00    +0.000 A 
ATOM     14  C   UNL     1       1.170   2.089   0.002  0.00  0.00    +0.002 A 
ATOM     15  C   UNL     1       2.377   1.419  -0.013  0.00  0.00    +0.028 A 
ATOM     16  C   UNL     1       2.400   0.031  -0.021  0.00  0.00    +0.068 A 
ATOM     17  C   UNL     1       1.206  -0.680  -0.013  0.00  0.00    +0.028 A 
ATOM     18  C   UNL     1       0.002  -0.004   0.002  0.00  0.00    +0.002 A 
ENDBRANCH   2  16
ENDBRANCH   1   5
BRANCH   1  19
ATOM     19  C   UNL     1       1.391  -4.040   2.771  0.00  0.00    +0.103 C 
BRANCH  19  20
ATOM     20  C   UNL     1       0.510  -4.928   3.611  0.00  0.00    +0.213 C 
ATOM     21  O   UNL     1       0.952  -5.958   4.074  0.00  0.00    -0.276 OA
ATOM     22  N   UNL     1      -0.770  -4.579   3.846  0.00  0.00    -0.315 N 
ATOM     23  H   UNL     1      -1.124  -3.755   3.476  0.00  0.00    +0.149 HD
BRANCH  22  24
ATOM     24  C   UNL     1      -1.627  -5.442   4.662  0.00  0.00    +0.108 C 
BRANCH  24  25
ATOM     25  C   UNL     1      -3.020  -4.820   4.774  0.00  0.00    +0.052 C 
BRANCH  25  26
ATOM     26  C   UNL     1      -3.902  -5.709   5.613  0.00  0.00    -0.040 C 
ATOM     27  C   UNL     1      -4.145  -5.594   6.939  0.00  0.00    -0.001 A 
ATOM     28  C   UNL     1      -3.679  -4.645   7.957  0.00  0.00    +0.010 A 
ATOM     29  C   UNL     1      -4.106  -4.790   9.232  0.00  0.00    +0.001 A 
ATOM     30  C   UNL     1      -4.979  -5.821   9.605  0.00  0.00    +0.002 A 
ATOM     31  C   UNL     1      -5.450  -6.731   8.726  0.00  0.00    +0.026 A 
ATOM     32  C   UNL     1      -5.067  -6.674   7.358  0.00  0.00    +0.043 A 
ATOM     33  N   UNL     1      -5.381  -7.426   6.332  0.00  0.00    -0.380 N 
ATOM     34  C   UNL     1      -4.698  -6.905   5.143  0.00  0.00    +0.144 C 
ATOM     35  H   UNL     1      -5.971  -8.197   6.354  0.00  0.00    +0.160 HD
ENDBRANCH  25  26
ENDBRANCH  24  25
ENDBRANCH  22  24
ENDBRANCH  19  20
ENDBRANCH   1  19
TORSDOF 7
