REMARK  Name = ZINC14540444
REMARK  16 active torsions:
REMARK  status: ('A' for Active; 'I' for Inactive)
REMARK    1  A    between atoms: C_1  and  C_2
REMARK    2  A    between atoms: C_2  and  C_3
REMARK    3  A    between atoms: C_2  and  C_4
REMARK    4  A    between atoms: C_4  and  C_5
REMARK    5  A    between atoms: C_5  and  C_6
REMARK    6  A    between atoms: C_9  and  C_11
REMARK    7  A    between atoms: C_13  and  C_17
REMARK    8  A    between atoms: C_17  and  C_18
REMARK    9  A    between atoms: C_17  and  C_19
REMARK   10  A    between atoms: N_22  and  C_24
REMARK   11  A    between atoms: C_24  and  C_25
REMARK   12  A    between atoms: C_27  and  O_34
REMARK   13  A    between atoms: C_28  and  O_33
REMARK   14  A    between atoms: C_29  and  O_31
REMARK   15  A    between atoms: O_31  and  C_32
REMARK   16  A    between atoms: O_34  and  C_35
REMARK                            x       y       z     vdW  Elec       q    Type
REMARK                         _______ _______ _______ _____ _____    ______ ____
ROOT
ATOM      1  C   UNL     1      -2.829  -2.579  -0.111  0.00  0.00    +0.038 A 
ATOM      2  C   UNL     1      -3.639  -2.674  -1.172  0.00  0.00    +0.054 A 
ATOM      3  N   UNL     1      -4.832  -3.194  -0.728  0.00  0.00    -0.325 N 
ATOM      4  C   UNL     1      -4.705  -3.406   0.604  0.00  0.00    +0.140 A 
ATOM      5  N   UNL     1      -3.492  -3.035   0.964  0.00  0.00    -0.342 N 
ATOM      6  C   UNL     1      -5.981  -3.440  -1.603  0.00  0.00    +0.139 C 
ATOM      7  C   UNL     1      -5.763  -2.660  -2.907  0.00  0.00    +0.106 C 
ATOM      8  N   UNL     1      -4.421  -2.938  -3.437  0.00  0.00    -0.291 NA
ATOM      9  C   UNL     1      -3.378  -2.306  -2.610  0.00  0.00    +0.140 C 
ATOM     10  H   UNL     1      -3.136  -3.082   1.865  0.00  0.00    +0.167 HD
ENDROOT
BRANCH   4  11
ATOM     11  C   UNL     1      -5.744  -3.961   1.498  0.00  0.00    +0.126 A 
ATOM     12  C   UNL     1      -5.518  -4.631   2.718  0.00  0.00    +0.056 A 
ATOM     13  C   UNL     1      -6.719  -4.979   3.228  0.00  0.00    +0.039 A 
ATOM     14  N   UNL     1      -7.675  -4.553   2.374  0.00  0.00    -0.281 N 
ATOM     15  H   UNL     1      -8.632  -4.667   2.487  0.00  0.00    +0.189 HD
ATOM     16  N   UNL     1      -7.046  -3.913   1.298  0.00  0.00    -0.171 NA
BRANCH  13  17
ATOM     17  C   UNL     1      -6.952  -5.715   4.522  0.00  0.00    +0.031 C 
ATOM     18  C   UNL     1      -8.236  -5.200   5.177  0.00  0.00    +0.014 C 
ATOM     19  C   UNL     1      -7.089  -7.212   4.240  0.00  0.00    +0.014 C 
ENDBRANCH  13  17
ENDBRANCH   4  11
BRANCH   1  20
ATOM     20  C   UNL     1      -1.416  -2.058  -0.121  0.00  0.00    +0.055 C 
BRANCH  20  21
ATOM     21  C   UNL     1      -1.433  -0.534   0.013  0.00  0.00    +0.009 C 
BRANCH  21  23
ATOM     22  C   UNL     1      -0.019   1.526   0.010  0.00  0.00    +0.007 C 
ATOM     23  C   UNL     1       0.002  -0.004   0.002  0.00  0.00    -0.017 C 
ATOM     24  C   UNL     1       0.742  -0.511   1.242  0.00  0.00    +0.007 C 
ENDBRANCH  21  23
ENDBRANCH  20  21
ENDBRANCH   1  20
BRANCH   8  25
ATOM     25  C   UNL     1      -4.310  -2.514  -4.839  0.00  0.00    +0.120 C 
BRANCH  25  26
ATOM     26  C   UNL     1      -5.216  -3.362  -5.694  0.00  0.00    -0.026 A 
ATOM     27  C   UNL     1      -4.741  -4.536  -6.247  0.00  0.00    +0.054 A 
ATOM     28  C   UNL     1      -5.571  -5.320  -7.034  0.00  0.00    +0.165 A 
ATOM     29  C   UNL     1      -6.882  -4.923  -7.267  0.00  0.00    +0.201 A 
ATOM     30  C   UNL     1      -7.357  -3.742  -6.708  0.00  0.00    +0.165 A 
ATOM     31  C   UNL     1      -6.522  -2.967  -5.918  0.00  0.00    +0.054 A 
BRANCH  30  32
ATOM     32  O   UNL     1      -8.639  -3.350  -6.933  0.00  0.00    -0.491 OA
ATOM     33  C   UNL     1      -9.058  -2.125  -6.327  0.00  0.00    +0.277 C 
ENDBRANCH  30  32
BRANCH  29  34
ATOM     34  O   UNL     1      -7.700  -5.689  -8.039  0.00  0.00    -0.501 OA
ATOM     35  H   UNL     1      -8.198  -6.355  -7.545  0.00  0.00    +0.292 HD
ENDBRANCH  29  34
BRANCH  28  36
ATOM     36  O   UNL     1      -5.102  -6.474  -7.579  0.00  0.00    -0.491 OA
ATOM     37  C   UNL     1      -3.744  -6.819  -7.298  0.00  0.00    +0.277 C 
ENDBRANCH  28  36
ENDBRANCH  25  26
ENDBRANCH   8  25
TORSDOF 10
