REMARK  Name = ZINC36524249
REMARK  16 active torsions:
REMARK  status: ('A' for Active; 'I' for Inactive)
REMARK    1  A    between atoms: C_1  and  C_2
REMARK    2  A    between atoms: C_2  and  C_3
REMARK    3  A    between atoms: C_2  and  C_4
REMARK    4  A    between atoms: C_2  and  C_5
REMARK    5  A    between atoms: C_5  and  C_6
REMARK    6  A    between atoms: C_6  and  C_7
REMARK    7  A    between atoms: C_6  and  C_8
REMARK    8  A    between atoms: C_6  and  N_9
REMARK    9  A    between atoms: C_10  and  C_12
REMARK   10  A    between atoms: C_12  and  C_14
REMARK   11  A    between atoms: C_12  and  N_23
REMARK   12  A    between atoms: C_15  and  O_22
REMARK   13  A    between atoms: C_17  and  O_21
REMARK   14  A    between atoms: C_19  and  O_20
REMARK   15  A    between atoms: N_23  and  C_24
REMARK   16  A    between atoms: C_25  and  C_27
REMARK                            x       y       z     vdW  Elec       q    Type
REMARK                         _______ _______ _______ _____ _____    ______ ____
ROOT
ATOM      1  C   UNL     1       3.962   0.526  -3.766  0.00  0.00    +0.199 C 
ENDROOT
BRANCH   1   2
ATOM      2  C   UNL     1       4.278  -0.469  -4.853  0.00  0.00    +0.065 A 
ATOM      3  C   UNL     1       5.455  -1.201  -4.801  0.00  0.00    +0.129 A 
ATOM      4  C   UNL     1       5.746  -2.116  -5.802  0.00  0.00    +0.091 A 
ATOM      5  C   UNL     1       4.860  -2.300  -6.853  0.00  0.00    +0.124 A 
ATOM      6  C   UNL     1       3.683  -1.568  -6.904  0.00  0.00    +0.091 A 
ATOM      7  C   UNL     1       3.390  -0.656  -5.901  0.00  0.00    +0.129 A 
BRANCH   7   8
ATOM      8  O   UNL     1       2.235   0.058  -5.949  0.00  0.00    -0.506 OA
ATOM      9  H   UNL     1       2.310   0.898  -6.423  0.00  0.00    +0.292 HD
ENDBRANCH   7   8
BRANCH   5  10
ATOM     10  O   UNL     1       5.146  -3.196  -7.834  0.00  0.00    -0.507 OA
ATOM     11  H   UNL     1       4.816  -4.088  -7.660  0.00  0.00    +0.292 HD
ENDBRANCH   5  10
BRANCH   3  12
ATOM     12  O   UNL     1       6.322  -1.022  -3.771  0.00  0.00    -0.506 OA
ATOM     13  H   UNL     1       6.211  -1.654  -3.048  0.00  0.00    +0.292 HD
ENDBRANCH   3  12
ENDBRANCH   1   2
BRANCH   1  15
ATOM     14  N   UNL     1       3.111  -1.189  -2.199  0.00  0.00    -0.308 N 
ATOM     15  C   UNL     1       3.965  -0.172  -2.430  0.00  0.00    +0.239 C 
ATOM     16  O   UNL     1       4.735   0.182  -1.563  0.00  0.00    -0.273 OA
ATOM     17  H   UNL     1       2.494  -1.471  -2.893  0.00  0.00    +0.149 HD
BRANCH  14  18
ATOM     18  C   UNL     1       3.113  -1.867  -0.901  0.00  0.00    +0.030 C 
ATOM     19  C   UNL     1       2.941  -0.834   0.214  0.00  0.00    +0.031 C 
ATOM     20  C   UNL     1       4.441  -2.604  -0.713  0.00  0.00    +0.031 C 
BRANCH  18  21
ATOM     21  C   UNL     1       1.960  -2.871  -0.848  0.00  0.00    +0.031 C 
BRANCH  21  23
ATOM     22  C   UNL     1       0.717  -2.418  -2.967  0.00  0.00    +0.010 C 
ATOM     23  C   UNL     1       0.704  -2.237  -1.448  0.00  0.00    -0.036 C 
ATOM     24  C   UNL     1       0.675  -0.745  -1.112  0.00  0.00    +0.010 C 
ATOM     25  C   UNL     1      -0.538  -2.916  -0.865  0.00  0.00    +0.010 C 
ENDBRANCH  21  23
ENDBRANCH  18  21
ENDBRANCH  14  18
ENDBRANCH   1  15
BRANCH   1  26
ATOM     26  N   UNL     1       4.973   1.586  -3.765  0.00  0.00    -0.289 N 
ATOM     27  C   UNL     1       6.353   1.282  -3.378  0.00  0.00    +0.133 C 
ATOM     28  C   UNL     1       4.633   2.841  -4.120  0.00  0.00    +0.219 C 
ATOM     29  O   UNL     1       3.531   3.066  -4.572  0.00  0.00    -0.275 OA
BRANCH  28  30
ATOM     30  C   UNL     1       5.624   3.965  -3.955  0.00  0.00    +0.075 C 
ATOM     31  C   UNL     1       5.727   4.341  -2.476  0.00  0.00    +0.013 C 
ATOM     32  C   UNL     1       6.733   5.482  -2.308  0.00  0.00    +0.001 C 
ATOM     33  C   UNL     1       6.264   6.697  -3.112  0.00  0.00    +0.000 C 
ATOM     34  C   UNL     1       6.161   6.321  -4.591  0.00  0.00    +0.001 C 
ATOM     35  C   UNL     1       5.155   5.180  -4.759  0.00  0.00    +0.013 C 
ENDBRANCH  28  30
ENDBRANCH   1  26
TORSDOF 10
