REMARK  Name = ZINC09494368
REMARK  7 active torsions:
REMARK  status: ('A' for Active; 'I' for Inactive)
REMARK    1  A    between atoms: C_1  and  C_2
REMARK    2  A    between atoms: C_2  and  C_3
REMARK    3  A    between atoms: C_3  and  C_5
REMARK    4  A    between atoms: C_3  and  S_6
REMARK    5  A    between atoms: S_6  and  C_7
REMARK    6  A    between atoms: C_17  and  C_19
REMARK    7  A    between atoms: C_23  and  N_25
REMARK                            x       y       z     vdW  Elec       q    Type
REMARK                         _______ _______ _______ _____ _____    ______ ____
ROOT
ATOM      1  C   UNL     1      -3.926  -0.602  -1.300  0.00  0.00    +0.172 A 
ATOM      2  N   UNL     1      -4.264  -1.196  -0.175  0.00  0.00    -0.185 NA
ATOM      3  C   UNL     1      -5.519  -1.622   0.031  0.00  0.00    +0.280 A 
ATOM      4  O   UNL     1      -5.817  -2.174   1.080  0.00  0.00    -0.265 OA
ATOM      5  C   UNL     1      -6.495  -1.429  -0.971  0.00  0.00    +0.069 A 
ATOM      6  C   UNL     1      -6.133  -0.817  -2.131  0.00  0.00    +0.111 A 
ATOM      7  N   UNL     1      -4.839  -0.396  -2.291  0.00  0.00    -0.322 N 
ATOM      8  N   UNL     1      -7.058  -0.623  -3.130  0.00  0.00    -0.304 N 
ATOM      9  C   UNL     1      -8.216  -1.352  -3.159  0.00  0.00    +0.017 C 
ATOM     10  C   UNL     1      -8.664  -1.976  -2.050  0.00  0.00    +0.024 C 
ATOM     11  C   UNL     1      -7.905  -1.889  -0.750  0.00  0.00    +0.092 C 
ATOM     12  C   UNL     1      -9.856  -2.723  -2.070  0.00  0.00    +0.162 C 
ATOM     13  O   UNL     1     -10.222  -3.288  -1.059  0.00  0.00    -0.292 OA
ATOM     14  C   UNL     1     -10.686  -2.833  -3.319  0.00  0.00    +0.080 C 
ATOM     15  C   UNL     1     -10.470  -1.580  -4.174  0.00  0.00    +0.014 C 
ATOM     16  C   UNL     1      -8.973  -1.441  -4.461  0.00  0.00    +0.051 C 
ATOM     17  H   UNL     1      -6.888   0.037  -3.820  0.00  0.00    +0.153 HD
ATOM     18  H   UNL     1      -4.572   0.047  -3.112  0.00  0.00    +0.169 HD
ENDROOT
BRANCH  11  19
ATOM     19  C   UNL     1      -8.604  -0.917   0.165  0.00  0.00    -0.033 A 
ATOM     20  C   UNL     1      -8.739   0.408  -0.208  0.00  0.00    +0.005 A 
ATOM     21  C   UNL     1      -9.380   1.300   0.631  0.00  0.00    +0.003 A 
ATOM     22  C   UNL     1      -9.887   0.868   1.843  0.00  0.00    +0.033 A 
ATOM     23  C   UNL     1      -9.752  -0.457   2.215  0.00  0.00    +0.126 A 
ATOM     24  C   UNL     1      -9.115  -1.350   1.374  0.00  0.00    +0.037 A 
BRANCH  23  25
ATOM     25  N   UNL     1     -10.294  -0.919   3.512  0.00  0.00    +0.056 N 
ATOM     26  O   UNL     1     -10.854  -0.139   4.246  0.00  0.00    -0.126 OA
ATOM     27  O   UNL     1     -10.177  -2.078   3.838  0.00  0.00    -0.126 OA
ENDBRANCH  23  25
ENDBRANCH  11  19
BRANCH   1  28
ATOM     28  S   UNL     1      -2.265  -0.057  -1.527  0.00  0.00    -0.085 S 
BRANCH  28  29
ATOM     29  C   UNL     1      -1.433  -0.534   0.013  0.00  0.00    +0.051 C 
ATOM     30  C   UNL     1      -1.413  -2.059   0.130  0.00  0.00    +0.019 C 
BRANCH  29  32
ATOM     31  C   UNL     1      -0.019   1.526   0.010  0.00  0.00    +0.005 C 
ATOM     32  C   UNL     1       0.002  -0.004   0.002  0.00  0.00    +0.011 C 
ENDBRANCH  29  32
ENDBRANCH  28  29
ENDBRANCH   1  28
TORSDOF 5
