REMARK  Name = ZINC02395539
REMARK  7 active torsions:
REMARK  status: ('A' for Active; 'I' for Inactive)
REMARK    1  A    between atoms: C_9  and  C_24
REMARK    2  A    between atoms: C_10  and  N_23
REMARK    3  A    between atoms: N_11  and  N_14
REMARK    4  A    between atoms: C_15  and  C_16
REMARK    5  A    between atoms: N_26  and  C_27
REMARK    6  A    between atoms: C_27  and  C_28
REMARK    7  A    between atoms: C_28  and  C_29
REMARK                            x       y       z     vdW  Elec       q    Type
REMARK                         _______ _______ _______ _____ _____    ______ ____
ROOT
ATOM      1  C   UNL     1       6.623   7.830  -5.187  0.00  0.00    +0.002 A 
ATOM      2  C   UNL     1       5.481   7.150  -5.605  0.00  0.00    +0.002 A 
ATOM      3  C   UNL     1       4.613   6.619  -4.703  0.00  0.00    +0.030 A 
ATOM      4  C   UNL     1       4.865   6.754  -3.325  0.00  0.00    +0.092 A 
ATOM      5  C   UNL     1       6.027   7.446  -2.900  0.00  0.00    +0.090 A 
ATOM      6  C   UNL     1       6.901   7.981  -3.864  0.00  0.00    +0.030 A 
ATOM      7  N   UNL     1       6.290   7.588  -1.595  0.00  0.00    -0.241 NA
ATOM      8  C   UNL     1       5.461   7.081  -0.705  0.00  0.00    +0.124 A 
ATOM      9  C   UNL     1       5.425   7.043   0.766  0.00  0.00    +0.105 A 
ATOM     10  C   UNL     1       4.270   6.352   1.116  0.00  0.00    +0.134 A 
ATOM     11  N   UNL     1       3.597   5.954  -0.001  0.00  0.00    -0.198 N 
ATOM     12  C   UNL     1       4.259   6.365  -1.143  0.00  0.00    +0.183 A 
ATOM     13  N   UNL     1       4.016   6.234  -2.429  0.00  0.00    -0.224 NA
ENDROOT
BRANCH   9  14
ATOM     14  C   UNL     1       6.408   7.622   1.679  0.00  0.00    +0.250 C 
ATOM     15  O   UNL     1       6.275   8.767   2.070  0.00  0.00    -0.270 OA
ATOM     16  N   UNL     1       7.461   6.887   2.089  0.00  0.00    -0.311 N 
ATOM     17  H   UNL     1       7.567   5.975   1.778  0.00  0.00    +0.149 HD
BRANCH  16  18
ATOM     18  C   UNL     1       8.447   7.468   3.005  0.00  0.00    +0.109 C 
BRANCH  18  19
ATOM     19  C   UNL     1       9.531   6.432   3.310  0.00  0.00    +0.049 C 
BRANCH  19  20
ATOM     20  C   UNL     1      10.545   7.029   4.252  0.00  0.00    -0.072 C 
ATOM     21  C   UNL     1      10.398   6.811   5.519  0.00  0.00    -0.028 C 
ATOM     22  C   UNL     1      11.318   7.345   6.577  0.00  0.00    +0.027 C 
ATOM     23  C   UNL     1      12.639   7.796   5.948  0.00  0.00    +0.004 C 
ATOM     24  C   UNL     1      12.321   8.695   4.746  0.00  0.00    +0.005 C 
ATOM     25  C   UNL     1      11.665   7.835   3.662  0.00  0.00    +0.030 C 
ENDBRANCH  19  20
ENDBRANCH  18  19
ENDBRANCH  16  18
ENDBRANCH   9  14
BRANCH  10  26
ATOM     26  N   UNL     1       3.866   6.104   2.403  0.00  0.00    -0.342 N 
ATOM     27  H   UNL     1       3.046   5.612   2.567  0.00  0.00    +0.144 HD
ATOM     28  H   UNL     1       4.399   6.421   3.148  0.00  0.00    +0.144 HD
ENDBRANCH  10  26
BRANCH  11  29
ATOM     29  N   UNL     1       2.396   5.233   0.007  0.00  0.00    -0.171 NA
ATOM     30  C   UNL     1       2.418   3.936  -0.000  0.00  0.00    +0.141 C 
BRANCH  30  31
ATOM     31  C   UNL     1       1.153   3.177   0.008  0.00  0.00    -0.004 A 
ATOM     32  C   UNL     1       1.173   1.780   0.000  0.00  0.00    +0.009 A 
ATOM     33  C   UNL     1      -0.013   1.076   0.008  0.00  0.00    +0.002 A 
ATOM     34  C   UNL     1      -1.221   1.750   0.017  0.00  0.00    +0.020 A 
ATOM     35  C   UNL     1      -1.249   3.134   0.031  0.00  0.00    +0.042 A 
ATOM     36  C   UNL     1      -0.070   3.851   0.023  0.00  0.00    +0.029 A 
ATOM     37 CL   UNL     1      -2.771   3.969   0.050  0.00  0.00    -0.084 Cl
ENDBRANCH  30  31
ENDBRANCH  11  29
TORSDOF 7
