REMARK  Name = ZINC05002928
REMARK  6 active torsions:
REMARK  status: ('A' for Active; 'I' for Inactive)
REMARK    1  A    between atoms: C_1  and  C_2
REMARK    2  A    between atoms: C_7  and  O_10
REMARK    3  A    between atoms: O_10  and  C_11
REMARK    4  A    between atoms: C_11  and  C_13
REMARK    5  A    between atoms: C_14  and  C_29
REMARK    6  A    between atoms: C_19  and  C_21
REMARK                            x       y       z     vdW  Elec       q    Type
REMARK                         _______ _______ _______ _____ _____    ______ ____
ROOT
ATOM      1  C   UNL     1       3.685  -2.396  -2.024  0.00  0.00    +0.078 C 
ATOM      2  C   UNL     1       4.737  -3.108  -2.483  0.00  0.00    +0.021 C 
ATOM      3  N   UNL     1       4.724  -4.473  -2.468  0.00  0.00    -0.273 N 
ATOM      4  C   UNL     1       3.698  -5.201  -2.010  0.00  0.00    +0.304 C 
ATOM      5  O   UNL     1       3.779  -6.414  -2.037  0.00  0.00    -0.252 OA
ATOM      6  N   UNL     1       2.578  -4.633  -1.520  0.00  0.00    -0.288 N 
ATOM      7  C   UNL     1       2.494  -3.163  -1.486  0.00  0.00    +0.144 C 
ATOM      8  C   UNL     1       5.944  -2.383  -3.021  0.00  0.00    +0.061 C 
ATOM      9  H   UNL     1       5.502  -4.942  -2.807  0.00  0.00    +0.156 HD
ATOM     10  H   UNL     1       1.846  -5.180  -1.194  0.00  0.00    +0.151 HD
ENDROOT
BRANCH   7  11
ATOM     11  C   UNL     1       1.280  -2.754  -2.279  0.00  0.00    -0.021 A 
ATOM     12  C   UNL     1       0.390  -1.835  -1.755  0.00  0.00    +0.007 A 
ATOM     13  C   UNL     1      -0.724  -1.458  -2.481  0.00  0.00    +0.022 A 
ATOM     14  C   UNL     1      -0.948  -2.000  -3.734  0.00  0.00    +0.059 A 
ATOM     15  C   UNL     1      -0.057  -2.920  -4.259  0.00  0.00    +0.060 A 
ATOM     16  C   UNL     1       1.060  -3.292  -3.533  0.00  0.00    +0.027 A 
ATOM     17 CL   UNL     1      -0.337  -3.602  -5.831  0.00  0.00    -0.082 Cl
ATOM     18 CL   UNL     1      -2.347  -1.528  -4.647  0.00  0.00    -0.082 Cl
ENDBRANCH   7  11
BRANCH   1  19
ATOM     19  C   UNL     1       3.697  -0.981  -2.039  0.00  0.00    +0.339 C 
ATOM     20  O   UNL     1       3.934  -0.364  -1.017  0.00  0.00    -0.245 OA
BRANCH  19  21
ATOM     21  O   UNL     1       3.446  -0.317  -3.186  0.00  0.00    -0.458 OA
BRANCH  21  27
ATOM     22  C   UNL     1       2.114   1.828  -6.643  0.00  0.00    +0.007 C 
ATOM     23  C   UNL     1       3.038   1.212  -5.590  0.00  0.00    -0.011 C 
ATOM     24  C   UNL     1       4.485   1.609  -5.887  0.00  0.00    +0.003 C 
ATOM     25  C   UNL     1       5.409   0.993  -4.834  0.00  0.00    +0.004 C 
ATOM     26  C   UNL     1       5.013   1.504  -3.447  0.00  0.00    +0.045 C 
ATOM     27  C   UNL     1       3.566   1.107  -3.151  0.00  0.00    +0.177 C 
ATOM     28  C   UNL     1       2.642   1.723  -4.204  0.00  0.00    +0.048 C 
ENDBRANCH  21  27
ENDBRANCH  19  21
ENDBRANCH   1  19
TORSDOF 4
