REMARK  Name = ZINC42603066
REMARK  6 active torsions:
REMARK  status: ('A' for Active; 'I' for Inactive)
REMARK    1  A    between atoms: C_1  and  C_2
REMARK    2  A    between atoms: C_5  and  N_9
REMARK    3  A    between atoms: C_6  and  N_8
REMARK    4  A    between atoms: N_9  and  C_10
REMARK    5  A    between atoms: N_9  and  C_11
REMARK    6  A    between atoms: C_17  and  C_19
REMARK                            x       y       z     vdW  Elec       q    Type
REMARK                         _______ _______ _______ _____ _____    ______ ____
ROOT
ATOM      1  C   UNL     1      -0.095   1.415  -0.752  0.00  0.00    +0.044 C 
ATOM      2  C   UNL     1      -0.078  -0.083  -0.588  0.00  0.00    -0.049 A 
ATOM      3  C   UNL     1      -0.159  -0.639   0.676  0.00  0.00    +0.005 A 
ATOM      4  C   UNL     1      -0.144  -2.012   0.834  0.00  0.00    +0.025 A 
ATOM      5  C   UNL     1      -0.048  -2.837  -0.277  0.00  0.00    +0.051 A 
ATOM      6  C   UNL     1       0.033  -2.276  -1.552  0.00  0.00    +0.046 A 
ATOM      7  C   UNL     1       0.013  -0.898  -1.701  0.00  0.00    +0.028 A 
ENDROOT
BRANCH   6   8
ATOM      8  N   UNL     1       0.131  -3.103  -2.677  0.00  0.00    -0.357 N 
ATOM      9  H   UNL     1       0.082  -4.067  -2.577  0.00  0.00    +0.142 HD
ATOM     10  H   UNL     1       0.248  -2.712  -3.558  0.00  0.00    +0.142 HD
ENDBRANCH   6   8
BRANCH   5  11
ATOM     11  N   UNL     1      -0.032  -4.228  -0.119  0.00  0.00    -0.328 N 
ATOM     12  C   UNL     1       1.245  -4.944  -0.064  0.00  0.00    +0.129 C 
BRANCH  11  13
ATOM     13  C   UNL     1      -1.292  -4.967  -0.010  0.00  0.00    +0.076 C 
ATOM     14  C   UNL     1      -1.456  -5.879  -1.228  0.00  0.00    +0.023 C 
ATOM     15  C   UNL     1      -2.772  -6.651  -1.114  0.00  0.00    +0.002 C 
ATOM     16  C   UNL     1      -2.757  -7.499   0.160  0.00  0.00    +0.000 C 
ATOM     17  C   UNL     1      -2.592  -6.588   1.378  0.00  0.00    +0.005 C 
ATOM     18  C   UNL     1      -1.276  -5.816   1.263  0.00  0.00    +0.006 C 
ATOM     19  C   UNL     1      -1.112  -4.904   2.481  0.00  0.00    +0.009 C 
ENDBRANCH  11  13
ENDBRANCH   5  11
TORSDOF 3
