REMARK  Name = ZINC18188455
REMARK  11 active torsions:
REMARK  status: ('A' for Active; 'I' for Inactive)
REMARK    1  A    between atoms: C_1  and  C_2
REMARK    2  A    between atoms: C_2  and  C_3
REMARK    3  A    between atoms: C_3  and  C_4
REMARK    4  A    between atoms: C_4  and  N_5
REMARK    5  A    between atoms: C_6  and  N_34
REMARK    6  A    between atoms: C_7  and  N_14
REMARK    7  A    between atoms: N_14  and  C_15
REMARK    8  A    between atoms: C_15  and  C_16
REMARK    9  A    between atoms: C_22  and  C_24
REMARK   10  A    between atoms: C_24  and  O_25
REMARK   11  A    between atoms: O_25  and  C_26
REMARK                            x       y       z     vdW  Elec       q    Type
REMARK                         _______ _______ _______ _____ _____    ______ ____
ROOT
ATOM      1  N   UNL     1       2.223   4.267  -0.032  0.00  0.00    -0.257 N 
ATOM      2  C   UNL     1       3.429   3.664  -0.085  0.00  0.00    +0.258 C 
ATOM      3  O   UNL     1       3.502   2.471  -0.289  0.00  0.00    -0.271 OA
ENDROOT
BRANCH   1   6
ATOM      4  N   UNL     1      -0.950   2.852  -1.230  0.00  0.00    -0.280 N 
ATOM      5  C   UNL     1       0.191   3.619  -1.185  0.00  0.00    +0.127 A 
ATOM      6  C   UNL     1       1.044   3.495  -0.107  0.00  0.00    +0.140 A 
ATOM      7  C   UNL     1       0.719   2.584   0.915  0.00  0.00    +0.277 A 
ATOM      8  O   UNL     1       1.455   2.454   1.879  0.00  0.00    -0.266 OA
ATOM      9  N   UNL     1      -0.412   1.857   0.822  0.00  0.00    -0.273 N 
ATOM     10  H   UNL     1      -0.642   1.207   1.546  0.00  0.00    +0.173 HD
ATOM     11  C   UNL     1      -1.234   1.995  -0.233  0.00  0.00    +0.331 A 
ATOM     12  O   UNL     1      -2.250   1.329  -0.289  0.00  0.00    -0.246 OA
BRANCH   5  13
ATOM     13  N   UNL     1       0.479   4.498  -2.201  0.00  0.00    -0.343 N 
ATOM     14  H   UNL     1      -0.086   4.529  -2.990  0.00  0.00    +0.144 HD
ATOM     15  H   UNL     1       1.246   5.088  -2.131  0.00  0.00    +0.144 HD
ENDBRANCH   5  13
BRANCH   4  16
ATOM     16  C   UNL     1      -1.865   2.974  -2.368  0.00  0.00    +0.128 C 
BRANCH  16  17
ATOM     17  C   UNL     1      -1.458   1.979  -3.458  0.00  0.00    +0.021 C 
BRANCH  17  19
ATOM     18  C   UNL     1      -2.008   1.112  -5.735  0.00  0.00    +0.004 C 
ATOM     19  C   UNL     1      -2.414   2.107  -4.646  0.00  0.00    -0.002 C 
ENDBRANCH  17  19
ENDBRANCH  16  17
ENDBRANCH   4  16
ENDBRANCH   1   6
BRANCH   1  20
ATOM     20  C   UNL     1       2.137   5.723   0.103  0.00  0.00    +0.149 C 
BRANCH  20  21
ATOM     21  C   UNL     1       1.961   6.083   1.556  0.00  0.00    -0.030 A 
ATOM     22  C   UNL     1       0.700   6.078   2.122  0.00  0.00    +0.005 A 
ATOM     23  C   UNL     1       0.539   6.403   3.456  0.00  0.00    +0.000 A 
ATOM     24  C   UNL     1       1.639   6.744   4.221  0.00  0.00    +0.000 A 
ATOM     25  C   UNL     1       2.899   6.756   3.653  0.00  0.00    +0.000 A 
ATOM     26  C   UNL     1       3.060   6.425   2.321  0.00  0.00    +0.005 A 
ENDBRANCH  20  21
ENDBRANCH   1  20
BRANCH   2  27
ATOM     27  C   UNL     1       4.685   4.474   0.110  0.00  0.00    +0.325 C 
BRANCH  27  28
ATOM     28  O   UNL     1       5.826   3.643  -0.110  0.00  0.00    -0.481 OA
BRANCH  28  29
ATOM     29  C   UNL     1       7.048   4.223   0.027  0.00  0.00    +0.140 A 
ATOM     30  C   UNL     1       7.145   5.564   0.366  0.00  0.00    +0.048 A 
ATOM     31  C   UNL     1       8.388   6.153   0.505  0.00  0.00    +0.023 A 
ATOM     32  C   UNL     1       9.535   5.405   0.306  0.00  0.00    +0.043 A 
ATOM     33  C   UNL     1       9.441   4.067  -0.034  0.00  0.00    +0.043 A 
ATOM     34  C   UNL     1       8.199   3.473  -0.167  0.00  0.00    +0.084 A 
ATOM     35 CL   UNL     1       8.081   1.792  -0.585  0.00  0.00    -0.080 Cl
ATOM     36 CL   UNL     1      11.095   6.147   0.481  0.00  0.00    -0.083 Cl
ENDBRANCH  28  29
ENDBRANCH  27  28
ENDBRANCH   2  27
TORSDOF 10
