REMARK  Name = ZINC13784981
REMARK  9 active torsions:
REMARK  status: ('A' for Active; 'I' for Inactive)
REMARK    1  A    between atoms: C_1  and  C_2
REMARK    2  A    between atoms: C_2  and  C_3
REMARK    3  A    between atoms: C_2  and  C_4
REMARK    4  A    between atoms: C_7  and  C_10
REMARK    5  A    between atoms: N_11  and  N_12
REMARK    6  A    between atoms: C_13  and  C_15
REMARK    7  A    between atoms: C_15  and  C_17
REMARK    8  A    between atoms: C_15  and  N_29
REMARK    9  A    between atoms: C_30  and  C_32
REMARK                            x       y       z     vdW  Elec       q    Type
REMARK                         _______ _______ _______ _____ _____    ______ ____
ROOT
ATOM      1  C   UNL     1      -4.339   6.473   7.568  0.00  0.00    +0.212 C 
ENDROOT
BRANCH   1   2
ATOM      2  C   UNL     1      -5.753   5.952   7.577  0.00  0.00    +0.099 A 
ATOM      3  C   UNL     1      -6.036   4.617   8.103  0.00  0.00    +0.013 A 
ATOM      4  C   UNL     1      -5.029   3.797   8.614  0.00  0.00    +0.010 A 
ATOM      5  C   UNL     1      -5.345   2.559   9.100  0.00  0.00    +0.001 A 
ATOM      6  C   UNL     1      -6.658   2.105   9.096  0.00  0.00    +0.001 A 
ATOM      7  C   UNL     1      -7.673   2.894   8.602  0.00  0.00    +0.014 A 
ATOM      8  C   UNL     1      -7.374   4.160   8.102  0.00  0.00    +0.050 A 
ATOM      9  C   UNL     1      -8.411   5.049   7.563  0.00  0.00    +0.272 A 
ATOM     10  O   UNL     1      -9.577   4.697   7.537  0.00  0.00    -0.266 OA
ATOM     11  N   UNL     1      -8.048   6.262   7.096  0.00  0.00    -0.242 N 
ATOM     12  H   UNL     1      -8.808   6.944   6.688  0.00  0.00    +0.192 HD
ATOM     13  N   UNL     1      -6.720   6.688   7.115  0.00  0.00    -0.173 NA
ENDBRANCH   1   2
BRANCH   1  15
ATOM     14  N   UNL     1      -3.494   4.665   6.106  0.00  0.00    -0.205 N 
ATOM     15  C   UNL     1      -3.633   5.987   6.328  0.00  0.00    +0.259 C 
ATOM     16  O   UNL     1      -3.190   6.786   5.530  0.00  0.00    -0.272 OA
ATOM     17  H   UNL     1      -3.896   3.941   6.830  0.00  0.00    +0.177 HD
BRANCH  14  19
ATOM     18  C   UNL     1      -2.705   2.941   4.740  0.00  0.00    +0.138 C 
ATOM     19  N   UNL     1      -2.838   4.213   4.954  0.00  0.00    -0.188 NA
BRANCH  18  23
ATOM     20  C   UNL     1      -0.718   1.572   1.248  0.00  0.00    -0.045 A 
ATOM     21  C   UNL     1      -0.854   2.930   1.475  0.00  0.00    +0.004 A 
ATOM     22  C   UNL     1      -1.503   3.382   2.605  0.00  0.00    +0.010 A 
ATOM     23  C   UNL     1      -2.014   2.465   3.527  0.00  0.00    -0.005 A 
ATOM     24  C   UNL     1      -1.869   1.095   3.293  0.00  0.00    +0.010 A 
ATOM     25  C   UNL     1      -1.222   0.658   2.156  0.00  0.00    +0.004 A 
BRANCH  20  27
ATOM     26  C   UNL     1       1.423   1.615  -0.003  0.00  0.00    +0.012 C 
ATOM     27  C   UNL     1      -0.013   1.086   0.008  0.00  0.00    +0.013 C 
ATOM     28  C   UNL     1      -0.753   1.593  -1.232  0.00  0.00    +0.012 C 
ENDBRANCH  20  27
ENDBRANCH  18  23
ENDBRANCH  14  19
ENDBRANCH   1  15
BRANCH   1  29
ATOM     29  N   UNL     1      -4.358   7.938   7.576  0.00  0.00    -0.295 N 
ATOM     30  C   UNL     1      -4.458   8.604   8.743  0.00  0.00    +0.245 C 
ATOM     31  O   UNL     1      -4.532   7.989   9.789  0.00  0.00    -0.270 OA
ATOM     32  H   UNL     1      -4.291   8.495   6.629  0.00  0.00    +0.150 HD
BRANCH  30  33
ATOM     33  C   UNL     1      -4.478  10.082   8.752  0.00  0.00    +0.037 A 
ATOM     34  C   UNL     1      -4.387  10.791   7.553  0.00  0.00    +0.013 A 
ATOM     35  C   UNL     1      -4.411  12.171   7.568  0.00  0.00    +0.001 A 
ATOM     36  C   UNL     1      -4.514  12.851   8.768  0.00  0.00    +0.000 A 
ATOM     37  C   UNL     1      -4.598  12.155   9.960  0.00  0.00    +0.001 A 
ATOM     38  C   UNL     1      -4.581  10.775   9.959  0.00  0.00    +0.013 A 
ENDBRANCH  30  33
ENDBRANCH   1  29
TORSDOF 7
