REMARK  Name = ZINC63271309
REMARK  5 active torsions:
REMARK  status: ('A' for Active; 'I' for Inactive)
REMARK    1  A    between atoms: C_5  and  C_7
REMARK    2  A    between atoms: C_7  and  N_8
REMARK    3  A    between atoms: C_9  and  C_11
REMARK    4  A    between atoms: C_11  and  C_12
REMARK    5  A    between atoms: C_12  and  N_13
REMARK                            x       y       z     vdW  Elec       q    Type
REMARK                         _______ _______ _______ _____ _____    ______ ____
ROOT
ATOM      1  N   UNL     1       2.105  -6.534   4.306  0.00  0.00    -0.299 N 
ATOM      2  C   UNL     1       2.163  -7.860   4.542  0.00  0.00    +0.302 C 
ATOM      3  O   UNL     1       1.910  -8.647   3.651  0.00  0.00    -0.253 OA
ATOM      4  N   UNL     1       2.502  -8.312   5.765  0.00  0.00    -0.283 N 
ATOM      5  C   UNL     1       2.686  -7.360   6.865  0.00  0.00    +0.114 C 
ATOM      6  C   UNL     1       1.732  -7.719   8.019  0.00  0.00    +0.052 C 
ATOM      7  C   UNL     1       1.831  -9.212   8.214  0.00  0.00    -0.036 C 
ATOM      8  C   UNL     1       2.062  -9.943   9.298  0.00  0.00    -0.001 A 
ATOM      9  C   UNL     1       2.196  -9.575  10.717  0.00  0.00    +0.010 A 
ATOM     10  C   UNL     1       2.456 -10.594  11.578  0.00  0.00    +0.001 A 
ATOM     11  C   UNL     1       2.594 -11.926  11.175  0.00  0.00    +0.002 A 
ATOM     12  C   UNL     1       2.479 -12.355   9.893  0.00  0.00    +0.026 A 
ATOM     13  C   UNL     1       2.197 -11.376   8.896  0.00  0.00    +0.043 A 
ATOM     14  N   UNL     1       2.015 -11.508   7.615  0.00  0.00    -0.376 N 
ATOM     15  C   UNL     1       1.683 -10.195   7.059  0.00  0.00    +0.124 C 
ATOM     16  C   UNL     1       2.676  -9.757   5.984  0.00  0.00    +0.138 C 
ATOM     17  H   UNL     1       2.236  -5.906   5.033  0.00  0.00    +0.150 HD
ATOM     18  H   UNL     1       2.087 -12.335   7.114  0.00  0.00    +0.160 HD
ENDROOT
BRANCH   1  19
ATOM     19  C   UNL     1       1.845  -6.042   2.951  0.00  0.00    +0.115 C 
BRANCH  19  20
ATOM     20  C   UNL     1       1.831  -4.512   2.958  0.00  0.00    +0.114 C 
BRANCH  20  22
ATOM     21  N   UNL     1       1.505  -2.680   1.328  0.00  0.00    -0.311 N 
ATOM     22  C   UNL     1       1.563  -4.005   1.564  0.00  0.00    +0.215 C 
ATOM     23  O   UNL     1       1.400  -4.791   0.654  0.00  0.00    -0.276 OA
ATOM     24  H   UNL     1       1.636  -2.051   2.056  0.00  0.00    +0.149 HD
BRANCH  21  25
ATOM     25  C   UNL     1       1.245  -2.187  -0.027  0.00  0.00    +0.141 C 
BRANCH  25  30
ATOM     26  C   UNL     1       0.015   1.382   0.003  0.00  0.00    +0.000 A 
ATOM     27  C   UNL     1       1.205   2.085  -0.008  0.00  0.00    +0.001 A 
ATOM     28  C   UNL     1       2.409   1.406  -0.025  0.00  0.00    +0.020 A 
ATOM     29  C   UNL     1       2.422   0.022  -0.030  0.00  0.00    +0.046 A 
ATOM     30  C   UNL     1       1.231  -0.680  -0.020  0.00  0.00    -0.012 A 
ATOM     31  C   UNL     1       0.028  -0.000  -0.004  0.00  0.00    +0.006 A 
ATOM     32 CL   UNL     1       3.934  -0.831  -0.052  0.00  0.00    -0.083 Cl
ENDBRANCH  25  30
ENDBRANCH  21  25
ENDBRANCH  20  22
ENDBRANCH  19  20
ENDBRANCH   1  19
TORSDOF 5
