REMARK  Name = ZINC06817287
REMARK  5 active torsions:
REMARK  status: ('A' for Active; 'I' for Inactive)
REMARK    1  A    between atoms: C_1  and  C_2
REMARK    2  A    between atoms: C_10  and  S_16
REMARK    3  A    between atoms: S_16  and  N_19
REMARK    4  A    between atoms: N_19  and  C_20
REMARK    5  A    between atoms: C_20  and  C_21
REMARK                            x       y       z     vdW  Elec       q    Type
REMARK                         _______ _______ _______ _____ _____    ______ ____
ROOT
ATOM      1  C   UNL     1       4.498   4.340   2.104  0.00  0.00    +0.027 C 
ATOM      2  C   UNL     1       5.188   4.520   3.457  0.00  0.00    +0.158 C 
ATOM      3  C   UNL     1       5.940   3.264   3.815  0.00  0.00    +0.229 C 
ATOM      4  O   UNL     1       7.134   3.325   4.025  0.00  0.00    -0.275 OA
ATOM      5  N   UNL     1       5.320   2.091   3.905  0.00  0.00    -0.283 N 
ATOM      6  C   UNL     1       3.970   1.866   3.651  0.00  0.00    +0.055 A 
ATOM      7  C   UNL     1       3.645   0.703   2.949  0.00  0.00    +0.027 A 
ATOM      8  C   UNL     1       2.333   0.399   2.659  0.00  0.00    +0.030 A 
ATOM      9  C   UNL     1       1.323   1.256   3.056  0.00  0.00    +0.107 A 
ATOM     10  C   UNL     1       1.632   2.406   3.749  0.00  0.00    +0.053 A 
ATOM     11  C   UNL     1       2.958   2.722   4.054  0.00  0.00    +0.057 A 
ATOM     12  N   UNL     1       3.177   3.902   4.758  0.00  0.00    -0.283 N 
ATOM     13  C   UNL     1       4.156   4.773   4.525  0.00  0.00    +0.229 C 
ATOM     14  O   UNL     1       4.218   5.788   5.185  0.00  0.00    -0.275 OA
ATOM     15  H   UNL     1       5.854   1.326   4.171  0.00  0.00    +0.155 HD
ATOM     16  H   UNL     1       2.563   4.108   5.480  0.00  0.00    +0.155 HD
ENDROOT
BRANCH   9  17
ATOM     17  S   UNL     1      -0.356   0.875   2.682  0.00  0.00    +0.059 S 
ATOM     18  O   UNL     1      -1.151   1.557   3.643  0.00  0.00    -0.153 OA
ATOM     19  O   UNL     1      -0.422  -0.533   2.500  0.00  0.00    -0.153 OA
BRANCH  17  20
ATOM     20  N   UNL     1      -0.698   1.558   1.213  0.00  0.00    -0.186 NA
ATOM     21  H   UNL     1      -1.353   2.272   1.151  0.00  0.00    +0.148 HD
BRANCH  20  22
ATOM     22  C   UNL     1      -0.013   1.086   0.008  0.00  0.00    +0.153 C 
BRANCH  22  23
ATOM     23  C   UNL     1      -0.753   1.593  -1.232  0.00  0.00    +0.226 C 
ATOM     24  C   UNL     1      -0.039   1.101  -2.498  0.00  0.00    +0.275 C 
ATOM     25  O   UNL     1      -0.763   1.580  -3.636  0.00  0.00    -0.485 OA
ATOM     26  C   UNL     1      -2.116   1.435  -3.606  0.00  0.00    +0.162 A 
ATOM     27  C   UNL     1      -2.838   1.537  -4.785  0.00  0.00    +0.049 A 
ATOM     28  C   UNL     1      -4.213   1.396  -4.770  0.00  0.00    +0.004 A 
ATOM     29  C   UNL     1      -4.872   1.152  -3.579  0.00  0.00    +0.004 A 
ATOM     30  C   UNL     1      -4.158   1.048  -2.401  0.00  0.00    +0.049 A 
ATOM     31  C   UNL     1      -2.778   1.188  -2.409  0.00  0.00    +0.163 A 
ATOM     32  O   UNL     1      -2.088   1.077  -1.241  0.00  0.00    -0.480 OA
ENDBRANCH  22  23
ENDBRANCH  20  22
ENDBRANCH  17  20
ENDBRANCH   9  17
TORSDOF 4
