REMARK  Name = ZINC09992435
REMARK  7 active torsions:
REMARK  status: ('A' for Active; 'I' for Inactive)
REMARK    1  A    between atoms: C_1  and  C_2
REMARK    2  A    between atoms: N_5  and  C_7
REMARK    3  A    between atoms: C_15  and  N_29
REMARK    4  A    between atoms: C_16  and  C_27
REMARK    5  A    between atoms: C_17  and  C_19
REMARK    6  A    between atoms: C_22  and  O_25
REMARK    7  A    between atoms: O_25  and  C_26
REMARK                            x       y       z     vdW  Elec       q    Type
REMARK                         _______ _______ _______ _____ _____    ______ ____
ROOT
ATOM      1  C   UNL     1       2.962   3.020   3.050  0.00  0.00    +0.068 C 
ATOM      2  C   UNL     1       2.757   4.427   2.551  0.00  0.00    +0.068 A 
ATOM      3  C   UNL     1       2.539   4.798   1.231  0.00  0.00    +0.050 A 
ATOM      4  C   UNL     1       2.402   6.158   1.190  0.00  0.00    +0.230 A 
ATOM      5  N   UNL     1       2.530   6.618   2.453  0.00  0.00    -0.200 N 
ATOM      6  N   UNL     1       2.753   5.512   3.289  0.00  0.00    -0.168 NA
ATOM      7  O   UNL     1       2.180   6.838   0.037  0.00  0.00    -0.423 OA
ATOM      8  C   UNL     1       2.367   6.176  -1.123  0.00  0.00    +0.200 C 
ATOM      9  C   UNL     1       2.501   4.835  -1.211  0.00  0.00    +0.098 C 
ATOM     10  C   UNL     1       2.452   3.935  -0.001  0.00  0.00    +0.101 C 
ENDROOT
BRANCH   5  11
ATOM     11  C   UNL     1       2.454   7.958   2.857  0.00  0.00    +0.069 A 
ATOM     12  C   UNL     1       2.948   8.961   2.034  0.00  0.00    +0.029 A 
ATOM     13  C   UNL     1       2.867  10.281   2.432  0.00  0.00    +0.017 A 
ATOM     14  C   UNL     1       2.306  10.603   3.655  0.00  0.00    +0.018 A 
ATOM     15  C   UNL     1       1.819   9.605   4.480  0.00  0.00    +0.017 A 
ATOM     16  C   UNL     1       1.892   8.284   4.084  0.00  0.00    +0.029 A 
ATOM     17 BR   UNL     1       2.204  12.411   4.200  0.00  0.00    -0.050 Br
ENDBRANCH   5  11
BRANCH  10  18
ATOM     18  C   UNL     1       1.156   3.166   0.007  0.00  0.00    -0.034 A 
ATOM     19  C   UNL     1       1.174   1.783   0.000  0.00  0.00    +0.008 A 
ATOM     20  C   UNL     1      -0.013   1.076   0.008  0.00  0.00    +0.046 A 
ATOM     21  C   UNL     1      -1.223   1.754   0.017  0.00  0.00    +0.120 A 
ATOM     22  C   UNL     1      -1.238   3.141   0.029  0.00  0.00    +0.046 A 
ATOM     23  C   UNL     1      -0.049   3.844   0.022  0.00  0.00    +0.008 A 
BRANCH  21  24
ATOM     24  O   UNL     1      -2.392   1.060   0.020  0.00  0.00    -0.495 OA
ATOM     25  C   UNL     1      -3.599   1.824   0.029  0.00  0.00    +0.277 C 
ENDBRANCH  21  24
ENDBRANCH  10  18
BRANCH   8  26
ATOM     26  N   UNL     1       2.422   6.909  -2.283  0.00  0.00    -0.328 N 
ATOM     27  H   UNL     1       2.329   7.874  -2.252  0.00  0.00    +0.145 HD
ATOM     28  H   UNL     1       2.555   6.462  -3.133  0.00  0.00    +0.145 HD
ENDBRANCH   8  26
BRANCH   9  29
ATOM     29  C   UNL     1       2.699   4.245  -2.501  0.00  0.00    +0.101 C 
ATOM     30  N   UNL     1       2.856   3.777  -3.524  0.00  0.00    -0.191 NA
ENDBRANCH   9  29
TORSDOF 5
