REMARK  Name = ZINC09578694
REMARK  6 active torsions:
REMARK  status: ('A' for Active; 'I' for Inactive)
REMARK    1  A    between atoms: C_11  and  C_24
REMARK    2  A    between atoms: C_13  and  N_16
REMARK    3  A    between atoms: N_16  and  C_17
REMARK    4  A    between atoms: C_17  and  C_18
REMARK    5  A    between atoms: C_24  and  C_26
REMARK    6  A    between atoms: C_31  and  O_32
REMARK                            x       y       z     vdW  Elec       q    Type
REMARK                         _______ _______ _______ _____ _____    ______ ____
ROOT
ATOM      1  C   UNL     1      10.857   3.917   0.661  0.00  0.00    +0.001 A 
ATOM      2  C   UNL     1      10.836   2.527   0.651  0.00  0.00    +0.002 A 
ATOM      3  C   UNL     1       9.660   1.841   0.554  0.00  0.00    +0.028 A 
ATOM      4  C   UNL     1       8.452   2.545   0.464  0.00  0.00    +0.079 A 
ATOM      5  C   UNL     1       8.478   3.961   0.475  0.00  0.00    +0.065 A 
ATOM      6  C   UNL     1       9.696   4.634   0.575  0.00  0.00    +0.015 A 
ATOM      7  C   UNL     1       7.203   4.676   0.379  0.00  0.00    +0.266 A 
ATOM      8  O   UNL     1       7.163   5.893   0.383  0.00  0.00    -0.267 OA
ATOM      9  N   UNL     1       6.070   3.940   0.285  0.00  0.00    -0.266 N 
ATOM     10  C   UNL     1       4.875   4.585   0.191  0.00  0.00    +0.108 A 
ATOM     11  C   UNL     1       3.699   3.878   0.100  0.00  0.00    +0.041 A 
ATOM     12  C   UNL     1       3.730   2.460   0.092  0.00  0.00    +0.039 A 
ATOM     13  C   UNL     1       4.925   1.817   0.181  0.00  0.00    +0.071 A 
ATOM     14  C   UNL     1       6.128   2.569   0.281  0.00  0.00    +0.162 A 
ATOM     15  N   UNL     1       7.274   1.912   0.366  0.00  0.00    -0.227 NA
ENDROOT
BRANCH  13  16
ATOM     16  N   UNL     1       4.971   0.420   0.175  0.00  0.00    -0.339 N 
ATOM     17  H   UNL     1       5.824  -0.038   0.238  0.00  0.00    +0.146 HD
BRANCH  16  18
ATOM     18  C   UNL     1       3.730  -0.353   0.072  0.00  0.00    +0.133 C 
BRANCH  18  19
ATOM     19  C   UNL     1       4.058  -1.847   0.087  0.00  0.00    +0.135 C 
ATOM     20  C   UNL     1       2.759  -2.670  -0.021  0.00  0.00    +0.035 C 
ATOM     21  C   UNL     1       2.957  -3.525  -1.296  0.00  0.00    +0.031 C 
ATOM     22  C   UNL     1       4.498  -3.515  -1.459  0.00  0.00    +0.160 C 
ATOM     23  O   UNL     1       4.871  -2.181  -1.051  0.00  0.00    -0.375 OA
ENDBRANCH  18  19
ENDBRANCH  16  18
ENDBRANCH  13  16
BRANCH  11  24
ATOM     24  C   UNL     1       2.411   4.590   0.004  0.00  0.00    +0.198 C 
ATOM     25  O   UNL     1       2.393   5.803  -0.092  0.00  0.00    -0.286 OA
BRANCH  24  26
ATOM     26  C   UNL     1       1.146   3.833   0.025  0.00  0.00    +0.065 A 
ATOM     27  C   UNL     1       0.424   3.637  -1.156  0.00  0.00    +0.035 A 
ATOM     28  C   UNL     1      -0.757   2.928  -1.129  0.00  0.00    +0.042 A 
ATOM     29  C   UNL     1      -1.237   2.412   0.066  0.00  0.00    +0.023 A 
ATOM     30  C   UNL     1      -0.531   2.594   1.238  0.00  0.00    +0.047 A 
ATOM     31  C   UNL     1       0.660   3.305   1.230  0.00  0.00    +0.128 A 
ATOM     32 CL   UNL     1      -1.653   2.685  -2.597  0.00  0.00    -0.084 Cl
BRANCH  31  33
ATOM     33  O   UNL     1       1.351   3.489   2.382  0.00  0.00    -0.506 OA
ATOM     34  H   UNL     1       1.106   4.291   2.865  0.00  0.00    +0.292 HD
ENDBRANCH  31  33
ENDBRANCH  24  26
ENDBRANCH  11  24
TORSDOF 6
