REMARK  Name = ZINC39695397
REMARK  8 active torsions:
REMARK  status: ('A' for Active; 'I' for Inactive)
REMARK    1  A    between atoms: C_1  and  C_2
REMARK    2  A    between atoms: C_2  and  C_3
REMARK    3  A    between atoms: C_3  and  C_5
REMARK    4  A    between atoms: C_3  and  N_11
REMARK    5  A    between atoms: C_12  and  C_14
REMARK    6  A    between atoms: C_25  and  C_27
REMARK    7  A    between atoms: C_34  and  C_38
REMARK    8  A    between atoms: N_36  and  C_37
REMARK                            x       y       z     vdW  Elec       q    Type
REMARK                         _______ _______ _______ _____ _____    ______ ____
ROOT
ATOM      1  C   UNL     1       3.965   1.529   1.533  0.00  0.00    +0.100 C 
ATOM      2  C   UNL     1       4.479   1.464   0.077  0.00  0.00    +0.121 C 
ATOM      3  N   UNL     1       4.306   2.841  -0.443  0.00  0.00    -0.296 N 
ATOM      4  C   UNL     1       4.684   3.714   0.694  0.00  0.00    +0.115 C 
ATOM      5  C   UNL     1       4.104   3.007   1.935  0.00  0.00    -0.004 C 
ATOM      6  C   UNL     1       5.061   3.145   3.116  0.00  0.00    -0.010 C 
ATOM      7  C   UNL     1       5.138   4.616   3.535  0.00  0.00    -0.082 C 
ATOM      8  N   UNL     1       3.800   5.093   3.905  0.00  0.00    +0.379 N 
ATOM      9  C   UNL     1       2.910   5.043   2.738  0.00  0.00    -0.082 C 
ATOM     10  C   UNL     1       2.739   3.591   2.285  0.00  0.00    -0.010 C 
ATOM     11  C   UNL     1       3.898   3.214  -1.672  0.00  0.00    +0.250 C 
ATOM     12  O   UNL     1       3.529   2.375  -2.471  0.00  0.00    -0.270 OA
ATOM     13  H   UNL     1       3.425   4.506   4.636  0.00  0.00    -0.086 HD
ATOM     14  H   UNL     1       3.862   6.043   4.238  0.00  0.00    -0.086 HD
ENDROOT
BRANCH  11  15
ATOM     15  C   UNL     1       3.899   4.641  -2.048  0.00  0.00    +0.074 A 
ATOM     16  C   UNL     1       4.896   5.501  -1.567  0.00  0.00    +0.127 A 
ATOM     17  N   UNL     1       4.915   6.773  -1.889  0.00  0.00    -0.235 NA
ATOM     18  C   UNL     1       3.995   7.310  -2.684  0.00  0.00    +0.160 A 
ATOM     19  C   UNL     1       2.958   6.512  -3.210  0.00  0.00    +0.060 A 
ATOM     20  C   UNL     1       2.909   5.152  -2.892  0.00  0.00    +0.067 A 
ATOM     21 CL   UNL     1       1.655   4.129  -3.521  0.00  0.00    -0.082 Cl
ATOM     22  C   UNL     1       2.132   7.394  -4.029  0.00  0.00    +0.071 A 
ATOM     23  N   UNL     1       2.654   8.586  -3.973  0.00  0.00    -0.174 NA
ATOM     24  N   UNL     1       3.793   8.574  -3.161  0.00  0.00    -0.249 N 
ATOM     25  C   UNL     1       4.637   9.736  -2.868  0.00  0.00    +0.174 C 
ATOM     26  C   UNL     1       0.900   6.998  -4.800  0.00  0.00    +0.068 C 
ENDBRANCH  11  15
BRANCH   1  28
ATOM     27  N   UNL     1       2.047   0.502   2.710  0.00  0.00    -0.308 N 
ATOM     28  C   UNL     1       2.521   1.101   1.600  0.00  0.00    +0.219 C 
ATOM     29  O   UNL     1       1.787   1.296   0.654  0.00  0.00    -0.275 OA
ATOM     30  H   UNL     1       2.634   0.346   3.466  0.00  0.00    +0.149 HD
BRANCH  27  31
ATOM     31  C   UNL     1       0.643   0.086   2.775  0.00  0.00    +0.103 C 
BRANCH  31  32
ATOM     32  C   UNL     1       0.202   0.030   4.214  0.00  0.00    -0.027 A 
ATOM     33  C   UNL     1       1.059  -0.463   5.181  0.00  0.00    +0.005 A 
ATOM     34  C   UNL     1       0.654  -0.515   6.502  0.00  0.00    +0.000 A 
ATOM     35  C   UNL     1      -0.607  -0.073   6.856  0.00  0.00    +0.000 A 
ATOM     36  C   UNL     1      -1.463   0.421   5.889  0.00  0.00    +0.000 A 
ATOM     37  C   UNL     1      -1.057   0.476   4.569  0.00  0.00    +0.005 A 
ENDBRANCH  31  32
BRANCH  31  39
ATOM     38  C   UNL     1       0.821  -1.214   0.648  0.00  0.00    +0.006 C 
ATOM     39  C   UNL     1       0.492  -1.298   2.140  0.00  0.00    +0.024 C 
ENDBRANCH  31  39
ENDBRANCH  27  31
ENDBRANCH   1  28
TORSDOF 5
