REMARK  Name = ZINC39631839
REMARK  13 active torsions:
REMARK  status: ('A' for Active; 'I' for Inactive)
REMARK    1  A    between atoms: C_1  and  C_2
REMARK    2  A    between atoms: C_2  and  C_4
REMARK    3  A    between atoms: C_2  and  N_11
REMARK    4  A    between atoms: C_4  and  C_5
REMARK    5  A    between atoms: C_5  and  C_6
REMARK    6  A    between atoms: C_6  and  C_7
REMARK    7  A    between atoms: C_7  and  C_8
REMARK    8  A    between atoms: C_7  and  C_9
REMARK    9  A    between atoms: C_7  and  O_10
REMARK   10  A    between atoms: C_12  and  C_14
REMARK   11  A    between atoms: C_25  and  C_27
REMARK   12  A    between atoms: C_32  and  S_33
REMARK   13  A    between atoms: S_33  and  C_34
REMARK                            x       y       z     vdW  Elec       q    Type
REMARK                         _______ _______ _______ _____ _____    ______ ____
ROOT
ATOM      1  C   UNL     1       1.076  -0.838   4.032  0.00  0.00    +0.100 C 
ATOM      2  C   UNL     1       1.397  -2.295   3.632  0.00  0.00    +0.121 C 
ATOM      3  N   UNL     1       1.101  -3.091   4.846  0.00  0.00    -0.296 N 
ATOM      4  C   UNL     1      -0.127  -2.473   5.402  0.00  0.00    +0.115 C 
ATOM      5  C   UNL     1       0.075  -0.959   5.194  0.00  0.00    -0.004 C 
ATOM      6  C   UNL     1      -1.248  -0.297   4.821  0.00  0.00    -0.010 C 
ATOM      7  C   UNL     1      -2.207  -0.379   6.012  0.00  0.00    -0.082 C 
ATOM      8  N   UNL     1      -1.609   0.295   7.172  0.00  0.00    +0.379 N 
ATOM      9  C   UNL     1      -0.385  -0.405   7.580  0.00  0.00    -0.082 C 
ATOM     10  C   UNL     1       0.651  -0.324   6.456  0.00  0.00    -0.010 C 
ATOM     11  C   UNL     1       1.792  -4.140   5.336  0.00  0.00    +0.249 C 
ATOM     12  O   UNL     1       1.367  -4.754   6.296  0.00  0.00    -0.270 OA
ATOM     13  H   UNL     1      -1.385   1.248   6.927  0.00  0.00    -0.086 HD
ATOM     14  H   UNL     1      -2.267   0.293   7.936  0.00  0.00    -0.086 HD
ENDROOT
BRANCH  11  15
ATOM     15  C   UNL     1       3.063  -4.543   4.707  0.00  0.00    +0.069 A 
ATOM     16  C   UNL     1       3.237  -4.440   3.322  0.00  0.00    +0.017 A 
ATOM     17  C   UNL     1       4.449  -4.832   2.781  0.00  0.00    +0.020 A 
ATOM     18  C   UNL     1       5.445  -5.309   3.615  0.00  0.00    +0.112 A 
ATOM     19  N   UNL     1       5.262  -5.399   4.917  0.00  0.00    -0.248 NA
ATOM     20  C   UNL     1       4.124  -5.034   5.488  0.00  0.00    +0.114 A 
BRANCH  20  21
ATOM     21  S   UNL     1       3.937  -5.169   7.235  0.00  0.00    -0.069 S 
BRANCH  21  22
ATOM     22  C   UNL     1       5.419  -5.962   7.762  0.00  0.00    +0.014 A 
ATOM     23  C   UNL     1       6.495  -5.203   8.205  0.00  0.00    +0.015 A 
ATOM     24  C   UNL     1       7.655  -5.827   8.618  0.00  0.00    +0.001 A 
ATOM     25  C   UNL     1       7.747  -7.207   8.591  0.00  0.00    +0.000 A 
ATOM     26  C   UNL     1       6.678  -7.966   8.150  0.00  0.00    +0.001 A 
ATOM     27  C   UNL     1       5.513  -7.348   7.741  0.00  0.00    +0.015 A 
ENDBRANCH  21  22
ENDBRANCH  20  21
ENDBRANCH  11  15
BRANCH   1  29
ATOM     28  N   UNL     1       0.615   1.231   2.758  0.00  0.00    -0.312 N 
ATOM     29  C   UNL     1       0.452  -0.101   2.876  0.00  0.00    +0.218 C 
ATOM     30  O   UNL     1      -0.198  -0.708   2.050  0.00  0.00    -0.275 OA
ATOM     31  H   UNL     1       1.134   1.716   3.419  0.00  0.00    +0.149 HD
BRANCH  28  33
ATOM     32  C   UNL     1      -1.440   2.303   1.977  0.00  0.00    +0.028 C 
ATOM     33  C   UNL     1       0.008   1.947   1.634  0.00  0.00    +0.070 C 
BRANCH  33  34
ATOM     34  C   UNL     1       0.796   3.230   1.360  0.00  0.00    +0.022 C 
BRANCH  34  35
ATOM     35  C   UNL     1       2.209   2.870   0.896  0.00  0.00    +0.005 C 
BRANCH  35  36
ATOM     36  C   UNL     1       2.997   4.153   0.622  0.00  0.00    +0.034 C 
BRANCH  36  37
ATOM     37  C   UNL     1       4.410   3.793   0.158  0.00  0.00    +0.061 C 
ATOM     38  C   UNL     1       5.237   5.072   0.004  0.00  0.00    +0.041 C 
ATOM     39  C   UNL     1       5.071   2.881   1.193  0.00  0.00    +0.041 C 
BRANCH  37  40
ATOM     40  O   UNL     1       4.341   3.117  -1.099  0.00  0.00    -0.389 OA
ATOM     41  H   UNL     1       3.933   3.638  -1.804  0.00  0.00    +0.210 HD
ENDBRANCH  37  40
ENDBRANCH  36  37
ENDBRANCH  35  36
ENDBRANCH  34  35
ENDBRANCH  33  34
ENDBRANCH  28  33
ENDBRANCH   1  29
TORSDOF 10
