REMARK  Name = ZINC12729571
REMARK  9 active torsions:
REMARK  status: ('A' for Active; 'I' for Inactive)
REMARK    1  A    between atoms: C_1  and  C_2
REMARK    2  A    between atoms: C_2  and  N_3
REMARK    3  A    between atoms: N_3  and  C_4
REMARK    4  A    between atoms: C_4  and  C_5
REMARK    5  A    between atoms: N_7  and  C_8
REMARK    6  A    between atoms: C_13  and  C_14
REMARK    7  A    between atoms: N_20  and  C_21
REMARK    8  A    between atoms: C_21  and  C_23
REMARK    9  A    between atoms: C_21  and  C_24
REMARK                            x       y       z     vdW  Elec       q    Type
REMARK                         _______ _______ _______ _____ _____    ______ ____
ROOT
ATOM      1  N   UNL     1      -6.555  -0.213  -2.235  0.00  0.00    -0.277 N 
ATOM      2  C   UNL     1      -5.660  -0.824  -1.433  0.00  0.00    +0.303 C 
ATOM      3  O   UNL     1      -5.756  -2.016  -1.213  0.00  0.00    -0.253 OA
ATOM      4  N   UNL     1      -4.660  -0.114  -0.875  0.00  0.00    -0.293 N 
ATOM      5  H   UNL     1      -4.583   0.837  -1.051  0.00  0.00    +0.151 HD
ENDROOT
BRANCH   1   7
ATOM      6  C   UNL     1      -5.565   1.445  -3.736  0.00  0.00    +0.024 C 
ATOM      7  C   UNL     1      -6.439   1.223  -2.501  0.00  0.00    +0.106 C 
ENDBRANCH   1   7
BRANCH   4   8
ATOM      8  C   UNL     1      -3.688  -0.778  -0.004  0.00  0.00    +0.102 C 
ATOM      9  C   UNL     1      -4.240  -0.841   1.421  0.00  0.00    +0.033 C 
BRANCH   8  10
ATOM     10  C   UNL     1      -2.396  -0.001  -0.008  0.00  0.00    -0.024 A 
ATOM     11  C   UNL     1      -2.422   1.381   0.007  0.00  0.00    +0.009 A 
ATOM     12  C   UNL     1      -1.240   2.097  -0.002  0.00  0.00    +0.050 A 
ATOM     13  C   UNL     1      -0.024   1.430  -0.018  0.00  0.00    +0.162 A 
ATOM     14  C   UNL     1       0.002   0.041  -0.031  0.00  0.00    +0.162 A 
ATOM     15  C   UNL     1      -1.188  -0.672  -0.027  0.00  0.00    +0.055 A 
ATOM     16  O   UNL     1       1.184  -0.634  -0.047  0.00  0.00    -0.485 OA
ATOM     17  C   UNL     1       2.345   0.112  -0.429  0.00  0.00    +0.270 C 
ATOM     18  C   UNL     1       2.329   1.447   0.327  0.00  0.00    +0.270 C 
ATOM     19  O   UNL     1       1.132   2.149  -0.028  0.00  0.00    -0.485 OA
ENDBRANCH   8  10
ENDBRANCH   4   8
BRANCH   1  20
ATOM     20  C   UNL     1      -7.643  -0.985  -2.841  0.00  0.00    +0.205 C 
BRANCH  20  21
ATOM     21  C   UNL     1      -8.838  -0.975  -1.923  0.00  0.00    +0.235 C 
ATOM     22  O   UNL     1      -8.786  -0.382  -0.866  0.00  0.00    -0.274 OA
ATOM     23  N   UNL     1      -9.964  -1.625  -2.276  0.00  0.00    -0.284 N 
ATOM     24  H   UNL     1     -10.029  -2.045  -3.148  0.00  0.00    +0.155 HD
BRANCH  23  25
ATOM     25  C   UNL     1     -11.040  -1.696  -1.384  0.00  0.00    +0.045 A 
ATOM     26  C   UNL     1     -11.314  -0.629  -0.538  0.00  0.00    +0.024 A 
ATOM     27  C   UNL     1     -12.379  -0.701   0.338  0.00  0.00    +0.002 A 
ATOM     28  C   UNL     1     -13.167  -1.837   0.380  0.00  0.00    +0.001 A 
ATOM     29  C   UNL     1     -12.893  -2.902  -0.457  0.00  0.00    +0.014 A 
ATOM     30  C   UNL     1     -11.832  -2.836  -1.338  0.00  0.00    +0.076 A 
BRANCH  30  31
ATOM     31  C   UNL     1     -11.534  -3.998  -2.250  0.00  0.00    +0.419 C 
ATOM     32  F   UNL     1     -12.462  -5.020  -2.021  0.00  0.00    -0.166 F 
ATOM     33  F   UNL     1     -11.620  -3.580  -3.582  0.00  0.00    -0.166 F 
ATOM     34  F   UNL     1     -10.244  -4.474  -1.992  0.00  0.00    -0.166 F 
ENDBRANCH  30  31
ENDBRANCH  23  25
ENDBRANCH  20  21
ENDBRANCH   1  20
TORSDOF 7
