REMARK  Name = ZINC36660416
REMARK  12 active torsions:
REMARK  status: ('A' for Active; 'I' for Inactive)
REMARK    1  A    between atoms: C_1  and  N_2
REMARK    2  A    between atoms: N_2  and  C_3
REMARK    3  A    between atoms: N_2  and  C_4
REMARK    4  A    between atoms: C_4  and  C_5
REMARK    5  A    between atoms: C_5  and  N_6
REMARK    6  A    between atoms: C_10  and  O_16
REMARK    7  A    between atoms: O_16  and  C_17
REMARK    8  A    between atoms: C_18  and  C_20
REMARK    9  A    between atoms: N_25  and  S_26
REMARK   10  A    between atoms: S_26  and  C_29
REMARK   11  A    between atoms: C_32  and  O_35
REMARK   12  A    between atoms: O_35  and  C_36
REMARK                            x       y       z     vdW  Elec       q    Type
REMARK                         _______ _______ _______ _____ _____    ______ ____
ROOT
ATOM      1  N   UNL     1       0.061  -0.795   3.329  0.00  0.00    -0.251 N 
ATOM      2  C   UNL     1       1.017   0.131   3.716  0.00  0.00    +0.168 A 
ATOM      3  N   UNL     1       1.770   0.137   4.790  0.00  0.00    -0.221 NA
ATOM      4  C   UNL     1       2.670   1.113   5.041  0.00  0.00    +0.122 A 
ATOM      5  C   UNL     1       3.538   1.238   6.155  0.00  0.00    +0.146 A 
ATOM      6  C   UNL     1       4.399   2.306   6.257  0.00  0.00    +0.048 A 
ATOM      7  C   UNL     1       4.449   3.290   5.280  0.00  0.00    +0.005 A 
ATOM      8  C   UNL     1       3.615   3.197   4.181  0.00  0.00    +0.017 A 
ATOM      9  C   UNL     1       2.751   2.135   4.070  0.00  0.00    +0.044 A 
ATOM     10  S   UNL     1       1.544   1.617   2.874  0.00  0.00    -0.052 S 
ATOM     11  C   UNL     1      -0.197  -1.864   4.109  0.00  0.00    +0.240 C 
ATOM     12  O   UNL     1       0.338  -1.966   5.193  0.00  0.00    -0.273 OA
ENDROOT
BRANCH  11  13
ATOM     13  C   UNL     1      -1.149  -2.931   3.634  0.00  0.00    +0.166 C 
ATOM     14  C   UNL     1      -2.583  -2.597   4.095  0.00  0.00    +0.031 C 
ATOM     15  C   UNL     1      -3.161  -3.988   4.468  0.00  0.00    +0.019 C 
ATOM     16  C   UNL     1      -1.915  -4.694   5.059  0.00  0.00    +0.110 C 
ATOM     17  N   UNL     1      -0.786  -4.225   4.229  0.00  0.00    -0.165 NA
BRANCH  17  18
ATOM     18  S   UNL     1       0.648  -5.022   4.006  0.00  0.00    +0.062 S 
ATOM     19  O   UNL     1       0.363  -6.410   4.115  0.00  0.00    -0.153 OA
ATOM     20  O   UNL     1       1.252  -4.456   2.851  0.00  0.00    -0.153 OA
BRANCH  18  21
ATOM     21  C   UNL     1       1.689  -4.614   5.369  0.00  0.00    +0.106 A 
ATOM     22  C   UNL     1       2.604  -3.584   5.253  0.00  0.00    +0.032 A 
ATOM     23  C   UNL     1       3.421  -3.262   6.320  0.00  0.00    +0.047 A 
ATOM     24  C   UNL     1       3.322  -3.973   7.507  0.00  0.00    +0.120 A 
ATOM     25  C   UNL     1       2.402  -5.005   7.620  0.00  0.00    +0.047 A 
ATOM     26  C   UNL     1       1.584  -5.320   6.553  0.00  0.00    +0.032 A 
BRANCH  24  27
ATOM     27  O   UNL     1       4.125  -3.658   8.558  0.00  0.00    -0.495 OA
ATOM     28  C   UNL     1       3.968  -4.432   9.749  0.00  0.00    +0.277 C 
ENDBRANCH  24  27
ENDBRANCH  18  21
ENDBRANCH  17  18
ENDBRANCH  11  13
BRANCH   5  29
ATOM     29  O   UNL     1       3.519   0.294   7.133  0.00  0.00    -0.493 OA
ATOM     30  C   UNL     1       4.418   0.476   8.229  0.00  0.00    +0.277 C 
ENDBRANCH   5  29
BRANCH   1  31
ATOM     31  C   UNL     1      -0.670  -0.612   2.072  0.00  0.00    +0.097 C 
BRANCH  31  32
ATOM     32  C   UNL     1       0.122  -1.245   0.926  0.00  0.00    -0.060 C 
BRANCH  32  34
ATOM     33  C   UNL     1      -0.683   0.370  -0.655  0.00  0.00    -0.097 C 
ATOM     34  N   UNL     1      -0.611  -1.061  -0.334  0.00  0.00    +0.377 N 
ATOM     35  C   UNL     1       0.088  -1.770  -1.415  0.00  0.00    -0.097 C 
ATOM     36  H   UNL     1      -1.544  -1.432  -0.238  0.00  0.00    -0.083 HD
ENDBRANCH  32  34
ENDBRANCH  31  32
ENDBRANCH   1  31
TORSDOF 8
