REMARK  Name = ZINC64057296
REMARK  6 active torsions:
REMARK  status: ('A' for Active; 'I' for Inactive)
REMARK    1  A    between atoms: C_10  and  N_12
REMARK    2  A    between atoms: C_13  and  C_15
REMARK    3  A    between atoms: C_15  and  C_17
REMARK    4  A    between atoms: C_15  and  N_27
REMARK    5  A    between atoms: C_17  and  C_18
REMARK    6  A    between atoms: C_28  and  C_30
REMARK                            x       y       z     vdW  Elec       q    Type
REMARK                         _______ _______ _______ _____ _____    ______ ____
ROOT
ATOM      1  C   UNL     1       6.269   1.814   1.377  0.00  0.00    +0.163 C 
ENDROOT
BRANCH   1   3
ATOM      2  N   UNL     1       4.649   0.018   0.860  0.00  0.00    -0.307 N 
ATOM      3  C   UNL     1       5.330   1.101   0.438  0.00  0.00    +0.234 C 
ATOM      4  O   UNL     1       5.189   1.502  -0.698  0.00  0.00    -0.274 OA
ATOM      5  H   UNL     1       4.762  -0.302   1.769  0.00  0.00    +0.149 HD
BRANCH   2  15
ATOM      6  C   UNL     1      -0.017   1.375   0.010  0.00  0.00    +0.000 A 
ATOM      7  C   UNL     1       1.174   2.078   0.002  0.00  0.00    +0.000 A 
ATOM      8  C   UNL     1       2.372   1.395  -0.016  0.00  0.00    +0.006 A 
ATOM      9  C   UNL     1       2.393   0.006  -0.025  0.00  0.00    -0.024 A 
ATOM     10  C   UNL     1       1.208  -0.694  -0.013  0.00  0.00    -0.042 A 
ATOM     11  C   UNL     1       0.002  -0.004   0.002  0.00  0.00    +0.004 A 
ATOM     12  C   UNL     1       1.155  -2.199  -0.005  0.00  0.00    +0.035 C 
ATOM     13  C   UNL     1       2.493  -2.786  -0.452  0.00  0.00    +0.007 C 
ATOM     14  C   UNL     1       3.607  -2.135   0.376  0.00  0.00    +0.027 C 
ATOM     15  C   UNL     1       3.736  -0.675  -0.053  0.00  0.00    +0.103 C 
ENDBRANCH   2  15
ENDBRANCH   1   3
BRANCH   1  16
ATOM     16  N   UNL     1       7.219   2.617   0.603  0.00  0.00    -0.300 N 
ATOM     17  C   UNL     1       6.770   3.592  -0.211  0.00  0.00    +0.246 C 
ATOM     18  O   UNL     1       5.577   3.806  -0.303  0.00  0.00    -0.270 OA
ATOM     19  H   UNL     1       8.171   2.446   0.676  0.00  0.00    +0.150 HD
BRANCH  17  20
ATOM     20  C   UNL     1       7.728   4.402  -0.993  0.00  0.00    +0.055 A 
ATOM     21  C   UNL     1       9.099   4.155  -0.894  0.00  0.00    +0.014 A 
ATOM     22  C   UNL     1       9.988   4.914  -1.626  0.00  0.00    +0.001 A 
ATOM     23  C   UNL     1       9.524   5.919  -2.457  0.00  0.00    +0.001 A 
ATOM     24  C   UNL     1       8.169   6.170  -2.560  0.00  0.00    +0.021 A 
ATOM     25  C   UNL     1       7.266   5.414  -1.838  0.00  0.00    +0.053 A 
ATOM     26 CL   UNL     1       5.564   5.725  -1.974  0.00  0.00    -0.083 Cl
ENDBRANCH  17  20
ENDBRANCH   1  16
BRANCH   1  27
ATOM     27  C   UNL     1       5.465   2.729   2.304  0.00  0.00    +0.065 C 
BRANCH  27  28
ATOM     28  C   UNL     1       6.387   3.348   3.323  0.00  0.00    -0.039 C 
ATOM     29  C   UNL     1       6.985   4.559   3.249  0.00  0.00    -0.001 A 
ATOM     30  C   UNL     1       6.958   5.621   2.236  0.00  0.00    +0.010 A 
ATOM     31  C   UNL     1       7.677   6.747   2.447  0.00  0.00    +0.001 A 
ATOM     32  C   UNL     1       8.447   6.924   3.604  0.00  0.00    +0.002 A 
ATOM     33  C   UNL     1       8.522   5.993   4.579  0.00  0.00    +0.026 A 
ATOM     34  C   UNL     1       7.805   4.770   4.463  0.00  0.00    +0.043 A 
ATOM     35  N   UNL     1       7.718   3.731   5.256  0.00  0.00    -0.380 N 
ATOM     36  C   UNL     1       6.827   2.743   4.638  0.00  0.00    +0.144 C 
ATOM     37  H   UNL     1       8.165   3.632   6.112  0.00  0.00    +0.160 HD
ENDBRANCH  27  28
ENDBRANCH   1  27
TORSDOF 6
