REMARK  Name = ZINC38627030
REMARK  7 active torsions:
REMARK  status: ('A' for Active; 'I' for Inactive)
REMARK    1  A    between atoms: C_1  and  C_2
REMARK    2  A    between atoms: C_2  and  O_3
REMARK    3  A    between atoms: O_3  and  C_4
REMARK    4  A    between atoms: C_4  and  C_6
REMARK    5  A    between atoms: C_8  and  N_17
REMARK    6  A    between atoms: C_18  and  C_20
REMARK    7  A    between atoms: C_20  and  N_21
REMARK                            x       y       z     vdW  Elec       q    Type
REMARK                         _______ _______ _______ _____ _____    ______ ____
ROOT
ATOM      1  C   UNL     1       1.466  -2.379  -2.338  0.00  0.00    +0.234 C 
ATOM      2  C   UNL     1       2.968  -2.213  -2.421  0.00  0.00    +0.053 C 
ATOM      3  C   UNL     1       3.471  -3.476  -2.684  0.00  0.00    +0.019 A 
ATOM      4  C   UNL     1       4.789  -3.959  -2.869  0.00  0.00    +0.026 A 
ATOM      5  C   UNL     1       4.993  -5.276  -3.119  0.00  0.00    +0.019 A 
ATOM      6  C   UNL     1       3.929  -6.180  -3.200  0.00  0.00    +0.017 A 
ATOM      7  C   UNL     1       2.643  -5.788  -3.034  0.00  0.00    +0.027 A 
ATOM      8  C   UNL     1       2.348  -4.425  -2.769  0.00  0.00    +0.045 A 
ATOM      9  N   UNL     1       1.202  -3.802  -2.573  0.00  0.00    -0.367 N 
ATOM     10 BR   UNL     1       6.759  -5.906  -3.364  0.00  0.00    -0.050 Br
ATOM     11  H   UNL     1       0.326  -4.218  -2.582  0.00  0.00    +0.161 HD
ENDROOT
BRANCH   2  12
ATOM     12  N   UNL     1       3.677  -1.060  -2.269  0.00  0.00    -0.285 N 
ATOM     13  C   UNL     1       3.032   0.117  -2.151  0.00  0.00    +0.234 C 
ATOM     14  O   UNL     1       1.823   0.141  -2.075  0.00  0.00    -0.274 OA
ATOM     15  H   UNL     1       4.647  -1.087  -2.246  0.00  0.00    +0.155 HD
BRANCH  13  16
ATOM     16  C   UNL     1       3.815   1.405  -2.114  0.00  0.00    +0.199 C 
BRANCH  16  17
ATOM     17  N   UNL     1       2.891   2.534  -1.982  0.00  0.00    -0.315 N 
ATOM     18  C   UNL     1       3.383   3.829  -1.927  0.00  0.00    +0.158 A 
ATOM     19  N   UNL     1       4.635   4.231  -1.983  0.00  0.00    -0.233 NA
ATOM     20  C   UNL     1       4.942   5.515  -1.916  0.00  0.00    +0.120 A 
ATOM     21  C   UNL     1       3.914   6.388  -1.788  0.00  0.00    +0.068 A 
ATOM     22  S   UNL     1       2.524   5.269  -1.778  0.00  0.00    -0.061 S 
ATOM     23  H   UNL     1       1.935   2.376  -1.934  0.00  0.00    +0.148 HD
ENDBRANCH  16  17
ENDBRANCH  13  16
ENDBRANCH   2  12
BRANCH   1  24
ATOM     24  C   UNL     1       0.975  -1.978  -0.971  0.00  0.00    +0.336 C 
ATOM     25  O   UNL     1       1.151  -2.711  -0.027  0.00  0.00    -0.248 OA
BRANCH  24  26
ATOM     26  O   UNL     1       0.341  -0.807  -0.803  0.00  0.00    -0.463 OA
BRANCH  26  28
ATOM     27  C   UNL     1      -0.794   0.871   0.515  0.00  0.00    +0.048 C 
ATOM     28  C   UNL     1      -0.099  -0.492   0.520  0.00  0.00    +0.229 C 
ENDBRANCH  26  28
ENDBRANCH  24  26
ENDBRANCH   1  24
TORSDOF 6
