REMARK  Name = ZINC14547888
REMARK  4 active torsions:
REMARK  status: ('A' for Active; 'I' for Inactive)
REMARK    1  A    between atoms: C_1  and  C_2
REMARK    2  A    between atoms: C_5  and  O_29
REMARK    3  A    between atoms: C_15  and  C_18
REMARK    4  A    between atoms: C_27  and  O_28
REMARK                            x       y       z     vdW  Elec       q    Type
REMARK                         _______ _______ _______ _____ _____    ______ ____
ROOT
ATOM      1  C   UNL     1       6.621   0.806  -2.826  0.00  0.00    +0.044 C 
ATOM      2  C   UNL     1       6.366   0.451  -1.384  0.00  0.00    -0.045 A 
ATOM      3  C   UNL     1       7.381   0.585  -0.459  0.00  0.00    +0.007 A 
ATOM      4  C   UNL     1       7.158   0.261   0.866  0.00  0.00    +0.047 A 
ATOM      5  C   UNL     1       5.913  -0.197   1.260  0.00  0.00    +0.138 A 
ATOM      6  C   UNL     1       4.884  -0.335   0.323  0.00  0.00    +0.074 A 
ATOM      7  C   UNL     1       5.112  -0.008  -1.001  0.00  0.00    -0.013 A 
ATOM      8  C   UNL     1       4.052  -0.123  -2.057  0.00  0.00    +0.049 C 
ATOM      9  C   UNL     1       3.567   1.246  -2.477  0.00  0.00    -0.023 C 
ATOM     10  C   UNL     1       2.272   1.231  -2.673  0.00  0.00    -0.030 C 
ATOM     11  C   UNL     1       1.710  -0.154  -2.417  0.00  0.00    +0.033 C 
ATOM     12  C   UNL     1       2.787  -0.822  -1.516  0.00  0.00    +0.029 C 
ATOM     13  C   UNL     1       2.542  -0.359  -0.077  0.00  0.00    +0.109 C 
ATOM     14  N   UNL     1       3.647  -0.805   0.772  0.00  0.00    -0.334 N 
ATOM     15  H   UNL     1       3.653  -1.810   0.860  0.00  0.00    +0.147 HD
ENDROOT
BRANCH  13  16
ATOM     16  C   UNL     1       2.457   1.145  -0.041  0.00  0.00    +0.022 A 
ATOM     17  C   UNL     1       3.331   1.883   0.773  0.00  0.00    -0.009 A 
ATOM     18  C   UNL     1       4.299   1.246   1.569  0.00  0.00    +0.009 A 
ATOM     19  C   UNL     1       5.126   1.992   2.351  0.00  0.00    +0.001 A 
ATOM     20  C   UNL     1       5.036   3.383   2.367  0.00  0.00    +0.001 A 
ATOM     21  C   UNL     1       4.111   4.034   1.610  0.00  0.00    +0.008 A 
ATOM     22  C   UNL     1       3.236   3.297   0.794  0.00  0.00    -0.017 A 
ATOM     23  C   UNL     1       2.268   3.937   0.000  0.00  0.00    +0.012 A 
ATOM     24  C   UNL     1       1.436   3.194  -0.777  0.00  0.00    +0.046 A 
ATOM     25  C   UNL     1       1.528   1.798  -0.800  0.00  0.00    +0.122 A 
BRANCH  25  26
ATOM     26  O   UNL     1       0.683   1.083  -1.588  0.00  0.00    -0.506 OA
ATOM     27  H   UNL     1      -0.180   0.914  -1.186  0.00  0.00    +0.292 HD
ENDBRANCH  25  26
ENDBRANCH  13  16
BRANCH   5  28
ATOM     28  O   UNL     1       5.690  -0.516   2.563  0.00  0.00    -0.505 OA
ATOM     29  H   UNL     1       5.881  -1.438   2.781  0.00  0.00    +0.292 HD
ENDBRANCH   5  28
TORSDOF 3
