REMARK  Name = ZINC37902335
REMARK  4 active torsions:
REMARK  status: ('A' for Active; 'I' for Inactive)
REMARK    1  A    between atoms: C_3  and  O_9
REMARK    2  A    between atoms: O_9  and  C_10
REMARK    3  A    between atoms: C_11  and  C_18
REMARK    4  A    between atoms: C_18  and  O_19
REMARK                            x       y       z     vdW  Elec       q    Type
REMARK                         _______ _______ _______ _____ _____    ______ ____
ROOT
ATOM      1  C   UNL     1       3.484   3.463  -0.118  0.00  0.00    +0.245 A 
ATOM      2  C   UNL     1       4.536   4.297  -0.241  0.00  0.00    +0.113 A 
ATOM      3  N   UNL     1       4.037   5.599  -0.309  0.00  0.00    -0.292 N 
ATOM      4  C   UNL     1       4.526   6.882  -0.433  0.00  0.00    +0.101 A 
ATOM      5  C   UNL     1       3.700   7.926  -0.463  0.00  0.00    +0.067 A 
ATOM      6  S   UNL     1       2.104   7.139  -0.313  0.00  0.00    -0.058 S 
ATOM      7  C   UNL     1       2.678   5.459  -0.221  0.00  0.00    +0.181 A 
ATOM      8  N   UNL     1       2.360   4.200  -0.115  0.00  0.00    -0.186 NA
ENDROOT
BRANCH   1   9
ATOM      9  O   UNL     1       3.548   2.108  -0.021  0.00  0.00    -0.435 OA
BRANCH   9  12
ATOM     10  C   UNL     1       0.007   1.347  -0.368  0.00  0.00    +0.042 A 
ATOM     11  C   UNL     1       1.192   2.058  -0.340  0.00  0.00    +0.050 A 
ATOM     12  C   UNL     1       2.382   1.410  -0.048  0.00  0.00    +0.149 A 
ATOM     13  C   UNL     1       2.382   0.047   0.218  0.00  0.00    +0.086 A 
ATOM     14  C   UNL     1       1.195  -0.661   0.190  0.00  0.00    +0.062 A 
ATOM     15  C   UNL     1       0.007  -0.011  -0.103  0.00  0.00    +0.125 A 
ATOM     16  F   UNL     1      -1.152  -0.705  -0.130  0.00  0.00    -0.205 F 
ATOM     17 CL   UNL     1       3.870  -0.768   0.584  0.00  0.00    -0.080 Cl
ENDBRANCH   9  12
ENDBRANCH   1   9
BRANCH   2  18
ATOM     18  C   UNL     1       5.988   3.896  -0.294  0.00  0.00    +0.215 C 
BRANCH  18  19
ATOM     19  O   UNL     1       6.523   3.869   1.031  0.00  0.00    -0.389 OA
ATOM     20  H   UNL     1       7.456   3.618   1.073  0.00  0.00    +0.210 HD
ENDBRANCH  18  19
ENDBRANCH   2  18
TORSDOF 4
