REMARK  Name = ZINC39021587
REMARK  9 active torsions:
REMARK  status: ('A' for Active; 'I' for Inactive)
REMARK    1  A    between atoms: C_1  and  C_2
REMARK    2  A    between atoms: C_2  and  C_3
REMARK    3  A    between atoms: C_8  and  C_10
REMARK    4  A    between atoms: C_10  and  S_11
REMARK    5  A    between atoms: S_11  and  C_12
REMARK    6  A    between atoms: C_16  and  C_22
REMARK    7  A    between atoms: N_18  and  C_19
REMARK    8  A    between atoms: C_19  and  C_20
REMARK    9  A    between atoms: C_27  and  O_28
REMARK                            x       y       z     vdW  Elec       q    Type
REMARK                         _______ _______ _______ _____ _____    ______ ____
ROOT
ATOM      1  C   UNL     1       4.708  -3.321   8.919  0.00  0.00    +0.078 C 
ATOM      2  N   UNL     1       5.476  -4.477   8.389  0.00  0.00    -0.262 NA
ATOM      3  N   UNL     1       6.777  -4.349   9.064  0.00  0.00    -0.266 NA
ATOM      4  C   UNL     1       7.029  -2.890   9.108  0.00  0.00    +0.053 C 
ATOM      5  N   UNL     1       5.707  -2.232   9.020  0.00  0.00    +0.413 N 
ATOM      6  H   UNL     1       5.581  -4.413   7.387  0.00  0.00    +0.140 HD
ATOM      7  H   UNL     1       6.742  -4.738   9.994  0.00  0.00    +0.139 HD
ATOM      8  H   UNL     1       5.536  -1.680   9.847  0.00  0.00    -0.075 HD
ENDROOT
BRANCH   4   9
ATOM      9  C   UNL     1       7.702  -2.521  10.405  0.00  0.00    -0.005 A 
ATOM     10  C   UNL     1       7.388  -1.331  11.033  0.00  0.00    +0.007 A 
ATOM     11  C   UNL     1       8.006  -0.992  12.223  0.00  0.00    +0.000 A 
ATOM     12  C   UNL     1       8.939  -1.843  12.787  0.00  0.00    +0.004 A 
ATOM     13  C   UNL     1       9.256  -3.034  12.163  0.00  0.00    +0.045 A 
ATOM     14  C   UNL     1       8.633  -3.379  10.972  0.00  0.00    +0.120 A 
BRANCH  14  15
ATOM     15  O   UNL     1       8.940  -4.553  10.359  0.00  0.00    -0.507 OA
ATOM     16  H   UNL     1       9.673  -4.489   9.732  0.00  0.00    +0.292 HD
ENDBRANCH  14  15
ENDBRANCH   4   9
BRANCH   1  17
ATOM     17  S   UNL     1       3.381  -2.860   7.770  0.00  0.00    -0.150 S 
BRANCH  17  18
ATOM     18  C   UNL     1       2.060  -4.052   8.126  0.00  0.00    +0.164 C 
BRANCH  18  24
ATOM     19  C   UNL     1      -3.668  -3.816   5.430  0.00  0.00    +0.103 A 
ATOM     20  N   UNL     1      -2.675  -2.978   5.208  0.00  0.00    -0.145 NA
ATOM     21  N   UNL     1      -1.581  -3.144   5.819  0.00  0.00    -0.126 NA
ATOM     22  C   UNL     1      -1.404  -4.134   6.672  0.00  0.00    +0.188 A 
ATOM     23  N   UNL     1      -0.276  -4.456   7.419  0.00  0.00    -0.263 N 
ATOM     24  C   UNL     1       0.838  -3.703   7.316  0.00  0.00    +0.229 C 
ATOM     25  O   UNL     1       0.856  -2.745   6.573  0.00  0.00    -0.275 OA
ATOM     26  S   UNL     1      -2.904  -4.902   6.627  0.00  0.00    -0.035 S 
ATOM     27  H   UNL     1      -0.290  -5.222   8.013  0.00  0.00    +0.157 HD
BRANCH  19  29
ATOM     28  C   UNL     1      -5.057  -4.704   3.578  0.00  0.00    +0.011 C 
ATOM     29  C   UNL     1      -5.056  -3.846   4.845  0.00  0.00    +0.061 C 
ENDBRANCH  19  29
ENDBRANCH  18  24
ENDBRANCH  17  18
ENDBRANCH   1  17
BRANCH   5  30
ATOM     30  C   UNL     1       5.647  -1.380   7.824  0.00  0.00    -0.045 C 
BRANCH  30  31
ATOM     31  C   UNL     1       6.609  -0.230   7.978  0.00  0.00    -0.053 C 
ATOM     32  C   UNL     1       7.530  -0.020   7.071  0.00  0.00    +0.002 C 
ENDBRANCH  30  31
ENDBRANCH   5  30
TORSDOF 8
