REMARK  Name = ZINC45819764
REMARK  17 active torsions:
REMARK  status: ('A' for Active; 'I' for Inactive)
REMARK    1  A    between atoms: C_1  and  C_2
REMARK    2  A    between atoms: C_2  and  C_3
REMARK    3  A    between atoms: C_3  and  N_4
REMARK    4  A    between atoms: C_8  and  S_27
REMARK    5  A    between atoms: C_12  and  C_13
REMARK    6  A    between atoms: C_13  and  C_14
REMARK    7  A    between atoms: C_14  and  C_15
REMARK    8  A    between atoms: N_17  and  C_18
REMARK    9  A    between atoms: C_18  and  C_19
REMARK   10  A    between atoms: C_19  and  N_20
REMARK   11  A    between atoms: N_20  and  C_21
REMARK   12  A    between atoms: N_20  and  C_24
REMARK   13  A    between atoms: C_21  and  C_22
REMARK   14  A    between atoms: C_21  and  C_23
REMARK   15  A    between atoms: C_24  and  C_25
REMARK   16  A    between atoms: C_24  and  C_26
REMARK   17  A    between atoms: S_27  and  N_30
REMARK                            x       y       z     vdW  Elec       q    Type
REMARK                         _______ _______ _______ _____ _____    ______ ____
ROOT
ATOM      1  N   UNL     1      -7.297   2.824   0.844  0.00  0.00    -0.328 N 
ATOM      2  C   UNL     1      -7.899   2.484  -0.351  0.00  0.00    +0.069 A 
ATOM      3  C   UNL     1      -8.819   3.109  -1.181  0.00  0.00    +0.030 A 
ATOM      4  C   UNL     1      -9.229   2.483  -2.339  0.00  0.00    +0.030 A 
ATOM      5  C   UNL     1      -8.729   1.234  -2.678  0.00  0.00    +0.108 A 
ATOM      6  C   UNL     1      -7.823   0.604  -1.873  0.00  0.00    +0.058 A 
ATOM      7  C   UNL     1      -7.392   1.220  -0.695  0.00  0.00    +0.091 A 
ATOM      8  N   UNL     1      -6.525   0.861   0.286  0.00  0.00    -0.232 NA
ATOM      9  C   UNL     1      -6.465   1.802   1.183  0.00  0.00    +0.111 A 
ENDROOT
BRANCH   5  10
ATOM     10  S   UNL     1      -9.268   0.452  -4.163  0.00  0.00    +0.061 S 
ATOM     11  O   UNL     1      -9.069  -0.943  -3.982  0.00  0.00    -0.153 OA
ATOM     12  O   UNL     1     -10.538   1.007  -4.476  0.00  0.00    -0.153 OA
BRANCH  10  13
ATOM     13  N   UNL     1      -8.234   0.925  -5.368  0.00  0.00    -0.177 NA
ATOM     14  C   UNL     1      -8.401   2.108  -6.224  0.00  0.00    +0.109 C 
ATOM     15  C   UNL     1      -7.215   2.130  -7.212  0.00  0.00    +0.018 C 
ATOM     16  C   UNL     1      -6.752   0.649  -7.230  0.00  0.00    +0.018 C 
ATOM     17  C   UNL     1      -6.992   0.232  -5.755  0.00  0.00    +0.109 C 
ENDBRANCH  10  13
ENDBRANCH   5  10
BRANCH   1  18
ATOM     18  C   UNL     1      -7.509   4.059   1.603  0.00  0.00    +0.123 C 
BRANCH  18  20
ATOM     19  C   UNL     1      -6.731   6.410   1.933  0.00  0.00    +0.005 C 
ATOM     20  C   UNL     1      -6.509   5.120   1.140  0.00  0.00    +0.018 C 
ENDBRANCH  18  20
ENDBRANCH   1  18
BRANCH   9  21
ATOM     21  C   UNL     1      -5.604   1.763   2.419  0.00  0.00    +0.083 C 
BRANCH  21  22
ATOM     22  C   UNL     1      -6.385   1.119   3.566  0.00  0.00    +0.103 C 
BRANCH  22  23
ATOM     23  C   UNL     1      -5.524   1.080   4.801  0.00  0.00    +0.213 C 
ATOM     24  O   UNL     1      -4.396   1.524   4.768  0.00  0.00    -0.276 OA
ATOM     25  N   UNL     1      -6.007   0.552   5.944  0.00  0.00    -0.317 N 
ATOM     26  H   UNL     1      -6.909   0.197   5.970  0.00  0.00    +0.149 HD
BRANCH  25  27
ATOM     27  C   UNL     1      -5.169   0.515   7.145  0.00  0.00    +0.085 C 
BRANCH  27  28
ATOM     28  C   UNL     1      -5.951  -0.130   8.292  0.00  0.00    -0.059 C 
BRANCH  28  29
ATOM     29  N   UNL     1      -5.150  -0.075   9.522  0.00  0.00    +0.384 N 
ATOM     30  H   UNL     1      -4.710   0.830   9.597  0.00  0.00    -0.081 HD
BRANCH  29  31
ATOM     31  C   UNL     1      -6.022  -0.293  10.684  0.00  0.00    -0.074 C 
ATOM     32  C   UNL     1      -5.168  -0.400  11.949  0.00  0.00    -0.014 C 
ATOM     33  C   UNL     1      -6.992   0.882  10.821  0.00  0.00    -0.014 C 
ENDBRANCH  29  31
BRANCH  29  34
ATOM     34  C   UNL     1      -4.118  -1.119   9.481  0.00  0.00    -0.074 C 
ATOM     35  C   UNL     1      -4.757  -2.453   9.090  0.00  0.00    -0.014 C 
ATOM     36  C   UNL     1      -3.052  -0.743   8.450  0.00  0.00    -0.014 C 
ENDBRANCH  29  34
ENDBRANCH  28  29
ENDBRANCH  27  28
ENDBRANCH  25  27
ENDBRANCH  22  23
ENDBRANCH  21  22
ENDBRANCH   9  21
TORSDOF 12
