REMARK  Name = ZINC38705728
REMARK  13 active torsions:
REMARK  status: ('A' for Active; 'I' for Inactive)
REMARK    1  A    between atoms: C_1  and  C_2
REMARK    2  A    between atoms: C_2  and  C_3
REMARK    3  A    between atoms: C_3  and  C_4
REMARK    4  A    between atoms: C_4  and  C_5
REMARK    5  A    between atoms: C_5  and  O_6
REMARK    6  A    between atoms: O_6  and  C_7
REMARK    7  A    between atoms: C_11  and  C_13
REMARK    8  A    between atoms: C_16  and  C_31
REMARK    9  A    between atoms: N_23  and  C_24
REMARK   10  A    between atoms: C_24  and  C_25
REMARK   11  A    between atoms: C_32  and  C_39
REMARK   12  A    between atoms: C_34  and  C_38
REMARK   13  A    between atoms: C_36  and  O_37
REMARK                            x       y       z     vdW  Elec       q    Type
REMARK                         _______ _______ _______ _____ _____    ______ ____
ROOT
ATOM      1  C   UNL     1      -5.542  -7.862   0.127  0.00  0.00    +0.142 C 
ATOM      2  C   UNL     1      -5.605  -8.547   1.465  0.00  0.00    +0.035 A 
ATOM      3  C   UNL     1      -5.001  -8.765   2.708  0.00  0.00    +0.102 A 
ATOM      4  N   UNL     1      -5.781  -9.584   3.387  0.00  0.00    -0.173 NA
ATOM      5  N   UNL     1      -6.817  -9.903   2.696  0.00  0.00    -0.272 N 
ATOM      6  H   UNL     1      -7.526 -10.493   2.996  0.00  0.00    +0.189 HD
ATOM      7  C   UNL     1      -6.772  -9.287   1.478  0.00  0.00    +0.126 A 
ATOM      8  C   UNL     1      -7.457  -9.100   0.194  0.00  0.00    +0.266 C 
ATOM      9  O   UNL     1      -8.514  -9.619  -0.111  0.00  0.00    -0.268 OA
ATOM     10  N   UNL     1      -6.750  -8.274  -0.600  0.00  0.00    -0.281 N 
ENDROOT
BRANCH   3  11
ATOM     11  C   UNL     1      -3.719  -8.184   3.176  0.00  0.00    +0.047 A 
ATOM     12  C   UNL     1      -3.635  -7.599   4.437  0.00  0.00    -0.037 A 
ATOM     13  C   UNL     1      -2.440  -7.059   4.868  0.00  0.00    +0.007 A 
ATOM     14  C   UNL     1      -1.324  -7.097   4.051  0.00  0.00    -0.047 A 
ATOM     15  C   UNL     1      -1.396  -7.675   2.798  0.00  0.00    +0.049 A 
ATOM     16  C   UNL     1      -2.588  -8.226   2.356  0.00  0.00    +0.127 A 
ATOM     17  C   UNL     1      -0.023  -6.505   4.531  0.00  0.00    +0.044 C 
ATOM     18  C   UNL     1      -4.848  -7.555   5.330  0.00  0.00    +0.044 C 
BRANCH  16  19
ATOM     19  O   UNL     1      -2.659  -8.800   1.126  0.00  0.00    -0.506 OA
ATOM     20  H   UNL     1      -2.838  -8.175   0.410  0.00  0.00    +0.292 HD
ENDBRANCH  16  19
ENDBRANCH   3  11
BRANCH   1  25
ATOM     21  C   UNL     1      -4.369  -4.271   0.222  0.00  0.00    +0.121 A 
ATOM     22  C   UNL     1      -5.517  -3.619   0.649  0.00  0.00    +0.045 A 
ATOM     23  C   UNL     1      -6.666  -4.342   0.904  0.00  0.00    +0.004 A 
ATOM     24  C   UNL     1      -6.673  -5.714   0.735  0.00  0.00    +0.006 A 
ATOM     25  C   UNL     1      -5.530  -6.366   0.310  0.00  0.00    -0.019 A 
ATOM     26  C   UNL     1      -4.380  -5.647   0.048  0.00  0.00    +0.051 A 
BRANCH  21  27
ATOM     27  O   UNL     1      -3.237  -3.562  -0.030  0.00  0.00    -0.492 OA
BRANCH  27  28
ATOM     28  C   UNL     1      -3.299  -2.149   0.171  0.00  0.00    +0.229 C 
BRANCH  28  29
ATOM     29  C   UNL     1      -1.941  -1.527  -0.162  0.00  0.00    +0.041 C 
BRANCH  29  30
ATOM     30  C   UNL     1      -2.007  -0.014   0.054  0.00  0.00    +0.003 C 
BRANCH  30  32
ATOM     31  C   UNL     1      -0.715   2.121  -0.064  0.00  0.00    +0.004 C 
ATOM     32  C   UNL     1      -0.649   0.608  -0.279  0.00  0.00    -0.003 C 
ENDBRANCH  30  32
ENDBRANCH  29  30
ENDBRANCH  28  29
ENDBRANCH  27  28
ENDBRANCH  21  27
ENDBRANCH   1  25
BRANCH  10  33
ATOM     33  C   UNL     1      -7.120  -7.856  -1.954  0.00  0.00    +0.145 C 
BRANCH  33  34
ATOM     34  C   UNL     1      -6.546  -8.825  -2.954  0.00  0.00    -0.012 A 
ATOM     35  C   UNL     1      -5.281  -8.620  -3.484  0.00  0.00    +0.008 A 
ATOM     36  C   UNL     1      -4.793  -9.538  -4.401  0.00  0.00    +0.020 A 
ATOM     37  C   UNL     1      -5.578 -10.620  -4.754  0.00  0.00    +0.111 A 
ATOM     38  N   UNL     1      -6.777 -10.783  -4.230  0.00  0.00    -0.263 NA
ATOM     39  C   UNL     1      -7.270  -9.933  -3.350  0.00  0.00    +0.115 A 
ENDBRANCH  33  34
ENDBRANCH  10  33
TORSDOF 10
