REMARK  Name = ZINC41515232
REMARK  10 active torsions:
REMARK  status: ('A' for Active; 'I' for Inactive)
REMARK    1  A    between atoms: C_1  and  C_2
REMARK    2  A    between atoms: C_4  and  O_34
REMARK    3  A    between atoms: C_5  and  C_23
REMARK    4  A    between atoms: C_11  and  C_12
REMARK    5  A    between atoms: C_15  and  C_18
REMARK    6  A    between atoms: C_18  and  O_20
REMARK    7  A    between atoms: O_20  and  C_21
REMARK    8  A    between atoms: C_23  and  N_24
REMARK    9  A    between atoms: C_26  and  C_33
REMARK   10  A    between atoms: C_29  and  C_32
REMARK                            x       y       z     vdW  Elec       q    Type
REMARK                         _______ _______ _______ _____ _____    ______ ____
ROOT
ATOM      1  C   UNL     1       1.081   1.376   0.034  0.00  0.00    +0.045 C 
ATOM      2  C   UNL     1       0.694  -0.081   0.017  0.00  0.00    -0.033 A 
ATOM      3  C   UNL     1       0.574  -0.742  -1.173  0.00  0.00    +0.050 A 
ATOM      4  C   UNL     1       0.216  -2.087  -1.192  0.00  0.00    +0.122 A 
ATOM      5  C   UNL     1      -0.021  -2.770  -0.009  0.00  0.00    +0.020 A 
ATOM      6  C   UNL     1       0.096  -2.113   1.208  0.00  0.00    +0.145 A 
ATOM      7  C   UNL     1       0.463  -0.757   1.215  0.00  0.00    +0.071 A 
ATOM      8  C   UNL     1       0.512  -0.346   2.630  0.00  0.00    +0.232 C 
ATOM      9  O   UNL     1       0.785   0.753   3.078  0.00  0.00    -0.283 OA
ATOM     10  C   UNL     1       0.156  -1.565   3.380  0.00  0.00    +0.176 C 
ATOM     11  C   UNL     1       0.068  -1.679   4.728  0.00  0.00    +0.058 C 
ATOM     12  O   UNL     1      -0.080  -2.544   2.477  0.00  0.00    -0.451 OA
ENDROOT
BRANCH  11  13
ATOM     13  C   UNL     1       0.170  -0.482   5.575  0.00  0.00    -0.021 A 
ATOM     14  C   UNL     1      -0.452   0.709   5.182  0.00  0.00    +0.009 A 
ATOM     15  C   UNL     1      -0.356   1.824   5.974  0.00  0.00    +0.015 A 
ATOM     16  C   UNL     1       0.361   1.772   7.172  0.00  0.00    +0.059 A 
ATOM     17  C   UNL     1       0.982   0.584   7.565  0.00  0.00    +0.015 A 
ATOM     18  C   UNL     1       0.884  -0.535   6.778  0.00  0.00    +0.009 A 
BRANCH  16  19
ATOM     19  C   UNL     1       0.464   2.975   8.023  0.00  0.00    +0.339 C 
ATOM     20  O   UNL     1      -0.075   4.009   7.682  0.00  0.00    -0.245 OA
BRANCH  19  21
ATOM     21  O   UNL     1       1.156   2.926   9.178  0.00  0.00    -0.464 OA
ATOM     22  C   UNL     1       1.214   4.126   9.952  0.00  0.00    +0.280 C 
ENDBRANCH  19  21
ENDBRANCH  16  19
ENDBRANCH  11  13
BRANCH   4  23
ATOM     23  O   UNL     1       0.099  -2.736  -2.378  0.00  0.00    -0.506 OA
ATOM     24  H   UNL     1       0.918  -3.151  -2.682  0.00  0.00    +0.292 HD
ENDBRANCH   4  23
BRANCH   5  25
ATOM     25  C   UNL     1      -0.408  -4.226  -0.044  0.00  0.00    -0.036 C 
BRANCH  25  26
ATOM     26  N   UNL     1       0.803  -5.056   0.007  0.00  0.00    +0.383 N 
ATOM     27  C   UNL     1       1.602  -4.828  -1.204  0.00  0.00    -0.075 C 
ATOM     28  C   UNL     1       2.904  -5.628  -1.118  0.00  0.00    -0.031 C 
ATOM     29  C   UNL     1       2.573  -7.119  -0.996  0.00  0.00    +0.003 C 
ATOM     30  C   UNL     1       1.678  -7.334   0.228  0.00  0.00    -0.031 C 
ATOM     31  C   UNL     1       0.422  -6.471   0.093  0.00  0.00    -0.075 C 
ATOM     32  C   UNL     1       1.279  -8.809   0.315  0.00  0.00    +0.005 C 
ATOM     33  C   UNL     1       3.700  -5.178   0.108  0.00  0.00    +0.005 C 
ATOM     34  H   UNL     1       1.347  -4.805   0.819  0.00  0.00    -0.081 HD
ENDBRANCH  25  26
ENDBRANCH   5  25
TORSDOF 6
