REMARK  Name = ZINC34677680
REMARK  17 active torsions:
REMARK  status: ('A' for Active; 'I' for Inactive)
REMARK    1  A    between atoms: C_1  and  C_2
REMARK    2  A    between atoms: C_2  and  N_3
REMARK    3  A    between atoms: N_3  and  C_4
REMARK    4  A    between atoms: C_4  and  C_5
REMARK    5  A    between atoms: C_6  and  C_8
REMARK    6  A    between atoms: C_15  and  C_17
REMARK    7  A    between atoms: C_20  and  C_22
REMARK    8  A    between atoms: C_22  and  N_23
REMARK    9  A    between atoms: N_26  and  C_29
REMARK   10  A    between atoms: C_29  and  C_30
REMARK   11  A    between atoms: C_30  and  C_32
REMARK   12  A    between atoms: C_30  and  O_38
REMARK   13  A    between atoms: C_32  and  O_33
REMARK   14  A    between atoms: O_33  and  C_34
REMARK   15  A    between atoms: C_34  and  C_35
REMARK   16  A    between atoms: C_35  and  C_36
REMARK   17  A    between atoms: C_35  and  C_37
REMARK                            x       y       z     vdW  Elec       q    Type
REMARK                         _______ _______ _______ _____ _____    ______ ____
ROOT
ATOM      1  C   UNL     1      -0.870  -3.019   7.048  0.00  0.00    +0.164 A 
ATOM      2  C   UNL     1      -1.735  -3.284   8.065  0.00  0.00    +0.230 A 
ATOM      3  O   UNL     1      -0.997  -3.691   9.111  0.00  0.00    -0.449 OA
ATOM      4  C   UNL     1       0.292  -3.676   8.744  0.00  0.00    +0.179 A 
ATOM      5  N   UNL     1       0.383  -3.281   7.510  0.00  0.00    -0.210 NA
ENDROOT
BRANCH   1  12
ATOM      6  C   UNL     1       0.399  -0.738   3.136  0.00  0.00    +0.092 C 
ATOM      7  C   UNL     1       1.829  -1.267   3.265  0.00  0.00    +0.016 C 
ATOM      8  C   UNL     1       2.067  -1.754   4.697  0.00  0.00    +0.020 C 
ATOM      9  C   UNL     1       1.098  -2.898   5.011  0.00  0.00    +0.108 C 
ATOM     10  N   UNL     1      -0.274  -2.441   4.749  0.00  0.00    -0.295 N 
ATOM     11  C   UNL     1      -0.589  -1.870   3.433  0.00  0.00    +0.121 C 
ATOM     12  C   UNL     1      -1.224  -2.543   5.699  0.00  0.00    +0.268 C 
ATOM     13  O   UNL     1      -2.375  -2.244   5.442  0.00  0.00    -0.268 OA
BRANCH   6  15
ATOM     14  N   UNL     1      -0.909   0.519   1.455  0.00  0.00    -0.302 N 
ATOM     15  C   UNL     1       0.176  -0.229   1.735  0.00  0.00    +0.220 C 
ATOM     16  O   UNL     1       0.973  -0.493   0.860  0.00  0.00    -0.275 OA
BRANCH  14  18
ATOM     17  C   UNL     1      -0.457   2.387  -0.058  0.00  0.00    +0.024 C 
ATOM     18  C   UNL     1      -1.123   1.018   0.094  0.00  0.00    +0.104 C 
ENDBRANCH  14  18
BRANCH  14  19
ATOM     19  C   UNL     1      -1.875   0.833   2.511  0.00  0.00    +0.104 C 
ATOM     20  C   UNL     1      -3.097  -0.076   2.371  0.00  0.00    +0.024 C 
ENDBRANCH  14  19
ENDBRANCH   6  15
ENDBRANCH   1  12
BRANCH   4  21
ATOM     21  C   UNL     1       1.453  -4.063   9.624  0.00  0.00    +0.019 C 
BRANCH  21  22
ATOM     22  N   UNL     1       1.938  -2.877  10.343  0.00  0.00    +0.387 N 
ATOM     23  C   UNL     1       2.483  -1.910   9.381  0.00  0.00    -0.063 C 
ATOM     24  C   UNL     1       2.971  -0.667  10.128  0.00  0.00    +0.066 C 
ATOM     25  N   UNL     1       4.006  -1.056  11.097  0.00  0.00    -0.303 NA
ATOM     26  C   UNL     1       3.483  -2.043  12.052  0.00  0.00    +0.066 C 
ATOM     27  C   UNL     1       2.990  -3.275  11.289  0.00  0.00    -0.063 C 
ATOM     28  H   UNL     1       1.174  -2.455  10.849  0.00  0.00    -0.081 HD
BRANCH  25  29
ATOM     29  C   UNL     1       4.542   0.120  11.796  0.00  0.00    +0.117 C 
BRANCH  29  30
ATOM     30  C   UNL     1       5.359   0.966  10.818  0.00  0.00    +0.154 C 
BRANCH  30  31
ATOM     31  O   UNL     1       6.438   0.185  10.299  0.00  0.00    -0.388 OA
ATOM     32  H   UNL     1       7.049  -0.140  10.975  0.00  0.00    +0.210 HD
ENDBRANCH  30  31
BRANCH  30  33
ATOM     33  C   UNL     1       5.920   2.189  11.546  0.00  0.00    +0.192 C 
BRANCH  33  34
ATOM     34  O   UNL     1       6.585   3.038  10.609  0.00  0.00    -0.377 OA
BRANCH  34  35
ATOM     35  C   UNL     1       7.147   4.217  11.190  0.00  0.00    +0.163 C 
BRANCH  35  36
ATOM     36  C   UNL     1       7.830   5.046  10.101  0.00  0.00    +0.009 C 
ATOM     37  C   UNL     1       6.779   5.547   9.107  0.00  0.00    +0.009 C 
ATOM     38  C   UNL     1       8.538   6.242  10.740  0.00  0.00    +0.009 C 
ENDBRANCH  35  36
ENDBRANCH  34  35
ENDBRANCH  33  34
ENDBRANCH  30  33
ENDBRANCH  29  30
ENDBRANCH  25  29
ENDBRANCH  21  22
ENDBRANCH   4  21
TORSDOF 13
