REMARK  Name = ZINC63140618
REMARK  9 active torsions:
REMARK  status: ('A' for Active; 'I' for Inactive)
REMARK    1  A    between atoms: C_1  and  C_2
REMARK    2  A    between atoms: C_2  and  O_3
REMARK    3  A    between atoms: O_3  and  C_4
REMARK    4  A    between atoms: C_9  and  C_10
REMARK    5  A    between atoms: N_29  and  C_32
REMARK    6  A    between atoms: C_32  and  C_33
REMARK    7  A    between atoms: C_33  and  C_34
REMARK    8  A    between atoms: C_37  and  O_40
REMARK    9  A    between atoms: O_40  and  C_41
REMARK                            x       y       z     vdW  Elec       q    Type
REMARK                         _______ _______ _______ _____ _____    ______ ____
ROOT
ATOM      1  C   UNL     1      -3.981  -1.497   0.032  0.00  0.00    +0.137 C 
ATOM      2  C   UNL     1      -4.273  -1.083   1.473  0.00  0.00    +0.131 C 
ATOM      3  C   UNL     1      -5.681  -0.492   1.460  0.00  0.00    -0.034 C 
ATOM      4  C   UNL     1      -5.571   0.768   1.858  0.00  0.00    -0.001 A 
ATOM      5  C   UNL     1      -6.578   1.821   2.069  0.00  0.00    +0.010 A 
ATOM      6  C   UNL     1      -6.108   3.026   2.486  0.00  0.00    +0.001 A 
ATOM      7  C   UNL     1      -4.753   3.286   2.711  0.00  0.00    +0.002 A 
ATOM      8  C   UNL     1      -3.759   2.378   2.545  0.00  0.00    +0.026 A 
ATOM      9  C   UNL     1      -4.129   1.072   2.110  0.00  0.00    +0.043 A 
ATOM     10  N   UNL     1      -3.382   0.010   1.885  0.00  0.00    -0.375 N 
ATOM     11  C   UNL     1      -6.865  -1.309   1.021  0.00  0.00    +0.065 C 
ATOM     12  C   UNL     1      -6.496  -2.139  -0.181  0.00  0.00    +0.167 C 
ATOM     13  N   UNL     1      -5.104  -2.202  -0.569  0.00  0.00    -0.279 N 
ATOM     14  C   UNL     1      -4.835  -2.985  -1.665  0.00  0.00    +0.234 C 
ATOM     15  O   UNL     1      -3.699  -3.171  -2.049  0.00  0.00    -0.274 OA
ATOM     16  C   UNL     1      -6.022  -3.606  -2.371  0.00  0.00    +0.203 C 
ATOM     17  N   UNL     1      -7.076  -2.583  -2.499  0.00  0.00    -0.291 N 
ATOM     18  C   UNL     1      -7.347  -1.838  -1.389  0.00  0.00    +0.237 C 
ATOM     19  O   UNL     1      -8.216  -0.993  -1.373  0.00  0.00    -0.274 OA
ATOM     20  H   UNL     1      -2.417  -0.049   1.970  0.00  0.00    +0.160 HD
ENDROOT
BRANCH   1  26
ATOM     21  C   UNL     1      -2.879  -3.711   0.449  0.00  0.00    +0.125 A 
ATOM     22  C   UNL     1      -1.765  -4.538   0.428  0.00  0.00    +0.046 A 
ATOM     23  C   UNL     1      -0.553  -4.051  -0.019  0.00  0.00    +0.004 A 
ATOM     24  C   UNL     1      -0.448  -2.740  -0.445  0.00  0.00    +0.001 A 
ATOM     25  C   UNL     1      -1.556  -1.913  -0.425  0.00  0.00    +0.009 A 
ATOM     26  C   UNL     1      -2.772  -2.397   0.016  0.00  0.00    +0.017 A 
BRANCH  21  27
ATOM     27  O   UNL     1      -4.074  -4.188   0.887  0.00  0.00    -0.492 OA
BRANCH  27  29
ATOM     28  C   UNL     1      -5.527  -5.904   1.773  0.00  0.00    +0.048 C 
ATOM     29  C   UNL     1      -4.109  -5.550   1.318  0.00  0.00    +0.225 C 
ENDBRANCH  27  29
ENDBRANCH  21  27
ENDBRANCH   1  26
BRANCH  17  30
ATOM     30  C   UNL     1      -7.796  -2.374  -3.758  0.00  0.00    +0.113 C 
BRANCH  30  31
ATOM     31  C   UNL     1      -9.036  -3.270  -3.791  0.00  0.00    +0.054 C 
BRANCH  31  32
ATOM     32  C   UNL     1      -9.776  -3.055  -5.086  0.00  0.00    -0.046 A 
ATOM     33  C   UNL     1     -10.755  -2.082  -5.168  0.00  0.00    +0.007 A 
ATOM     34  C   UNL     1     -11.435  -1.883  -6.354  0.00  0.00    +0.046 A 
ATOM     35  C   UNL     1     -11.136  -2.661  -7.463  0.00  0.00    +0.120 A 
ATOM     36  C   UNL     1     -10.153  -3.637  -7.378  0.00  0.00    +0.046 A 
ATOM     37  C   UNL     1      -9.472  -3.828  -6.191  0.00  0.00    +0.007 A 
BRANCH  35  38
ATOM     38  O   UNL     1     -11.804  -2.468  -8.630  0.00  0.00    -0.495 OA
ATOM     39  C   UNL     1     -11.443  -3.306  -9.731  0.00  0.00    +0.277 C 
ENDBRANCH  35  38
ENDBRANCH  31  32
ENDBRANCH  30  31
ENDBRANCH  17  30
TORSDOF 7
