REMARK  Name = ZINC16000368
REMARK  4 active torsions:
REMARK  status: ('A' for Active; 'I' for Inactive)
REMARK    1  A    between atoms: C_1  and  C_2
REMARK    2  A    between atoms: C_5  and  N_9
REMARK    3  A    between atoms: C_28  and  C_35
REMARK    4  A    between atoms: C_29  and  C_34
REMARK                            x       y       z     vdW  Elec       q    Type
REMARK                         _______ _______ _______ _____ _____    ______ ____
ROOT
ATOM      1  N   UNL     1       3.042   3.124  -2.289  0.00  0.00    -0.209 N 
ATOM      2  C   UNL     1       3.527   4.085  -1.494  0.00  0.00    +0.228 C 
ATOM      3  O   UNL     1       4.693   4.407  -1.416  0.00  0.00    -0.275 OA
ATOM      4  C   UNL     1       2.383   4.719  -0.705  0.00  0.00    +0.074 C 
ATOM      5  C   UNL     1       2.525   4.359   0.785  0.00  0.00    -0.054 C 
ATOM      6  C   UNL     1       2.766   5.649   1.599  0.00  0.00    -0.016 C 
ATOM      7  C   UNL     1       1.342   6.279   1.681  0.00  0.00    -0.020 C 
ATOM      8  C   UNL     1       0.366   5.117   1.428  0.00  0.00    -0.076 C 
ATOM      9  N   UNL     1       1.168   3.898   1.207  0.00  0.00    +0.395 N 
ATOM     10  C   UNL     1       0.654   3.162   0.038  0.00  0.00    +0.053 C 
ATOM     11  C   UNL     1       1.145   3.921  -1.199  0.00  0.00    +0.089 C 
ATOM     12  C   UNL     1       1.718   2.947  -2.203  0.00  0.00    +0.229 C 
ATOM     13  O   UNL     1       1.078   2.132  -2.833  0.00  0.00    -0.275 OA
ATOM     14  C   UNL     1      -0.846   3.067   0.066  0.00  0.00    -0.027 A 
ATOM     15  C   UNL     1      -1.854   4.005   0.078  0.00  0.00    +0.005 A 
ATOM     16  C   UNL     1      -3.176   3.599   0.106  0.00  0.00    +0.004 A 
ATOM     17  C   UNL     1      -3.482   2.250   0.121  0.00  0.00    -0.046 A 
ATOM     18  C   UNL     1      -2.475   1.307   0.107  0.00  0.00    -0.026 A 
ATOM     19  C   UNL     1      -1.141   1.707   0.073  0.00  0.00    +0.039 A 
ATOM     20  N   UNL     1       0.036   0.957   0.061  0.00  0.00    -0.286 N 
ATOM     21  C   UNL     1       1.135   1.736   0.035  0.00  0.00    +0.212 C 
ATOM     22  O   UNL     1       2.288   1.360   0.013  0.00  0.00    -0.277 OA
ATOM     23  C   UNL     1      -2.820  -0.160   0.124  0.00  0.00    +0.046 C 
ATOM     24  C   UNL     1      -4.923   1.808   0.152  0.00  0.00    +0.044 C 
ATOM     25  H   UNL     1      -0.012  -0.142   0.072  0.00  0.00    +0.155 HD
ATOM     26  H   UNL     1       1.141   3.275   2.112  0.00  0.00    -0.079 HD
ENDROOT
BRANCH   1  31
ATOM     27  C   UNL     1       6.334   0.049  -5.743  0.00  0.00    +0.044 C 
ATOM     28  C   UNL     1       5.459   0.865  -4.827  0.00  0.00    -0.049 A 
ATOM     29  C   UNL     1       5.285   0.475  -3.511  0.00  0.00    +0.005 A 
ATOM     30  C   UNL     1       4.489   1.224  -2.667  0.00  0.00    +0.025 A 
ATOM     31  C   UNL     1       3.855   2.364  -3.143  0.00  0.00    +0.058 A 
ATOM     32  C   UNL     1       4.032   2.753  -4.464  0.00  0.00    +0.040 A 
ATOM     33  C   UNL     1       4.834   2.002  -5.303  0.00  0.00    +0.020 A 
ATOM     34 BR   UNL     1       3.175   4.309  -5.116  0.00  0.00    -0.048 Br
ENDBRANCH   1  31
TORSDOF 1
