REMARK  Name = ZINC05615652
REMARK  6 active torsions:
REMARK  status: ('A' for Active; 'I' for Inactive)
REMARK    1  A    between atoms: C_1  and  C_2
REMARK    2  A    between atoms: C_2  and  O_3
REMARK    3  A    between atoms: O_3  and  C_4
REMARK    4  A    between atoms: C_4  and  C_6
REMARK    5  A    between atoms: C_10  and  N_11
REMARK    6  A    between atoms: C_12  and  C_14
REMARK                            x       y       z     vdW  Elec       q    Type
REMARK                         _______ _______ _______ _____ _____    ______ ____
ROOT
ATOM      1  C   UNL     1       2.230   0.806  -0.015  0.00  0.00    +0.091 A 
ATOM      2  C   UNL     1       1.307  -0.329  -0.013  0.00  0.00    -0.021 A 
ATOM      3  C   UNL     1       0.002  -0.004   0.002  0.00  0.00    -0.004 A 
ATOM      4  S   UNL     1      -0.022   1.772   0.012  0.00  0.00    -0.077 S 
ATOM      5  C   UNL     1       1.681   2.078  -0.003  0.00  0.00    +0.087 A 
ATOM      6  C   UNL     1      -0.883  -1.221   0.007  0.00  0.00    +0.043 C 
ATOM      7  C   UNL     1       0.050  -2.378   0.429  0.00  0.00    +0.010 C 
ATOM      8  C   UNL     1       1.426  -1.854  -0.025  0.00  0.00    +0.037 C 
ENDROOT
BRANCH   5   9
ATOM      9  N   UNL     1       2.337   3.298  -0.003  0.00  0.00    -0.274 N 
ATOM     10  C   UNL     1       1.627   4.444   0.011  0.00  0.00    +0.270 C 
ATOM     11  O   UNL     1       0.412   4.407   0.022  0.00  0.00    -0.268 OA
ATOM     12  H   UNL     1       3.306   3.328  -0.012  0.00  0.00    +0.156 HD
BRANCH  10  13
ATOM     13  C   UNL     1       2.326   5.745   0.011  0.00  0.00    +0.161 A 
ATOM     14  C   UNL     1       1.721   7.024   0.018  0.00  0.00    +0.067 A 
ATOM     15  C   UNL     1       2.746   7.910   0.019  0.00  0.00    +0.121 A 
ATOM     16  N   UNL     1       3.895   7.190   0.003  0.00  0.00    -0.283 N 
ATOM     17  H   UNL     1       4.816   7.582  -0.004  0.00  0.00    +0.188 HD
ATOM     18  N   UNL     1       3.630   5.933  -0.002  0.00  0.00    -0.168 NA
ATOM     19 BR   UNL     1      -0.129   7.416   0.030  0.00  0.00    -0.046 Br
ENDBRANCH  10  13
ENDBRANCH   5   9
BRANCH   1  20
ATOM     20  C   UNL     1       3.680   0.605  -0.030  0.00  0.00    +0.342 C 
ATOM     21  O   UNL     1       4.272   0.527  -1.090  0.00  0.00    -0.245 OA
BRANCH  20  22
ATOM     22  O   UNL     1       4.359   0.505   1.131  0.00  0.00    -0.461 OA
BRANCH  22  24
ATOM     23  C   UNL     1       6.388   0.218   2.447  0.00  0.00    +0.048 C 
ATOM     24  C   UNL     1       5.795   0.306   1.040  0.00  0.00    +0.229 C 
ENDBRANCH  22  24
ENDBRANCH  20  22
ENDBRANCH   1  20
TORSDOF 5
