REMARK  Name = ZINC43096472
REMARK  7 active torsions:
REMARK  status: ('A' for Active; 'I' for Inactive)
REMARK    1  A    between atoms: C_1  and  C_2
REMARK    2  A    between atoms: C_2  and  C_4
REMARK    3  A    between atoms: C_2  and  N_23
REMARK    4  A    between atoms: C_4  and  C_6
REMARK    5  A    between atoms: C_4  and  S_13
REMARK    6  A    between atoms: S_13  and  C_14
REMARK    7  A    between atoms: C_20  and  N_22
REMARK                            x       y       z     vdW  Elec       q    Type
REMARK                         _______ _______ _______ _____ _____    ______ ____
ROOT
ATOM      1  C   UNL     1       0.654  -0.580   1.261  0.00  0.00    +0.070 C 
ENDROOT
BRANCH   1   2
ATOM      2  C   UNL     1       0.651  -2.056   0.953  0.00  0.00    -0.022 A 
ATOM      3  C   UNL     1       1.735  -2.631   0.317  0.00  0.00    +0.006 A 
ATOM      4  C   UNL     1       1.732  -3.985   0.035  0.00  0.00    +0.000 A 
ATOM      5  C   UNL     1       0.645  -4.763   0.388  0.00  0.00    +0.001 A 
ATOM      6  C   UNL     1      -0.439  -4.188   1.023  0.00  0.00    +0.015 A 
ATOM      7  C   UNL     1      -0.434  -2.834   1.311  0.00  0.00    +0.022 A 
ATOM      8 BR   UNL     1      -1.915  -2.049   2.187  0.00  0.00    -0.050 Br
ENDBRANCH   1   2
BRANCH   1  10
ATOM      9  C   UNL     1       0.721   0.042  -1.158  0.00  0.00    -0.013 C 
ATOM     10  C   UNL     1      -0.070   0.175   0.145  0.00  0.00    -0.060 C 
BRANCH  10  11
ATOM     11  N   UNL     1      -0.182   1.595   0.508  0.00  0.00    +0.381 N 
ATOM     12  H   UNL     1      -0.659   2.093  -0.228  0.00  0.00    -0.090 HD
ATOM     13  H   UNL     1      -0.703   1.682   1.367  0.00  0.00    -0.090 HD
ATOM     14  H   UNL     1       0.741   1.983   0.633  0.00  0.00    -0.090 HD
ENDBRANCH  10  11
ENDBRANCH   1  10
BRANCH   1  15
ATOM     15  S   UNL     1       2.366   0.009   1.378  0.00  0.00    -0.081 S 
BRANCH  15  16
ATOM     16  C   UNL     1       2.987  -0.773   2.830  0.00  0.00    +0.171 A 
ATOM     17  N   UNL     1       4.293  -0.595   3.177  0.00  0.00    -0.302 N 
ATOM     18  H   UNL     1       4.869  -0.043   2.626  0.00  0.00    +0.171 HD
ATOM     19  C   UNL     1       4.785  -1.186   4.285  0.00  0.00    +0.254 A 
ATOM     20  O   UNL     1       5.954  -1.032   4.603  0.00  0.00    -0.268 OA
ATOM     21  C   UNL     1       3.935  -1.977   5.064  0.00  0.00    +0.113 A 
ATOM     22  C   UNL     1       2.613  -2.126   4.667  0.00  0.00    +0.124 A 
ATOM     23  N   UNL     1       2.179  -1.512   3.561  0.00  0.00    -0.209 NA
BRANCH  22  24
ATOM     24  N   UNL     1       1.749  -2.901   5.415  0.00  0.00    -0.343 N 
ATOM     25  H   UNL     1       2.065  -3.342   6.218  0.00  0.00    +0.144 HD
ATOM     26  H   UNL     1       0.826  -3.004   5.136  0.00  0.00    +0.144 HD
ENDBRANCH  22  24
ENDBRANCH  15  16
ENDBRANCH   1  15
TORSDOF 6
