REMARK  Name = ZINC44737454
REMARK  9 active torsions:
REMARK  status: ('A' for Active; 'I' for Inactive)
REMARK    1  A    between atoms: C_1  and  C_2
REMARK    2  A    between atoms: C_9  and  C_11
REMARK    3  A    between atoms: C_11  and  C_13
REMARK    4  A    between atoms: C_11  and  N_14
REMARK    5  A    between atoms: C_15  and  C_17
REMARK    6  A    between atoms: C_28  and  C_30
REMARK    7  A    between atoms: C_31  and  C_41
REMARK    8  A    between atoms: C_34  and  C_35
REMARK    9  A    between atoms: C_37  and  C_40
REMARK                            x       y       z     vdW  Elec       q    Type
REMARK                         _______ _______ _______ _____ _____    ______ ____
ROOT
ATOM      1  C   UNL     1      -1.623  -8.782   1.003  0.00  0.00    +0.100 C 
ATOM      2  C   UNL     1      -0.558  -9.301   0.011  0.00  0.00    +0.121 C 
ATOM      3  N   UNL     1      -0.008 -10.516   0.655  0.00  0.00    -0.296 N 
ATOM      4  C   UNL     1      -1.187 -11.177   1.265  0.00  0.00    +0.115 C 
ATOM      5  C   UNL     1      -2.036 -10.017   1.821  0.00  0.00    -0.004 C 
ATOM      6  C   UNL     1      -1.726  -9.799   3.299  0.00  0.00    -0.010 C 
ATOM      7  C   UNL     1      -2.197 -11.017   4.099  0.00  0.00    -0.082 C 
ATOM      8  N   UNL     1      -3.639 -11.205   3.904  0.00  0.00    +0.379 N 
ATOM      9  C   UNL     1      -3.919 -11.505   2.495  0.00  0.00    -0.082 C 
ATOM     10  C   UNL     1      -3.521 -10.308   1.627  0.00  0.00    -0.010 C 
ATOM     11  C   UNL     1       1.275 -10.929   0.682  0.00  0.00    +0.252 C 
ATOM     12  O   UNL     1       1.571 -11.959   1.257  0.00  0.00    -0.270 OA
ATOM     13  H   UNL     1      -3.959 -11.970   4.479  0.00  0.00    -0.086 HD
ATOM     14  H   UNL     1      -4.126 -10.362   4.170  0.00  0.00    -0.086 HD
ENDROOT
BRANCH  11  15
ATOM     15  C   UNL     1       2.318 -10.132   0.014  0.00  0.00    +0.108 A 
ATOM     16  C   UNL     1       3.087  -9.095   0.599  0.00  0.00    +0.093 A 
ATOM     17  N   UNL     1       3.900  -8.634  -0.305  0.00  0.00    -0.082 NA
ATOM     18  O   UNL     1       3.697  -9.347  -1.510  0.00  0.00    -0.352 OA
ATOM     19  C   UNL     1       2.736 -10.261  -1.303  0.00  0.00    +0.201 A 
ATOM     20  C   UNL     1       2.980  -8.610   2.022  0.00  0.00    +0.070 C 
BRANCH  19  21
ATOM     21  C   UNL     1       2.216 -11.226  -2.296  0.00  0.00    +0.152 A 
ATOM     22  C   UNL     1       2.649 -11.358  -3.639  0.00  0.00    +0.079 A 
ATOM     23  C   UNL     1       1.935 -12.342  -4.212  0.00  0.00    +0.135 A 
ATOM     24  O   UNL     1       1.081 -12.829  -3.299  0.00  0.00    -0.359 OA
ATOM     25  N   UNL     1       1.274 -12.117  -2.091  0.00  0.00    -0.075 NA
ATOM     26  C   UNL     1       2.070 -12.816  -5.636  0.00  0.00    +0.089 C 
ENDBRANCH  19  21
ENDBRANCH  11  15
BRANCH   1  28
ATOM     27  N   UNL     1      -1.833  -6.816   2.489  0.00  0.00    -0.305 N 
ATOM     28  C   UNL     1      -1.032  -7.728   1.904  0.00  0.00    +0.219 C 
ATOM     29  O   UNL     1       0.164  -7.702   2.103  0.00  0.00    -0.275 OA
ATOM     30  H   UNL     1      -2.790  -6.837   2.330  0.00  0.00    +0.149 HD
BRANCH  27  31
ATOM     31  C   UNL     1      -1.259  -5.792   3.365  0.00  0.00    +0.136 C 
ATOM     32  C   UNL     1      -0.775  -4.611   2.521  0.00  0.00    +0.036 C 
BRANCH  31  41
ATOM     33  C   UNL     1      -5.398  -3.126   8.946  0.00  0.00    +0.044 C 
ATOM     34  C   UNL     1      -4.983  -3.737   7.633  0.00  0.00    -0.048 A 
ATOM     35  C   UNL     1      -5.951  -4.125   6.717  0.00  0.00    +0.005 A 
ATOM     36  C   UNL     1      -5.596  -4.681   5.521  0.00  0.00    +0.030 A 
ATOM     37  C   UNL     1      -4.245  -4.862   5.211  0.00  0.00    +0.089 A 
ATOM     38  C   UNL     1      -3.265  -4.469   6.138  0.00  0.00    +0.067 A 
ATOM     39  C   UNL     1      -3.645  -3.901   7.346  0.00  0.00    +0.031 A 
ATOM     40  N   UNL     1      -2.049  -4.770   5.557  0.00  0.00    -0.340 N 
ATOM     41  C   UNL     1      -2.307  -5.317   4.338  0.00  0.00    +0.128 A 
ATOM     42  N   UNL     1      -3.591  -5.372   4.136  0.00  0.00    -0.231 NA
ATOM     43  H   UNL     1      -1.173  -4.619   5.945  0.00  0.00    +0.167 HD
ENDBRANCH  31  41
ENDBRANCH  27  31
ENDBRANCH   1  28
TORSDOF 5
