REMARK  Name = ZINC20745375
REMARK  6 active torsions:
REMARK  status: ('A' for Active; 'I' for Inactive)
REMARK    1  A    between atoms: C_3  and  O_21
REMARK    2  A    between atoms: C_6  and  N_7
REMARK    3  A    between atoms: C_8  and  C_13
REMARK    4  A    between atoms: C_16  and  O_20
REMARK    5  A    between atoms: C_18  and  O_19
REMARK    6  A    between atoms: O_21  and  C_22
REMARK                            x       y       z     vdW  Elec       q    Type
REMARK                         _______ _______ _______ _____ _____    ______ ____
ROOT
ATOM      1  N   UNL     1       1.464   0.418   6.077  0.00  0.00    -0.271 N 
ATOM      2  C   UNL     1       2.746   0.652   6.523  0.00  0.00    +0.171 A 
ATOM      3  N   UNL     1       2.858   0.069   7.694  0.00  0.00    -0.153 NA
ATOM      4  N   UNL     1       1.754  -0.512   8.004  0.00  0.00    -0.254 N 
ATOM      5  C   UNL     1       0.866  -0.333   7.053  0.00  0.00    +0.180 A 
ATOM      6  S   UNL     1      -0.786  -0.944   7.038  0.00  0.00    -0.011 S 
ATOM      7  H   UNL     1       1.668  -1.056   8.956  0.00  0.00    +0.191 HD
ENDROOT
BRANCH   1  13
ATOM      8  C   UNL     1      -0.143   1.776   4.887  0.00  0.00    +0.030 A 
ATOM      9  C   UNL     1      -0.706   2.203   3.700  0.00  0.00    +0.048 A 
ATOM     10  C   UNL     1      -0.236   1.707   2.492  0.00  0.00    +0.130 A 
ATOM     11  C   UNL     1       0.795   0.779   2.476  0.00  0.00    +0.048 A 
ATOM     12  C   UNL     1       1.362   0.356   3.662  0.00  0.00    +0.030 A 
ATOM     13  C   UNL     1       0.892   0.852   4.871  0.00  0.00    +0.051 A 
BRANCH  10  14
ATOM     14  O   UNL     1      -0.791   2.127   1.324  0.00  0.00    -0.406 OA
BRANCH  14  15
ATOM     15  C   UNL     1      -0.259   1.575   0.118  0.00  0.00    +0.575 C 
ATOM     16  F   UNL     1      -0.417   0.186   0.131  0.00  0.00    -0.133 F 
ATOM     17  F   UNL     1       1.102   1.889   0.022  0.00  0.00    -0.133 F 
ATOM     18  F   UNL     1      -0.939   2.112  -0.980  0.00  0.00    -0.133 F 
ENDBRANCH  14  15
ENDBRANCH  10  14
ENDBRANCH   1  13
BRANCH   2  19
ATOM     19  C   UNL     1       3.796   1.414   5.817  0.00  0.00    +0.061 A 
ATOM     20  C   UNL     1       3.501   2.657   5.255  0.00  0.00    +0.019 A 
ATOM     21  C   UNL     1       4.484   3.368   4.600  0.00  0.00    +0.046 A 
ATOM     22  C   UNL     1       5.767   2.846   4.490  0.00  0.00    +0.120 A 
ATOM     23  C   UNL     1       6.069   1.610   5.041  0.00  0.00    +0.091 A 
ATOM     24  C   UNL     1       5.090   0.890   5.705  0.00  0.00    +0.131 A 
BRANCH  24  25
ATOM     25  O   UNL     1       5.383  -0.322   6.244  0.00  0.00    -0.506 OA
ATOM     26  H   UNL     1       6.400  -0.732   6.155  0.00  0.00    +0.292 HD
ENDBRANCH  24  25
BRANCH  22  27
ATOM     27  O   UNL     1       6.730   3.550   3.839  0.00  0.00    -0.507 OA
ATOM     28  H   UNL     1       7.747   3.139   3.751  0.00  0.00    +0.292 HD
ENDBRANCH  22  27
ENDBRANCH   2  19
TORSDOF 6
