REMARK  Name = ZINC59153746
REMARK  8 active torsions:
REMARK  status: ('A' for Active; 'I' for Inactive)
REMARK    1  A    between atoms: C_1  and  C_2
REMARK    2  A    between atoms: C_2  and  N_3
REMARK    3  A    between atoms: N_3  and  C_4
REMARK    4  A    between atoms: C_4  and  N_6
REMARK    5  A    between atoms: N_6  and  N_7
REMARK    6  A    between atoms: N_15  and  C_18
REMARK    7  A    between atoms: C_18  and  C_19
REMARK    8  A    between atoms: C_19  and  C_20
REMARK                            x       y       z     vdW  Elec       q    Type
REMARK                         _______ _______ _______ _____ _____    ______ ____
ROOT
ATOM      1  N   UNL     1       2.034  -1.348   3.408  0.00  0.00    -0.175 NA
ATOM      2  C   UNL     1       2.669  -1.782   4.470  0.00  0.00    +0.153 C 
ATOM      3  C   UNL     1       3.284  -0.972   5.548  0.00  0.00    +0.029 A 
ATOM      4  C   UNL     1       3.385   0.396   5.770  0.00  0.00    +0.027 A 
ATOM      5  C   UNL     1       4.037   0.861   6.896  0.00  0.00    +0.019 A 
ATOM      6  C   UNL     1       4.587  -0.035   7.798  0.00  0.00    +0.017 A 
ATOM      7  C   UNL     1       4.492  -1.395   7.585  0.00  0.00    +0.025 A 
ATOM      8  C   UNL     1       3.839  -1.881   6.458  0.00  0.00    +0.046 A 
ATOM      9  N   UNL     1       3.606  -3.178   6.012  0.00  0.00    -0.265 N 
ATOM     10  C   UNL     1       2.920  -3.184   4.856  0.00  0.00    +0.271 C 
ATOM     11  O   UNL     1       2.570  -4.171   4.237  0.00  0.00    -0.268 OA
ATOM     12 BR   UNL     1       4.178   2.721   7.206  0.00  0.00    -0.050 Br
ENDROOT
BRANCH   1  13
ATOM     13  N   UNL     1       1.506  -2.260   2.486  0.00  0.00    -0.218 N 
ATOM     14  H   UNL     1       1.609  -3.213   2.633  0.00  0.00    +0.176 HD
BRANCH  13  15
ATOM     15  C   UNL     1       0.854  -1.814   1.394  0.00  0.00    +0.150 C 
ATOM     16  S   UNL     1       0.207  -2.929   0.267  0.00  0.00    -0.017 S 
BRANCH  15  17
ATOM     17  N   UNL     1       0.711  -0.489   1.189  0.00  0.00    -0.326 N 
ATOM     18  H   UNL     1       1.077   0.142   1.827  0.00  0.00    +0.148 HD
BRANCH  17  20
ATOM     19  C   UNL     1      -0.019   1.526   0.010  0.00  0.00    +0.024 C 
ATOM     20  C   UNL     1       0.002  -0.004   0.002  0.00  0.00    +0.100 C 
ENDBRANCH  17  20
ENDBRANCH  15  17
ENDBRANCH  13  15
ENDBRANCH   1  13
BRANCH   9  21
ATOM     21  C   UNL     1       4.046  -4.384   6.717  0.00  0.00    +0.118 C 
BRANCH  21  22
ATOM     22  C   UNL     1       2.956  -4.832   7.693  0.00  0.00    +0.054 C 
BRANCH  22  23
ATOM     23  C   UNL     1       3.409  -6.073   8.418  0.00  0.00    -0.046 A 
ATOM     24  C   UNL     1       3.134  -7.321   7.891  0.00  0.00    +0.004 A 
ATOM     25  C   UNL     1       3.549  -8.459   8.555  0.00  0.00    +0.000 A 
ATOM     26  C   UNL     1       4.241  -8.350   9.747  0.00  0.00    +0.000 A 
ATOM     27  C   UNL     1       4.518  -7.102  10.274  0.00  0.00    +0.000 A 
ATOM     28  C   UNL     1       4.106  -5.963   9.607  0.00  0.00    +0.004 A 
ENDBRANCH  22  23
ENDBRANCH  21  22
ENDBRANCH   9  21
TORSDOF 7
