REMARK  Name = ZINC63385285
REMARK  12 active torsions:
REMARK  status: ('A' for Active; 'I' for Inactive)
REMARK    1  A    between atoms: C_1  and  C_2
REMARK    2  A    between atoms: C_2  and  C_3
REMARK    3  A    between atoms: C_3  and  C_5
REMARK    4  A    between atoms: C_3  and  C_6
REMARK    5  A    between atoms: C_6  and  C_8
REMARK    6  A    between atoms: C_6  and  N_22
REMARK    7  A    between atoms: N_10  and  C_11
REMARK    8  A    between atoms: C_11  and  C_12
REMARK    9  A    between atoms: C_12  and  C_13
REMARK   10  A    between atoms: N_22  and  C_23
REMARK   11  A    between atoms: N_27  and  C_39
REMARK   12  A    between atoms: C_39  and  C_40
REMARK                            x       y       z     vdW  Elec       q    Type
REMARK                         _______ _______ _______ _____ _____    ______ ____
ROOT
ATOM      1  C   UNL     1       0.762  -1.864  -1.177  0.00  0.00    +0.162 C 
ENDROOT
BRANCH   1   2
ATOM      2  C   UNL     1       1.689  -2.297  -0.070  0.00  0.00    +0.234 C 
ATOM      3  O   UNL     1       1.366  -3.199   0.673  0.00  0.00    -0.274 OA
ATOM      4  N   UNL     1       2.877  -1.682   0.093  0.00  0.00    -0.313 N 
ATOM      5  H   UNL     1       3.136  -0.960  -0.502  0.00  0.00    +0.149 HD
BRANCH   4   6
ATOM      6  C   UNL     1       3.778  -2.102   1.169  0.00  0.00    +0.108 C 
BRANCH   6   7
ATOM      7  C   UNL     1       5.048  -1.249   1.133  0.00  0.00    +0.052 C 
BRANCH   7   8
ATOM      8  C   UNL     1       5.975  -1.682   2.240  0.00  0.00    -0.040 C 
ATOM      9  C   UNL     1       7.001  -2.558   2.146  0.00  0.00    -0.001 A 
ATOM     10  C   UNL     1       7.540  -3.341   1.027  0.00  0.00    +0.010 A 
ATOM     11  C   UNL     1       8.600  -4.152   1.245  0.00  0.00    +0.001 A 
ATOM     12  C   UNL     1       9.195  -4.264   2.509  0.00  0.00    +0.002 A 
ATOM     13  C   UNL     1       8.757  -3.576   3.585  0.00  0.00    +0.026 A 
ATOM     14  C   UNL     1       7.648  -2.693   3.470  0.00  0.00    +0.043 A 
ATOM     15  N   UNL     1       7.045  -1.930   4.349  0.00  0.00    -0.380 N 
ATOM     16  C   UNL     1       5.950  -1.219   3.680  0.00  0.00    +0.144 C 
ATOM     17  H   UNL     1       7.285  -1.846   5.285  0.00  0.00    +0.160 HD
ENDBRANCH   7   8
ENDBRANCH   6   7
ENDBRANCH   4   6
ENDBRANCH   1   2
BRANCH   1  18
ATOM     18  C   UNL     1       0.393  -0.392  -0.986  0.00  0.00    +0.015 C 
ATOM     19  C   UNL     1      -0.548   0.048  -2.110  0.00  0.00    +0.010 C 
BRANCH  18  21
ATOM     20  C   UNL     1      -0.563   1.276   0.610  0.00  0.00    +0.004 C 
ATOM     21  C   UNL     1      -0.305  -0.212   0.363  0.00  0.00    +0.002 C 
ENDBRANCH  18  21
ENDBRANCH   1  18
BRANCH   1  22
ATOM     22  N   UNL     1      -0.453  -2.681  -1.143  0.00  0.00    -0.300 N 
ATOM     23  H   UNL     1      -0.734  -3.099  -0.314  0.00  0.00    +0.150 HD
BRANCH  22  24
ATOM     24  C   UNL     1      -1.193  -2.855  -2.282  0.00  0.00    +0.246 C 
ATOM     25  O   UNL     1      -0.739  -2.380  -3.461  0.00  0.00    -0.270 OA
ATOM     26  C   UNL     1      -2.389  -3.508  -2.225  0.00  0.00    +0.079 C 
ATOM     27  C   UNL     1      -3.114  -3.869  -3.497  0.00  0.00    +0.149 C 
ATOM     28  N   UNL     1      -3.900  -5.090  -3.289  0.00  0.00    -0.325 N 
ATOM     29  C   UNL     1      -4.667  -5.216  -2.132  0.00  0.00    +0.045 A 
ATOM     30  C   UNL     1      -5.851  -5.931  -2.132  0.00  0.00    +0.073 A 
ATOM     31  C   UNL     1      -6.594  -6.038  -0.966  0.00  0.00    +0.168 A 
ATOM     32  C   UNL     1      -6.152  -5.426   0.209  0.00  0.00    +0.167 A 
ATOM     33  C   UNL     1      -4.971  -4.710   0.219  0.00  0.00    +0.063 A 
ATOM     34  C   UNL     1      -4.220  -4.601  -0.951  0.00  0.00    +0.047 A 
ATOM     35  C   UNL     1      -2.947  -3.852  -0.978  0.00  0.00    +0.198 C 
ATOM     36  O   UNL     1      -2.392  -3.534   0.061  0.00  0.00    -0.287 OA
ATOM     37  O   UNL     1      -7.058  -5.681   1.200  0.00  0.00    -0.453 OA
ATOM     38  C   UNL     1      -8.256  -6.105   0.524  0.00  0.00    +0.466 C 
ATOM     39  O   UNL     1      -7.773  -6.674  -0.707  0.00  0.00    -0.453 OA
BRANCH  28  40
ATOM     40  C   UNL     1      -3.880  -6.164  -4.285  0.00  0.00    +0.102 C 
ATOM     41  C   UNL     1      -2.752  -7.144  -3.955  0.00  0.00    +0.024 C 
ENDBRANCH  28  40
ENDBRANCH  22  24
ENDBRANCH   1  22
TORSDOF 9
