REMARK  Name = ZINC09544600
REMARK  11 active torsions:
REMARK  status: ('A' for Active; 'I' for Inactive)
REMARK    1  A    between atoms: C_1  and  O_2
REMARK    2  A    between atoms: O_2  and  C_3
REMARK    3  A    between atoms: C_6  and  C_9
REMARK    4  A    between atoms: C_9  and  C_11
REMARK    5  A    between atoms: C_9  and  N_68
REMARK    6  A    between atoms: C_11  and  N_12
REMARK    7  A    between atoms: C_13  and  C_15
REMARK    8  A    between atoms: C_15  and  C_17
REMARK    9  A    between atoms: C_15  and  N_24
REMARK   10  A    between atoms: C_17  and  C_18
REMARK   11  A    between atoms: C_25  and  C_27
REMARK                            x       y       z     vdW  Elec       q    Type
REMARK                         _______ _______ _______ _____ _____    ______ ____
ROOT
ATOM      1  N   UNL     1      -5.324   4.154  -0.026  0.00  0.00    -0.315 N 
ATOM      2  C   UNL     1      -4.198   4.893   0.007  0.00  0.00    +0.234 C 
ATOM      3  O   UNL     1      -4.267   6.104  -0.018  0.00  0.00    -0.274 OA
ATOM      4  H   UNL     1      -5.269   3.186  -0.006  0.00  0.00    +0.149 HD
ENDROOT
BRANCH   1   5
ATOM      5  C   UNL     1      -6.631   4.812  -0.090  0.00  0.00    +0.093 C 
BRANCH   5   6
ATOM      6  C   UNL     1      -7.735   3.753  -0.116  0.00  0.00    -0.020 C 
BRANCH   6  12
ATOM      7  C   UNL     1      -7.531   3.518  -2.517  0.00  0.00    -0.078 C 
ATOM      8  C   UNL     1      -7.133   2.550  -3.633  0.00  0.00    -0.019 C 
ATOM      9  C   UNL     1      -8.102   1.364  -3.644  0.00  0.00    -0.004 C 
ATOM     10  C   UNL     1      -8.079   0.685  -2.272  0.00  0.00    -0.019 C 
ATOM     11  C   UNL     1      -8.450   1.707  -1.195  0.00  0.00    -0.078 C 
ATOM     12  N   UNL     1      -7.466   2.809  -1.221  0.00  0.00    +0.385 N 
ATOM     13  H   UNL     1      -6.524   2.418  -1.103  0.00  0.00    -0.081 HD
ENDBRANCH   6  12
BRANCH   6  17
ATOM     14  C   UNL     1     -11.523   5.656  -0.655  0.00  0.00    +0.120 A 
ATOM     15  C   UNL     1     -11.346   4.739   0.371  0.00  0.00    +0.046 A 
ATOM     16  C   UNL     1     -10.121   4.125   0.543  0.00  0.00    +0.005 A 
ATOM     17  C   UNL     1      -9.071   4.424  -0.306  0.00  0.00    -0.059 A 
ATOM     18  C   UNL     1      -9.244   5.342  -1.326  0.00  0.00    +0.005 A 
ATOM     19  C   UNL     1     -10.469   5.954  -1.506  0.00  0.00    +0.046 A 
BRANCH  14  21
ATOM     20  C   UNL     1     -12.838   7.195  -1.903  0.00  0.00    +0.277 C 
ATOM     21  O   UNL     1     -12.728   6.262  -0.826  0.00  0.00    -0.495 OA
ENDBRANCH  14  21
ENDBRANCH   6  17
ENDBRANCH   5   6
ENDBRANCH   1   5
BRANCH   2  22
ATOM     22  C   UNL     1      -2.854   4.216   0.073  0.00  0.00    +0.163 C 
BRANCH  22  23
ATOM     23  N   UNL     1      -1.797   5.230   0.098  0.00  0.00    -0.299 N 
ATOM     24  C   UNL     1      -0.559   4.925  -0.340  0.00  0.00    +0.251 C 
ATOM     25  O   UNL     1      -0.320   3.807  -0.756  0.00  0.00    -0.270 OA
ATOM     26  H   UNL     1      -1.988   6.122   0.430  0.00  0.00    +0.150 HD
BRANCH  24  27
ATOM     27  C   UNL     1       0.498   5.940  -0.316  0.00  0.00    +0.074 A 
ATOM     28  C   UNL     1       1.821   5.833  -0.715  0.00  0.00    +0.021 A 
ATOM     29  C   UNL     1       2.606   6.951  -0.584  0.00  0.00    +0.008 A 
ATOM     30  C   UNL     1       2.061   8.089  -0.078  0.00  0.00    +0.046 A 
ATOM     31  S   UNL     1       0.416   7.637   0.230  0.00  0.00    -0.092 S 
ENDBRANCH  24  27
ENDBRANCH  22  23
BRANCH  22  32
ATOM     32  C   UNL     1      -2.773   3.365   1.342  0.00  0.00    +0.067 C 
BRANCH  32  33
ATOM     33  C   UNL     1      -1.480   2.592   1.348  0.00  0.00    -0.045 A 
ATOM     34  C   UNL     1      -1.422   1.337   0.773  0.00  0.00    +0.004 A 
ATOM     35  C   UNL     1      -0.236   0.626   0.783  0.00  0.00    +0.000 A 
ATOM     36  C   UNL     1       0.894   1.175   1.358  0.00  0.00    +0.000 A 
ATOM     37  C   UNL     1       0.838   2.434   1.928  0.00  0.00    +0.000 A 
ATOM     38  C   UNL     1      -0.349   3.142   1.923  0.00  0.00    +0.004 A 
ENDBRANCH  32  33
ENDBRANCH  22  32
ENDBRANCH   2  22
TORSDOF 10
