REMARK  Name = ZINC39695595
REMARK  8 active torsions:
REMARK  status: ('A' for Active; 'I' for Inactive)
REMARK    1  A    between atoms: C_1  and  C_2
REMARK    2  A    between atoms: C_2  and  N_3
REMARK    3  A    between atoms: C_7  and  C_9
REMARK    4  A    between atoms: C_9  and  N_10
REMARK    5  A    between atoms: C_11  and  C_13
REMARK    6  A    between atoms: C_24  and  C_26
REMARK    7  A    between atoms: C_31  and  S_32
REMARK    8  A    between atoms: S_32  and  C_33
REMARK                            x       y       z     vdW  Elec       q    Type
REMARK                         _______ _______ _______ _____ _____    ______ ____
ROOT
ATOM      1  C   UNL     1      -1.042  -1.377  -5.362  0.00  0.00    +0.100 C 
ATOM      2  C   UNL     1      -1.427   0.092  -5.076  0.00  0.00    +0.121 C 
ATOM      3  N   UNL     1      -1.890   0.618  -6.382  0.00  0.00    -0.296 N 
ATOM      4  C   UNL     1      -2.658  -0.500  -6.979  0.00  0.00    +0.115 C 
ATOM      5  C   UNL     1      -1.852  -1.762  -6.611  0.00  0.00    -0.004 C 
ATOM      6  C   UNL     1      -2.797  -2.917  -6.292  0.00  0.00    -0.010 C 
ATOM      7  C   UNL     1      -3.550  -3.320  -7.563  0.00  0.00    -0.082 C 
ATOM      8  N   UNL     1      -2.588  -3.720  -8.598  0.00  0.00    +0.379 N 
ATOM      9  C   UNL     1      -1.743  -2.577  -8.965  0.00  0.00    -0.082 C 
ATOM     10  C   UNL     1      -0.914  -2.142  -7.753  0.00  0.00    -0.010 C 
ATOM     11  C   UNL     1      -1.664   1.838  -6.908  0.00  0.00    +0.249 C 
ATOM     12  O   UNL     1      -2.194   2.157  -7.955  0.00  0.00    -0.270 OA
ATOM     13  H   UNL     1      -2.007  -4.466  -8.245  0.00  0.00    -0.086 HD
ATOM     14  H   UNL     1      -3.087  -4.043  -9.413  0.00  0.00    -0.086 HD
ENDROOT
BRANCH  11  15
ATOM     15  C   UNL     1      -0.774   2.787  -6.214  0.00  0.00    +0.069 A 
ATOM     16  C   UNL     1      -0.737   2.837  -4.816  0.00  0.00    +0.017 A 
ATOM     17  C   UNL     1       0.115   3.744  -4.212  0.00  0.00    +0.020 A 
ATOM     18  C   UNL     1       0.901   4.569  -4.999  0.00  0.00    +0.112 A 
ATOM     19  N   UNL     1       0.853   4.506  -6.315  0.00  0.00    -0.248 NA
ATOM     20  C   UNL     1       0.059   3.652  -6.944  0.00  0.00    +0.114 A 
BRANCH  20  21
ATOM     21  S   UNL     1       0.041   3.607  -8.706  0.00  0.00    -0.069 S 
BRANCH  21  22
ATOM     22  C   UNL     1       1.090   4.942  -9.177  0.00  0.00    +0.014 A 
ATOM     23  C   UNL     1       2.432   4.709  -9.451  0.00  0.00    +0.015 A 
ATOM     24  C   UNL     1       3.252   5.757  -9.821  0.00  0.00    +0.001 A 
ATOM     25  C   UNL     1       2.738   7.037  -9.918  0.00  0.00    +0.000 A 
ATOM     26  C   UNL     1       1.403   7.273  -9.645  0.00  0.00    +0.001 A 
ATOM     27  C   UNL     1       0.577   6.229  -9.280  0.00  0.00    +0.015 A 
ENDBRANCH  21  22
ENDBRANCH  20  21
ENDBRANCH  11  15
BRANCH   1  29
ATOM     28  N   UNL     1      -0.721  -3.378  -3.944  0.00  0.00    -0.317 N 
ATOM     29  C   UNL     1      -1.422  -2.255  -4.198  0.00  0.00    +0.218 C 
ATOM     30  O   UNL     1      -2.359  -1.952  -3.490  0.00  0.00    -0.275 OA
ATOM     31  H   UNL     1       0.028  -3.620  -4.510  0.00  0.00    +0.149 HD
BRANCH  28  32
ATOM     32  C   UNL     1      -1.091  -4.232  -2.812  0.00  0.00    +0.089 C 
BRANCH  32  37
ATOM     33  N   UNL     1       1.254  -4.964  -2.692  0.00  0.00    +0.382 N 
ATOM     34  C   UNL     1       1.869  -5.465  -1.445  0.00  0.00    -0.078 C 
ATOM     35  C   UNL     1       0.678  -5.706  -0.485  0.00  0.00    -0.020 C 
ATOM     36  C   UNL     1      -0.406  -6.239  -1.459  0.00  0.00    -0.016 C 
ATOM     37  C   UNL     1      -0.143  -5.431  -2.747  0.00  0.00    -0.051 C 
ATOM     38  H   UNL     1       1.275  -3.955  -2.697  0.00  0.00    -0.081 HD
BRANCH  33  40
ATOM     39  C   UNL     1       3.407  -4.894  -3.857  0.00  0.00    -0.017 C 
ATOM     40  C   UNL     1       1.994  -5.481  -3.851  0.00  0.00    -0.082 C 
ENDBRANCH  33  40
ENDBRANCH  32  37
ENDBRANCH  28  32
ENDBRANCH   1  29
TORSDOF 7
