REMARK  Name = ZINC39652786
REMARK  13 active torsions:
REMARK  status: ('A' for Active; 'I' for Inactive)
REMARK    1  A    between atoms: C_1  and  C_2
REMARK    2  A    between atoms: C_2  and  O_3
REMARK    3  A    between atoms: O_3  and  C_4
REMARK    4  A    between atoms: C_9  and  C_10
REMARK    5  A    between atoms: C_10  and  C_11
REMARK    6  A    between atoms: C_11  and  N_12
REMARK    7  A    between atoms: C_13  and  C_15
REMARK    8  A    between atoms: C_26  and  C_28
REMARK    9  A    between atoms: C_28  and  C_30
REMARK   10  A    between atoms: C_28  and  O_33
REMARK   11  A    between atoms: C_30  and  C_31
REMARK   12  A    between atoms: C_30  and  C_32
REMARK   13  A    between atoms: O_33  and  C_34
REMARK                            x       y       z     vdW  Elec       q    Type
REMARK                         _______ _______ _______ _____ _____    ______ ____
ROOT
ATOM      1  C   UNL     1       5.794   2.048  -4.973  0.00  0.00    +0.100 C 
ATOM      2  C   UNL     1       5.805   1.131  -6.217  0.00  0.00    +0.121 C 
ATOM      3  N   UNL     1       7.210   1.153  -6.687  0.00  0.00    -0.297 N 
ATOM      4  C   UNL     1       8.015   1.130  -5.442  0.00  0.00    +0.115 C 
ATOM      5  C   UNL     1       7.246   2.044  -4.468  0.00  0.00    -0.004 C 
ATOM      6  C   UNL     1       7.822   3.457  -4.504  0.00  0.00    -0.010 C 
ATOM      7  C   UNL     1       9.247   3.437  -3.943  0.00  0.00    -0.082 C 
ATOM      8  N   UNL     1       9.226   2.931  -2.566  0.00  0.00    +0.379 N 
ATOM      9  C   UNL     1       8.758   1.540  -2.550  0.00  0.00    -0.082 C 
ATOM     10  C   UNL     1       7.312   1.479  -3.052  0.00  0.00    -0.010 C 
ATOM     11  C   UNL     1       7.655   1.187  -7.958  0.00  0.00    +0.257 C 
ATOM     12  O   UNL     1       8.843   1.102  -8.187  0.00  0.00    -0.272 OA
ATOM     13  H   UNL     1      10.156   2.976  -2.178  0.00  0.00    -0.086 HD
ATOM     14  H   UNL     1       8.604   3.499  -2.010  0.00  0.00    -0.086 HD
ENDROOT
BRANCH   1  16
ATOM     15  N   UNL     1       4.369   2.304  -2.968  0.00  0.00    -0.315 N 
ATOM     16  C   UNL     1       4.870   1.493  -3.920  0.00  0.00    +0.218 C 
ATOM     17  O   UNL     1       4.578   0.316  -3.929  0.00  0.00    -0.275 OA
ATOM     18  H   UNL     1       4.603   3.246  -2.961  0.00  0.00    +0.149 HD
BRANCH  15  19
ATOM     19  C   UNL     1       3.471   1.765  -1.944  0.00  0.00    +0.109 C 
BRANCH  19  20
ATOM     20  C   UNL     1       3.050   2.886  -0.993  0.00  0.00    +0.057 C 
BRANCH  20  26
ATOM     21  C   UNL     1       2.650   1.742   1.202  0.00  0.00    +0.124 A 
ATOM     22  C   UNL     1       1.796   1.236   2.173  0.00  0.00    +0.046 A 
ATOM     23  C   UNL     1       0.429   1.317   1.998  0.00  0.00    +0.004 A 
ATOM     24  C   UNL     1      -0.091   1.901   0.857  0.00  0.00    +0.000 A 
ATOM     25  C   UNL     1       0.757   2.405  -0.112  0.00  0.00    +0.007 A 
ATOM     26  C   UNL     1       2.126   2.332   0.061  0.00  0.00    -0.004 A 
BRANCH  21  27
ATOM     27  O   UNL     1       3.996   1.664   1.372  0.00  0.00    -0.492 OA
BRANCH  27  29
ATOM     28  C   UNL     1       5.994   1.049   2.585  0.00  0.00    +0.048 C 
ATOM     29  C   UNL     1       4.463   1.044   2.571  0.00  0.00    +0.225 C 
ENDBRANCH  27  29
ENDBRANCH  21  27
ENDBRANCH  20  26
ENDBRANCH  19  20
ENDBRANCH  15  19
ENDBRANCH   1  16
BRANCH  11  30
ATOM     30  C   UNL     1       6.677   1.331  -9.096  0.00  0.00    +0.261 C 
BRANCH  30  31
ATOM     31  C   UNL     1       6.429   2.815  -9.371  0.00  0.00    +0.033 C 
ATOM     32  C   UNL     1       5.544   2.963 -10.610  0.00  0.00    +0.011 C 
ATOM     33  C   UNL     1       5.729   3.447  -8.166  0.00  0.00    +0.011 C 
ENDBRANCH  30  31
BRANCH  30  34
ATOM     34  O   UNL     1       7.214   0.712 -10.267  0.00  0.00    -0.479 OA
BRANCH  34  35
ATOM     35  C   UNL     1       6.335   0.090 -11.095  0.00  0.00    +0.122 A 
ATOM     36  C   UNL     1       6.786  -0.518 -12.257  0.00  0.00    +0.045 A 
ATOM     37  C   UNL     1       5.889  -1.150 -13.097  0.00  0.00    +0.004 A 
ATOM     38  C   UNL     1       4.543  -1.176 -12.781  0.00  0.00    +0.000 A 
ATOM     39  C   UNL     1       4.091  -0.570 -11.623  0.00  0.00    +0.004 A 
ATOM     40  C   UNL     1       4.984   0.058 -10.777  0.00  0.00    +0.045 A 
ENDBRANCH  34  35
ENDBRANCH  30  34
ENDBRANCH  11  30
TORSDOF 10
