REMARK  Name = ZINC24887715
REMARK  12 active torsions:
REMARK  status: ('A' for Active; 'I' for Inactive)
REMARK    1  A    between atoms: C_1  and  C_2
REMARK    2  A    between atoms: C_2  and  C_4
REMARK    3  A    between atoms: C_2  and  N_14
REMARK    4  A    between atoms: N_9  and  C_10
REMARK    5  A    between atoms: C_10  and  C_11
REMARK    6  A    between atoms: C_10  and  C_12
REMARK    7  A    between atoms: C_10  and  C_13
REMARK    8  A    between atoms: N_17  and  C_20
REMARK    9  A    between atoms: C_20  and  C_22
REMARK   10  A    between atoms: C_20  and  C_29
REMARK   11  A    between atoms: C_29  and  O_31
REMARK   12  A    between atoms: O_31  and  C_32
REMARK                            x       y       z     vdW  Elec       q    Type
REMARK                         _______ _______ _______ _____ _____    ______ ____
ROOT
ATOM      1  N   UNL     1      -2.695   3.980   0.415  0.00  0.00    +0.389 N 
ATOM      2  C   UNL     1      -3.485   3.107  -0.464  0.00  0.00    -0.062 C 
ATOM      3  C   UNL     1      -4.953   3.535  -0.418  0.00  0.00    +0.067 C 
ATOM      4  N   UNL     1      -5.064   4.939  -0.837  0.00  0.00    -0.290 NA
ATOM      5  C   UNL     1      -4.274   5.813   0.041  0.00  0.00    +0.067 C 
ATOM      6  C   UNL     1      -2.806   5.384  -0.004  0.00  0.00    -0.062 C 
ATOM      7  H   UNL     1      -3.103   3.896   1.433  0.00  0.00    -0.081 HD
ENDROOT
BRANCH   1   9
ATOM      8  C   UNL     1      -0.595   3.957  -0.845  0.00  0.00    -0.004 C 
ATOM      9  C   UNL     1      -1.290   3.553   0.457  0.00  0.00    +0.017 C 
BRANCH   9  10
ATOM     10  C   UNL     1      -0.598   4.213   1.622  0.00  0.00    +0.207 C 
ATOM     11  O   UNL     1      -1.160   5.090   2.243  0.00  0.00    -0.277 OA
ATOM     12  N   UNL     1       0.645   3.829   1.974  0.00  0.00    -0.242 N 
ATOM     13  C   UNL     1       1.263   4.420   3.015  0.00  0.00    +0.306 C 
ATOM     14  O   UNL     1       0.702   5.302   3.635  0.00  0.00    -0.252 OA
ATOM     15  N   UNL     1       2.504   4.032   3.371  0.00  0.00    -0.294 N 
ATOM     16  H   UNL     1       1.155   3.034   1.410  0.00  0.00    +0.159 HD
ATOM     17  H   UNL     1       3.012   3.233   2.810  0.00  0.00    +0.151 HD
BRANCH  15  18
ATOM     18  C   UNL     1       3.176   4.674   4.503  0.00  0.00    +0.028 C 
ATOM     19  C   UNL     1       2.347   4.467   5.772  0.00  0.00    +0.031 C 
ATOM     20  C   UNL     1       4.562   4.053   4.692  0.00  0.00    +0.031 C 
ATOM     21  C   UNL     1       3.322   6.171   4.227  0.00  0.00    +0.031 C 
ENDBRANCH  15  18
ENDBRANCH   9  10
ENDBRANCH   1   9
BRANCH   4  22
ATOM     22  C   UNL     1      -6.469   5.367  -0.879  0.00  0.00    +0.198 C 
BRANCH  22  23
ATOM     23  C   UNL     1      -7.259   4.414  -1.740  0.00  0.00    -0.001 A 
ATOM     24  C   UNL     1      -6.643   3.759  -2.790  0.00  0.00    +0.007 A 
ATOM     25  C   UNL     1      -7.367   2.885  -3.580  0.00  0.00    +0.000 A 
ATOM     26  C   UNL     1      -8.707   2.667  -3.320  0.00  0.00    +0.001 A 
ATOM     27  C   UNL     1      -9.324   3.321  -2.271  0.00  0.00    +0.020 A 
ATOM     28  C   UNL     1      -8.598   4.192  -1.477  0.00  0.00    +0.046 A 
ATOM     29 CL   UNL     1      -9.371   5.009  -0.154  0.00  0.00    -0.083 Cl
ENDBRANCH  22  23
BRANCH  22  30
ATOM     30  C   UNL     1      -6.555   6.755  -1.458  0.00  0.00    +0.329 C 
ATOM     31  O   UNL     1      -5.549   7.330  -1.800  0.00  0.00    -0.249 OA
BRANCH  30  32
ATOM     32  O   UNL     1      -7.749   7.354  -1.593  0.00  0.00    -0.467 OA
ATOM     33  C   UNL     1      -7.755   8.692  -2.157  0.00  0.00    +0.280 C 
ENDBRANCH  30  32
ENDBRANCH  22  30
ENDBRANCH   4  22
TORSDOF 7
