REMARK  Name = ZINC23737531
REMARK  6 active torsions:
REMARK  status: ('A' for Active; 'I' for Inactive)
REMARK    1  A    between atoms: C_4  and  C_7
REMARK    2  A    between atoms: C_7  and  C_9
REMARK    3  A    between atoms: C_7  and  N_29
REMARK    4  A    between atoms: C_9  and  N_10
REMARK    5  A    between atoms: C_11  and  C_13
REMARK    6  A    between atoms: C_13  and  N_14
REMARK                            x       y       z     vdW  Elec       q    Type
REMARK                         _______ _______ _______ _____ _____    ______ ____
ROOT
ATOM      1  N   UNL     1      -2.227   5.918   3.797  0.00  0.00    -0.315 N 
ATOM      2  C   UNL     1      -1.502   5.313   2.836  0.00  0.00    +0.231 C 
ATOM      3  O   UNL     1      -1.755   4.171   2.514  0.00  0.00    -0.274 OA
ATOM      4  H   UNL     1      -1.998   6.954   4.089  0.00  0.00    +0.149 HD
ENDROOT
BRANCH   1   5
ATOM      5  C   UNL     1      -3.321   5.197   4.453  0.00  0.00    +0.093 C 
BRANCH   5   6
ATOM      6  C   UNL     1      -3.900   6.061   5.576  0.00  0.00    -0.020 C 
BRANCH   6  10
ATOM      7  C   UNL     1      -5.719   9.543   3.899  0.00  0.00    +0.000 A 
ATOM      8  C   UNL     1      -4.452   9.621   4.447  0.00  0.00    +0.000 A 
ATOM      9  C   UNL     1      -3.863   8.494   4.989  0.00  0.00    +0.002 A 
ATOM     10  C   UNL     1      -4.542   7.289   4.984  0.00  0.00    -0.059 A 
ATOM     11  C   UNL     1      -5.806   7.210   4.432  0.00  0.00    +0.002 A 
ATOM     12  C   UNL     1      -6.397   8.338   3.894  0.00  0.00    +0.000 A 
ENDBRANCH   6  10
BRANCH   6  13
ATOM     13  N   UNL     1      -4.907   5.290   6.316  0.00  0.00    +0.385 N 
ATOM     14  C   UNL     1      -4.316   4.054   6.891  0.00  0.00    -0.078 C 
ATOM     15  C   UNL     1      -5.309   3.677   8.018  0.00  0.00    -0.020 C 
ATOM     16  C   UNL     1      -5.720   5.053   8.592  0.00  0.00    -0.020 C 
ATOM     17  C   UNL     1      -5.425   6.062   7.467  0.00  0.00    -0.078 C 
ATOM     18  H   UNL     1      -5.703   5.064   5.592  0.00  0.00    -0.081 HD
ENDBRANCH   6  13
ENDBRANCH   5   6
ENDBRANCH   1   5
BRANCH   2  19
ATOM     19  C   UNL     1      -0.377   6.055   2.161  0.00  0.00    +0.213 C 
BRANCH  19  20
ATOM     20  N   UNL     1       0.250   5.186   1.161  0.00  0.00    -0.215 N 
ATOM     21  C   UNL     1       1.288   4.361   1.417  0.00  0.00    +0.251 C 
ATOM     22  O   UNL     1       1.858   4.201   2.475  0.00  0.00    -0.272 OA
ATOM     23  C   UNL     1       1.586   3.681   0.106  0.00  0.00    +0.138 C 
ATOM     24  C   UNL     1       3.022   3.964  -0.353  0.00  0.00    +0.045 C 
ATOM     25  C   UNL     1       3.778   2.714   0.151  0.00  0.00    +0.038 C 
ATOM     26  C   UNL     1       2.731   1.622   0.233  0.00  0.00    -0.042 A 
ATOM     27  C   UNL     1       1.466   2.185   0.216  0.00  0.00    -0.012 A 
ATOM     28  C   UNL     1       0.350   1.367   0.292  0.00  0.00    +0.006 A 
ATOM     29  C   UNL     1       0.496  -0.004   0.379  0.00  0.00    +0.000 A 
ATOM     30  C   UNL     1       1.759  -0.564   0.392  0.00  0.00    +0.000 A 
ATOM     31  C   UNL     1       2.874   0.249   0.319  0.00  0.00    +0.004 A 
ATOM     32  N   UNL     1       0.607   4.237  -0.828  0.00  0.00    -0.281 N 
ATOM     33  C   UNL     1      -0.134   5.112  -0.120  0.00  0.00    +0.310 C 
ATOM     34  O   UNL     1      -1.047   5.762  -0.590  0.00  0.00    -0.252 OA
ATOM     35  H   UNL     1       0.600   3.907  -1.878  0.00  0.00    +0.152 HD
ENDBRANCH  19  20
ENDBRANCH   2  19
TORSDOF 6
