REMARK  Name = ZINC39323520
REMARK  10 active torsions:
REMARK  status: ('A' for Active; 'I' for Inactive)
REMARK    1  A    between atoms: C_1  and  C_2
REMARK    2  A    between atoms: C_4  and  C_36
REMARK    3  A    between atoms: C_6  and  S_10
REMARK    4  A    between atoms: C_7  and  C_8
REMARK    5  A    between atoms: S_10  and  C_11
REMARK    6  A    between atoms: C_11  and  C_12
REMARK    7  A    between atoms: C_14  and  C_26
REMARK    8  A    between atoms: C_16  and  C_24
REMARK    9  A    between atoms: C_17  and  N_23
REMARK   10  A    between atoms: C_31  and  C_32
REMARK                            x       y       z     vdW  Elec       q    Type
REMARK                         _______ _______ _______ _____ _____    ______ ____
ROOT
ATOM      1  C   UNL     1       0.154  -5.992   3.614  0.00  0.00    +0.079 C 
ATOM      2  C   UNL     1      -1.016  -6.473   3.958  0.00  0.00    +0.031 C 
ATOM      3  C   UNL     1      -2.412  -6.283   3.429  0.00  0.00    +0.098 C 
ATOM      4  C   UNL     1      -3.297  -6.150   4.654  0.00  0.00    +0.097 C 
ATOM      5  C   UNL     1      -2.827  -6.385   5.897  0.00  0.00    +0.195 C 
ATOM      6  O   UNL     1      -1.569  -6.727   6.230  0.00  0.00    -0.448 OA
ATOM      7  C   UNL     1      -0.751  -7.308   5.211  0.00  0.00    +0.343 C 
ATOM      8  N   UNL     1       0.677  -7.066   5.442  0.00  0.00    -0.138 NA
ATOM      9  N   UNL     1       1.100  -6.365   4.513  0.00  0.00    -0.154 NA
ENDROOT
BRANCH   3  10
ATOM     10  C   UNL     1      -2.826  -7.479   2.611  0.00  0.00    -0.023 A 
ATOM     11  C   UNL     1      -2.747  -8.748   3.153  0.00  0.00    +0.005 A 
ATOM     12  C   UNL     1      -3.127  -9.845   2.402  0.00  0.00    +0.000 A 
ATOM     13  C   UNL     1      -3.587  -9.673   1.110  0.00  0.00    +0.001 A 
ATOM     14  C   UNL     1      -3.667  -8.404   0.568  0.00  0.00    +0.012 A 
ATOM     15  C   UNL     1      -3.290  -7.306   1.320  0.00  0.00    +0.059 A 
BRANCH  15  16
ATOM     16  C   UNL     1      -3.382  -5.922   0.731  0.00  0.00    +0.418 C 
ATOM     17  F   UNL     1      -3.975  -5.992  -0.534  0.00  0.00    -0.166 F 
ATOM     18  F   UNL     1      -4.158  -5.111   1.566  0.00  0.00    -0.166 F 
ATOM     19  F   UNL     1      -2.098  -5.378   0.616  0.00  0.00    -0.166 F 
ENDBRANCH  15  16
ENDBRANCH   3  10
BRANCH   5  20
ATOM     20  N   UNL     1      -3.725  -6.263   6.927  0.00  0.00    -0.329 N 
ATOM     21  H   UNL     1      -4.645  -6.019   6.742  0.00  0.00    +0.145 HD
ATOM     22  H   UNL     1      -3.439  -6.422   7.841  0.00  0.00    +0.145 HD
ENDBRANCH   5  20
BRANCH   4  23
ATOM     23  C   UNL     1      -4.665  -5.764   4.487  0.00  0.00    +0.101 C 
ATOM     24  N   UNL     1      -5.751  -5.457   4.354  0.00  0.00    -0.191 NA
ENDBRANCH   4  23
BRANCH   1  25
ATOM     25  C   UNL     1       0.413  -5.149   2.392  0.00  0.00    +0.133 C 
BRANCH  25  26
ATOM     26  S   UNL     1       0.630  -3.417   2.886  0.00  0.00    -0.098 S 
BRANCH  26  32
ATOM     27  C   UNL     1       1.600   0.952   0.098  0.00  0.00    +0.045 C 
ATOM     28  C   UNL     1       1.364  -0.535   0.150  0.00  0.00    -0.029 A 
ATOM     29  C   UNL     1       1.368  -1.295  -1.008  0.00  0.00    +0.027 A 
ATOM     30  C   UNL     1       1.148  -2.658  -0.929  0.00  0.00    +0.040 A 
ATOM     31  N   UNL     1       0.935  -3.251   0.229  0.00  0.00    -0.244 NA
ATOM     32  C   UNL     1       0.921  -2.573   1.367  0.00  0.00    +0.115 A 
ATOM     33  C   UNL     1       1.141  -1.184   1.369  0.00  0.00    +0.086 A 
ATOM     34  C   UNL     1       1.153  -3.482  -2.192  0.00  0.00    +0.065 C 
BRANCH  33  35
ATOM     35  C   UNL     1       1.133  -0.446   2.597  0.00  0.00    +0.102 C 
ATOM     36  N   UNL     1       1.127   0.139   3.571  0.00  0.00    -0.191 NA
ENDBRANCH  33  35
ENDBRANCH  26  32
ENDBRANCH  25  26
ENDBRANCH   1  25
TORSDOF 8
