REMARK  Name = ZINC43461720
REMARK  7 active torsions:
REMARK  status: ('A' for Active; 'I' for Inactive)
REMARK    1  A    between atoms: C_1  and  C_2
REMARK    2  A    between atoms: C_6  and  C_17
REMARK    3  A    between atoms: C_8  and  C_10
REMARK    4  A    between atoms: C_8  and  O_16
REMARK    5  A    between atoms: N_13  and  C_15
REMARK    6  A    between atoms: C_17  and  C_18
REMARK    7  A    between atoms: C_17  and  C_19
REMARK                            x       y       z     vdW  Elec       q    Type
REMARK                         _______ _______ _______ _____ _____    ______ ____
ROOT
ATOM      1  C   UNL     1      -2.287   0.808   0.020  0.00  0.00    +0.007 C 
ATOM      2  C   UNL     1      -1.370  -0.407  -0.141  0.00  0.00    -0.011 C 
ATOM      3  C   UNL     1      -2.213  -1.643  -0.462  0.00  0.00    +0.004 C 
ATOM      4  C   UNL     1      -1.297  -2.857  -0.623  0.00  0.00    +0.007 C 
ATOM      5  C   UNL     1      -0.525  -3.090   0.677  0.00  0.00    +0.028 C 
ATOM      6  C   UNL     1       0.318  -1.854   0.998  0.00  0.00    +0.097 C 
ATOM      7  C   UNL     1      -0.598  -0.639   1.159  0.00  0.00    +0.043 C 
ENDROOT
BRANCH   6   8
ATOM      8  C   UNL     1       1.079  -2.083   2.279  0.00  0.00    +0.022 A 
ATOM      9  C   UNL     1       0.525  -2.448   3.510  0.00  0.00    +0.140 A 
ATOM     10  N   UNL     1       1.497  -2.552   4.380  0.00  0.00    -0.180 NA
ATOM     11  N   UNL     1       2.701  -2.256   3.729  0.00  0.00    -0.274 N 
ATOM     12  C   UNL     1       2.418  -1.977   2.439  0.00  0.00    +0.114 A 
ATOM     13  C   UNL     1       4.034  -2.256   4.338  0.00  0.00    +0.172 C 
ENDBRANCH   6   8
BRANCH   5  14
ATOM     14  C   UNL     1       0.392  -4.304   0.516  0.00  0.00    -0.011 C 
ATOM     15  C   UNL     1      -0.458  -5.565   0.346  0.00  0.00    +0.007 C 
ATOM     16  C   UNL     1       1.277  -4.115  -0.717  0.00  0.00    +0.007 C 
ENDBRANCH   5  14
BRANCH   6  17
ATOM     17  O   UNL     1       1.240  -1.617  -0.068  0.00  0.00    -0.384 OA
ATOM     18  H   UNL     1       1.809  -0.846   0.068  0.00  0.00    +0.211 HD
ENDBRANCH   6  17
TORSDOF 3
