REMARK  Name = ZINC64316360
REMARK  6 active torsions:
REMARK  status: ('A' for Active; 'I' for Inactive)
REMARK    1  A    between atoms: C_1  and  C_2
REMARK    2  A    between atoms: C_2  and  C_3
REMARK    3  A    between atoms: C_2  and  C_4
REMARK    4  A    between atoms: C_7  and  C_10
REMARK    5  A    between atoms: C_12  and  C_15
REMARK    6  A    between atoms: C_25  and  C_27
REMARK                            x       y       z     vdW  Elec       q    Type
REMARK                         _______ _______ _______ _____ _____    ______ ____
ROOT
ATOM      1  C   UNL     1      -8.206  -3.814  -1.951  0.00  0.00    +0.270 C 
ATOM      2  O   UNL     1      -9.404  -4.025  -1.944  0.00  0.00    -0.268 OA
ATOM      3  N   UNL     1      -7.446  -4.279  -2.962  0.00  0.00    -0.254 N 
ATOM      4  C   UNL     1      -7.930  -4.963  -4.080  0.00  0.00    +0.041 A 
ATOM      5  C   UNL     1      -9.243  -5.311  -4.404  0.00  0.00    +0.024 A 
ATOM      6  C   UNL     1      -9.514  -5.994  -5.570  0.00  0.00    +0.002 A 
ATOM      7  C   UNL     1      -8.486  -6.341  -6.428  0.00  0.00    +0.000 A 
ATOM      8  C   UNL     1      -7.184  -6.000  -6.114  0.00  0.00    +0.005 A 
ATOM      9  C   UNL     1      -6.908  -5.314  -4.947  0.00  0.00    -0.024 A 
ATOM     10  C   UNL     1      -5.598  -4.827  -4.369  0.00  0.00    +0.069 C 
ATOM     11  C   UNL     1      -5.990  -4.138  -3.051  0.00  0.00    +0.171 C 
ENDROOT
BRANCH   1  14
ATOM     12  C   UNL     1      -5.755  -2.247   0.227  0.00  0.00    +0.109 A 
ATOM     13  N   UNL     1      -6.268  -2.942  -0.772  0.00  0.00    -0.234 NA
ATOM     14  C   UNL     1      -7.587  -3.049  -0.855  0.00  0.00    +0.134 A 
ATOM     15  C   UNL     1      -8.366  -2.438   0.092  0.00  0.00    +0.080 A 
ATOM     16  S   UNL     1      -7.221  -1.723   1.098  0.00  0.00    -0.075 S 
BRANCH  12  20
ATOM     17  C   UNL     1      -1.678  -1.475   1.138  0.00  0.00    -0.045 A 
ATOM     18  C   UNL     1      -2.676  -0.869   1.880  0.00  0.00    +0.004 A 
ATOM     19  C   UNL     1      -4.002  -1.115   1.589  0.00  0.00    +0.011 A 
ATOM     20  C   UNL     1      -4.335  -1.978   0.544  0.00  0.00    +0.007 A 
ATOM     21  C   UNL     1      -3.324  -2.586  -0.201  0.00  0.00    +0.011 A 
ATOM     22  C   UNL     1      -2.002  -2.327   0.097  0.00  0.00    +0.004 A 
BRANCH  17  24
ATOM     23  C   UNL     1       0.049   0.295   1.318  0.00  0.00    +0.012 C 
ATOM     24  C   UNL     1      -0.232  -1.202   1.462  0.00  0.00    +0.013 C 
ATOM     25  C   UNL     1       0.061  -1.640   2.898  0.00  0.00    +0.012 C 
ENDBRANCH  17  24
ENDBRANCH  12  20
ENDBRANCH   1  14
BRANCH  11  26
ATOM     26  C   UNL     1      -5.607  -2.681  -3.087  0.00  0.00    +0.232 C 
ATOM     27  O   UNL     1      -6.448  -1.839  -3.324  0.00  0.00    -0.274 OA
ATOM     28  N   UNL     1      -4.332  -2.313  -2.854  0.00  0.00    -0.328 N 
ATOM     29  H   UNL     1      -3.648  -2.989  -2.726  0.00  0.00    +0.145 HD
ATOM     30  H   UNL     1      -4.098  -1.372  -2.816  0.00  0.00    +0.145 HD
ENDBRANCH  11  26
TORSDOF 4
