REMARK  Name = ZINC03049926
REMARK  10 active torsions:
REMARK  status: ('A' for Active; 'I' for Inactive)
REMARK    1  A    between atoms: C_1  and  O_2
REMARK    2  A    between atoms: O_2  and  C_3
REMARK    3  A    between atoms: C_6  and  C_11
REMARK    4  A    between atoms: C_8  and  O_9
REMARK    5  A    between atoms: O_9  and  C_10
REMARK    6  A    between atoms: N_13  and  C_14
REMARK    7  A    between atoms: C_14  and  C_15
REMARK    8  A    between atoms: N_17  and  N_18
REMARK    9  A    between atoms: C_19  and  C_20
REMARK   10  A    between atoms: C_25  and  O_26
REMARK                            x       y       z     vdW  Elec       q    Type
REMARK                         _______ _______ _______ _____ _____    ______ ____
ROOT
ATOM      1  C   UNL     1       3.428   7.812   0.010  0.00  0.00    +0.202 C 
ENDROOT
BRANCH   1   4
ATOM      2  C   UNL     1       5.040   9.639   0.004  0.00  0.00    +0.245 C 
ATOM      3  O   UNL     1       4.110  10.421   0.017  0.00  0.00    -0.270 OA
ATOM      4  N   UNL     1       4.805   8.312  -0.001  0.00  0.00    -0.303 N 
ATOM      5  H   UNL     1       5.548   7.687  -0.011  0.00  0.00    +0.150 HD
BRANCH   2   9
ATOM      6  C   UNL     1       9.037  11.083  -0.025  0.00  0.00    +0.162 A 
ATOM      7  C   UNL     1       8.793   9.717  -0.030  0.00  0.00    +0.050 A 
ATOM      8  C   UNL     1       7.498   9.245  -0.015  0.00  0.00    +0.017 A 
ATOM      9  C   UNL     1       6.428  10.142  -0.006  0.00  0.00    +0.040 A 
ATOM     10  C   UNL     1       6.673  11.518  -0.002  0.00  0.00    +0.062 A 
ATOM     11  C   UNL     1       7.973  11.984  -0.011  0.00  0.00    +0.162 A 
BRANCH   6  13
ATOM     12  C   UNL     1      11.356  10.565  -0.049  0.00  0.00    +0.277 C 
ATOM     13  O   UNL     1      10.315  11.543  -0.035  0.00  0.00    -0.491 OA
ENDBRANCH   6  13
BRANCH  11  14
ATOM     14  O   UNL     1       8.216  13.323  -0.007  0.00  0.00    -0.491 OA
ATOM     15  C   UNL     1       7.079  14.188   0.007  0.00  0.00    +0.277 C 
ENDBRANCH  11  14
ENDBRANCH   2   9
ENDBRANCH   1   4
BRANCH   1  16
ATOM     16  C   UNL     1       3.441   6.305   0.002  0.00  0.00    +0.249 C 
ATOM     17  O   UNL     1       4.496   5.707  -0.011  0.00  0.00    -0.272 OA
ATOM     18  N   UNL     1       2.279   5.621   0.009  0.00  0.00    -0.206 N 
ATOM     19  H   UNL     1       1.435   6.099   0.020  0.00  0.00    +0.177 HD
BRANCH  18  20
ATOM     20  N   UNL     1       2.291   4.220   0.002  0.00  0.00    -0.188 NA
ATOM     21  C   UNL     1       1.172   3.562   0.009  0.00  0.00    +0.142 C 
BRANCH  21  22
ATOM     22  C   UNL     1       1.185   2.088   0.002  0.00  0.00    +0.037 A 
ATOM     23  C   UNL     1      -0.017   1.376   0.010  0.00  0.00    +0.028 A 
ATOM     24  C   UNL     1       0.002  -0.004   0.002  0.00  0.00    +0.019 A 
ATOM     25  C   UNL     1       1.208  -0.686  -0.013  0.00  0.00    +0.019 A 
ATOM     26  C   UNL     1       2.403   0.008  -0.020  0.00  0.00    +0.047 A 
ATOM     27  C   UNL     1       2.402   1.394  -0.013  0.00  0.00    +0.126 A 
ATOM     28 BR   UNL     1      -1.625  -0.968   0.012  0.00  0.00    -0.050 Br
BRANCH  27  29
ATOM     29  O   UNL     1       3.576   2.076  -0.021  0.00  0.00    -0.506 OA
ATOM     30  H   UNL     1       3.908   2.278  -0.906  0.00  0.00    +0.292 HD
ENDBRANCH  27  29
ENDBRANCH  21  22
ENDBRANCH  18  20
ENDBRANCH   1  16
TORSDOF 8
