REMARK  Name = ZINC02085468
REMARK  7 active torsions:
REMARK  status: ('A' for Active; 'I' for Inactive)
REMARK    1  A    between atoms: C_2  and  C_3
REMARK    2  A    between atoms: C_3  and  O_4
REMARK    3  A    between atoms: O_4  and  C_5
REMARK    4  A    between atoms: C_8  and  C_11
REMARK    5  A    between atoms: N_13  and  N_14
REMARK    6  A    between atoms: C_15  and  C_26
REMARK    7  A    between atoms: C_35  and  O_36
REMARK                            x       y       z     vdW  Elec       q    Type
REMARK                         _______ _______ _______ _____ _____    ______ ____
ROOT
ATOM      1  N   UNL     1       2.342   4.107   0.255  0.00  0.00    -0.191 N 
ATOM      2  C   UNL     1       3.615   3.432   0.504  0.00  0.00    +0.216 C 
ATOM      3  N   UNL     1       3.629   2.115  -0.143  0.00  0.00    -0.320 N 
ATOM      4  C   UNL     1       2.502   1.308  -0.030  0.00  0.00    +0.041 A 
ATOM      5  C   UNL     1       2.586  -0.074  -0.042  0.00  0.00    +0.024 A 
ATOM      6  C   UNL     1       1.435  -0.830   0.080  0.00  0.00    +0.002 A 
ATOM      7  C   UNL     1       0.200  -0.215   0.214  0.00  0.00    +0.001 A 
ATOM      8  C   UNL     1       0.099   1.160   0.226  0.00  0.00    +0.015 A 
ATOM      9  C   UNL     1       1.250   1.934   0.102  0.00  0.00    +0.059 A 
ATOM     10  C   UNL     1       1.199   3.407   0.101  0.00  0.00    +0.266 C 
ATOM     11  O   UNL     1       0.138   3.985  -0.038  0.00  0.00    -0.268 OA
ATOM     12  H   UNL     1       4.406   1.814  -0.639  0.00  0.00    +0.148 HD
ENDROOT
BRANCH   2  13
ATOM     13  C   UNL     1       3.803   3.259   1.990  0.00  0.00    +0.041 A 
ATOM     14  C   UNL     1       4.867   2.487   2.483  0.00  0.00    -0.008 A 
ATOM     15  C   UNL     1       5.785   1.872   1.613  0.00  0.00    +0.009 A 
ATOM     16  C   UNL     1       6.808   1.136   2.126  0.00  0.00    +0.001 A 
ATOM     17  C   UNL     1       6.966   0.987   3.503  0.00  0.00    +0.001 A 
ATOM     18  C   UNL     1       6.100   1.573   4.375  0.00  0.00    +0.008 A 
ATOM     19  C   UNL     1       5.031   2.340   3.883  0.00  0.00    -0.017 A 
ATOM     20  C   UNL     1       4.118   2.960   4.754  0.00  0.00    +0.012 A 
ATOM     21  C   UNL     1       3.094   3.697   4.245  0.00  0.00    +0.046 A 
ATOM     22  C   UNL     1       2.934   3.848   2.864  0.00  0.00    +0.124 A 
BRANCH  22  23
ATOM     23  O   UNL     1       1.901   4.590   2.386  0.00  0.00    -0.506 OA
ATOM     24  H   UNL     1       1.093   4.084   2.228  0.00  0.00    +0.292 HD
ENDBRANCH  22  23
ENDBRANCH   2  13
BRANCH   1  27
ATOM     25  C   UNL     1       2.205   6.110  -1.024  0.00  0.00    +0.260 C 
ATOM     26  O   UNL     1       2.140   5.442  -2.038  0.00  0.00    -0.269 OA
ATOM     27  N   UNL     1       2.308   5.505   0.176  0.00  0.00    -0.226 N 
ATOM     28  H   UNL     1       2.360   6.038   0.985  0.00  0.00    +0.173 HD
BRANCH  25  32
ATOM     29  C   UNL     1       2.104  10.348  -1.265  0.00  0.00    +0.121 A 
ATOM     30  C   UNL     1       2.030   9.586  -2.425  0.00  0.00    +0.046 A 
ATOM     31  C   UNL     1       2.062   8.212  -2.351  0.00  0.00    +0.016 A 
ATOM     32  C   UNL     1       2.170   7.583  -1.108  0.00  0.00    +0.038 A 
ATOM     33  C   UNL     1       2.238   8.353   0.056  0.00  0.00    +0.016 A 
ATOM     34  C   UNL     1       2.211   9.727  -0.026  0.00  0.00    +0.046 A 
BRANCH  29  35
ATOM     35  O   UNL     1       2.071  11.703  -1.342  0.00  0.00    -0.488 OA
BRANCH  35  36
ATOM     36  C   UNL     1       2.151  12.425  -0.111  0.00  0.00    +0.256 C 
BRANCH  36  38
ATOM     37  C   UNL     1       1.336  14.683   0.332  0.00  0.00    +0.007 C 
ATOM     38  C   UNL     1       2.101  13.904  -0.392  0.00  0.00    +0.006 C 
ENDBRANCH  36  38
ENDBRANCH  35  36
ENDBRANCH  29  35
ENDBRANCH  25  32
ENDBRANCH   1  27
TORSDOF 7
