REMARK  Name = ZINC35464569
REMARK  13 active torsions:
REMARK  status: ('A' for Active; 'I' for Inactive)
REMARK    1  A    between atoms: C_1  and  C_2
REMARK    2  A    between atoms: C_2  and  C_3
REMARK    3  A    between atoms: C_3  and  C_4
REMARK    4  A    between atoms: C_4  and  C_5
REMARK    5  A    between atoms: C_5  and  C_6
REMARK    6  A    between atoms: C_6  and  O_8
REMARK    7  A    between atoms: O_8  and  C_9
REMARK    8  A    between atoms: C_15  and  O_31
REMARK    9  A    between atoms: C_17  and  O_30
REMARK   10  A    between atoms: C_18  and  C_29
REMARK   11  A    between atoms: C_21  and  C_27
REMARK   12  A    between atoms: C_21  and  C_28
REMARK   13  A    between atoms: C_24  and  O_26
REMARK                            x       y       z     vdW  Elec       q    Type
REMARK                         _______ _______ _______ _____ _____    ______ ____
ROOT
ATOM      1  C   UNL     1      -4.389  -6.555  -0.520  0.00  0.00    +0.204 C 
ATOM      2  C   UNL     1      -4.600  -7.154  -1.891  0.00  0.00    +0.022 C 
ATOM      3  C   UNL     1      -5.492  -8.057  -2.100  0.00  0.00    -0.008 C 
ATOM      4  C   UNL     1      -5.938  -8.784  -3.351  0.00  0.00    +0.196 C 
ATOM      5  O   UNL     1      -7.384  -8.795  -3.199  0.00  0.00    -0.344 OA
ATOM      6  C   UNL     1      -7.633  -9.124  -1.812  0.00  0.00    +0.284 C 
ATOM      7  C   UNL     1      -6.409  -8.643  -1.031  0.00  0.00    +0.148 C 
ATOM      8  C   UNL     1      -6.708  -7.491  -0.056  0.00  0.00    +0.038 C 
ATOM      9  C   UNL     1      -5.353  -7.087   0.525  0.00  0.00    +0.051 C 
ATOM     10  C   UNL     1      -5.420  -6.250   1.785  0.00  0.00    -0.028 C 
ATOM     11  C   UNL     1      -6.356  -6.903   2.814  0.00  0.00    +0.009 C 
ATOM     12  C   UNL     1      -7.747  -7.060   2.205  0.00  0.00    +0.032 C 
ATOM     13  C   UNL     1      -7.665  -8.011   1.012  0.00  0.00    +0.124 C 
ATOM     14  C   UNL     1      -5.888  -4.813   1.573  0.00  0.00    +0.011 C 
ATOM     15  C   UNL     1      -4.018  -6.201   2.426  0.00  0.00    +0.011 C 
ATOM     16  C   UNL     1      -7.364  -6.338  -0.829  0.00  0.00    +0.017 C 
ENDROOT
BRANCH  13  17
ATOM     17  O   UNL     1      -7.261  -9.297   1.483  0.00  0.00    -0.391 OA
ATOM     18  H   UNL     1      -7.840  -9.667   2.163  0.00  0.00    +0.210 HD
ENDBRANCH  13  17
BRANCH   7  19
ATOM     19  O   UNL     1      -5.752  -9.733  -0.382  0.00  0.00    -0.378 OA
ATOM     20  H   UNL     1      -5.500 -10.451  -0.979  0.00  0.00    +0.211 HD
ENDBRANCH   7  19
BRANCH   6  21
ATOM     21  O   UNL     1      -7.768 -10.544  -1.676  0.00  0.00    -0.364 OA
ATOM     22  H   UNL     1      -8.506 -10.918  -2.176  0.00  0.00    +0.213 HD
ENDBRANCH   6  21
BRANCH   1  23
ATOM     23  O   UNL     1      -4.432  -5.141  -0.665  0.00  0.00    -0.457 OA
BRANCH  23  24
ATOM     24  C   UNL     1      -3.295  -4.530  -1.034  0.00  0.00    +0.308 C 
ATOM     25  O   UNL     1      -2.296  -5.181  -1.228  0.00  0.00    -0.251 OA
BRANCH  24  26
ATOM     26  C   UNL     1      -3.265  -3.034  -1.207  0.00  0.00    +0.120 C 
BRANCH  26  27
ATOM     27  C   UNL     1      -1.860  -2.597  -1.629  0.00  0.00    +0.011 C 
BRANCH  27  28
ATOM     28  C   UNL     1      -1.830  -1.078  -1.804  0.00  0.00    +0.000 C 
BRANCH  28  30
ATOM     29  C   UNL     1      -0.395   0.878  -2.401  0.00  0.00    +0.004 C 
ATOM     30  C   UNL     1      -0.425  -0.641  -2.226  0.00  0.00    -0.003 C 
ENDBRANCH  28  30
ENDBRANCH  27  28
ENDBRANCH  26  27
ENDBRANCH  24  26
ENDBRANCH  23  24
ENDBRANCH   1  23
TORSDOF 9
