REMARK  Name = ZINC39327483
REMARK  5 active torsions:
REMARK  status: ('A' for Active; 'I' for Inactive)
REMARK    1  A    between atoms: C_5  and  C_7
REMARK    2  A    between atoms: C_11  and  N_30
REMARK    3  A    between atoms: C_12  and  C_16
REMARK    4  A    between atoms: N_18  and  C_19
REMARK    5  A    between atoms: C_20  and  C_28
REMARK                            x       y       z     vdW  Elec       q    Type
REMARK                         _______ _______ _______ _____ _____    ______ ____
ROOT
ATOM      1  C   UNL     1       1.266  -2.147  -0.023  0.00  0.00    +0.090 A 
ATOM      2  C   UNL     1       2.495  -2.813  -0.033  0.00  0.00    +0.030 A 
ATOM      3  C   UNL     1       2.542  -4.174  -0.042  0.00  0.00    +0.014 A 
ATOM      4  C   UNL     1       1.329  -4.909  -0.039  0.00  0.00    +0.029 A 
ATOM      5  C   UNL     1       1.144  -6.352  -0.046  0.00  0.00    +0.053 A 
ATOM      6  C   UNL     1      -0.143  -6.846  -0.042  0.00  0.00    +0.097 A 
ATOM      7  S   UNL     1      -1.150  -5.376  -0.028  0.00  0.00    -0.062 S 
ATOM      8  C   UNL     1       0.135  -4.151  -0.029  0.00  0.00    +0.111 A 
ATOM      9  N   UNL     1       0.133  -2.837  -0.016  0.00  0.00    -0.238 NA
ENDROOT
BRANCH   1  14
ATOM     10  C   UNL     1      -0.017   1.380   0.010  0.00  0.00    +0.004 A 
ATOM     11  C   UNL     1       1.194   2.059   0.002  0.00  0.00    +0.020 A 
ATOM     12  C   UNL     1       2.375   1.339  -0.013  0.00  0.00    +0.111 A 
ATOM     13  N   UNL     1       2.364   0.022  -0.021  0.00  0.00    -0.253 NA
ATOM     14  C   UNL     1       1.229  -0.664  -0.014  0.00  0.00    +0.089 A 
ATOM     15  C   UNL     1       0.002  -0.004   0.002  0.00  0.00    +0.030 A 
ENDBRANCH   1  14
BRANCH   6  16
ATOM     16  C   UNL     1      -0.564  -8.199  -0.048  0.00  0.00    +0.257 C 
ATOM     17  O   UNL     1       0.263  -9.094  -0.058  0.00  0.00    -0.269 OA
ATOM     18  N   UNL     1      -1.878  -8.496  -0.042  0.00  0.00    -0.274 N 
ATOM     19  H   UNL     1      -2.536  -7.783  -0.034  0.00  0.00    +0.156 HD
BRANCH  18  20
ATOM     20  C   UNL     1      -2.290  -9.820  -0.048  0.00  0.00    +0.090 A 
ATOM     21  C   UNL     1      -3.587 -10.308  -0.049  0.00  0.00    +0.084 A 
ATOM     22  C   UNL     1      -3.753 -11.751  -0.055  0.00  0.00    -0.018 A 
ATOM     23  C   UNL     1      -2.591 -12.441  -0.059  0.00  0.00    -0.004 A 
ATOM     24  S   UNL     1      -1.332 -11.199  -0.062  0.00  0.00    -0.077 S 
ATOM     25  C   UNL     1      -2.429 -13.930  -0.064  0.00  0.00    +0.043 C 
ATOM     26  C   UNL     1      -3.776 -14.562   0.316  0.00  0.00    +0.005 C 
ATOM     27  C   UNL     1      -4.883 -13.910  -0.516  0.00  0.00    +0.005 C 
ATOM     28  C   UNL     1      -5.096 -12.465  -0.059  0.00  0.00    +0.037 C 
BRANCH  21  29
ATOM     29  C   UNL     1      -4.716  -9.428  -0.044  0.00  0.00    +0.102 C 
ATOM     30  N   UNL     1      -5.611  -8.729  -0.040  0.00  0.00    -0.191 NA
ENDBRANCH  21  29
ENDBRANCH  18  20
ENDBRANCH   6  16
BRANCH   5  31
ATOM     31  N   UNL     1       2.235  -7.209  -0.057  0.00  0.00    -0.356 N 
ATOM     32  H   UNL     1       3.136  -6.848  -0.061  0.00  0.00    +0.142 HD
ATOM     33  H   UNL     1       2.098  -8.169  -0.062  0.00  0.00    +0.142 HD
ENDBRANCH   5  31
TORSDOF 5
