REMARK  Name = ZINC08618429
REMARK  8 active torsions:
REMARK  status: ('A' for Active; 'I' for Inactive)
REMARK    1  A    between atoms: C_1  and  C_2
REMARK    2  A    between atoms: C_2  and  C_31
REMARK    3  A    between atoms: C_3  and  N_17
REMARK    4  A    between atoms: N_5  and  N_9
REMARK    5  A    between atoms: C_10  and  C_11
REMARK    6  A    between atoms: N_17  and  O_30
REMARK    7  A    between atoms: N_20  and  C_21
REMARK    8  A    between atoms: C_24  and  N_27
REMARK                            x       y       z     vdW  Elec       q    Type
REMARK                         _______ _______ _______ _____ _____    ______ ____
ROOT
ATOM      1  C   UNL     1       0.109   0.234  -0.766  0.00  0.00    +0.026 C 
ATOM      2  C   UNL     1       0.633  -1.167  -0.443  0.00  0.00    +0.056 C 
ATOM      3  C   UNL     1       1.916  -1.495  -1.253  0.00  0.00    +0.232 C 
ATOM      4  N   UNL     1       2.861  -2.258  -0.459  0.00  0.00    -0.187 N 
ATOM      5  C   UNL     1       2.776  -2.245   0.886  0.00  0.00    +0.132 C 
ATOM      6  S   UNL     1       3.821  -3.018   2.001  0.00  0.00    -0.026 S 
ATOM      7  S   UNL     1       1.342  -1.249   1.256  0.00  0.00    -0.091 S 
ATOM      8  C   UNL     1      -0.449  -2.228  -0.651  0.00  0.00    +0.026 C 
ENDROOT
BRANCH   3   9
ATOM      9  N   UNL     1       2.548  -0.243  -1.677  0.00  0.00    -0.143 N 
ATOM     10  C   UNL     1       2.957  -0.093  -2.952  0.00  0.00    +0.331 C 
ATOM     11  O   UNL     1       2.716  -0.956  -3.774  0.00  0.00    -0.250 OA
ATOM     12  N   UNL     1       3.634   1.014  -3.317  0.00  0.00    -0.268 N 
ATOM     13  H   UNL     1       3.910   1.657  -2.645  0.00  0.00    +0.156 HD
BRANCH  12  14
ATOM     14  C   UNL     1       3.937   1.236  -4.665  0.00  0.00    +0.035 A 
ATOM     15  C   UNL     1       3.057   0.818  -5.654  0.00  0.00    +0.025 A 
ATOM     16  C   UNL     1       3.359   1.039  -6.984  0.00  0.00    +0.034 A 
ATOM     17  C   UNL     1       4.537   1.676  -7.330  0.00  0.00    +0.126 A 
ATOM     18  C   UNL     1       5.415   2.094  -6.347  0.00  0.00    +0.034 A 
ATOM     19  C   UNL     1       5.116   1.881  -5.016  0.00  0.00    +0.025 A 
BRANCH  17  20
ATOM     20  N   UNL     1       4.857   1.912  -8.756  0.00  0.00    +0.056 N 
ATOM     21  O   UNL     1       4.090   1.547  -9.616  0.00  0.00    -0.126 OA
ATOM     22  O   UNL     1       5.886   2.469  -9.060  0.00  0.00    -0.126 OA
ENDBRANCH  17  20
ENDBRANCH  12  14
BRANCH   9  23
ATOM     23  O   UNL     1       2.730   0.809  -0.746  0.00  0.00    -0.289 OA
ATOM     24  H   UNL     1       3.087   1.619  -1.134  0.00  0.00    +0.242 HD
ENDBRANCH   9  23
ENDBRANCH   3   9
BRANCH   4  25
ATOM     25  N   UNL     1       3.862  -3.007  -1.091  0.00  0.00    -0.184 NA
ATOM     26  C   UNL     1       3.540  -3.983  -1.883  0.00  0.00    +0.138 C 
BRANCH  26  27
ATOM     27  C   UNL     1       4.587  -4.699  -2.635  0.00  0.00    -0.005 A 
ATOM     28  C   UNL     1       5.928  -4.332  -2.494  0.00  0.00    +0.009 A 
ATOM     29  C   UNL     1       6.902  -5.006  -3.201  0.00  0.00    +0.001 A 
ATOM     30  C   UNL     1       6.553  -6.042  -4.049  0.00  0.00    +0.000 A 
ATOM     31  C   UNL     1       5.227  -6.410  -4.195  0.00  0.00    +0.001 A 
ATOM     32  C   UNL     1       4.244  -5.750  -3.489  0.00  0.00    +0.009 A 
ENDBRANCH  26  27
ENDBRANCH   4  25
TORSDOF 6
