REMARK  Name = ZINC40422145
REMARK  5 active torsions:
REMARK  status: ('A' for Active; 'I' for Inactive)
REMARK    1  A    between atoms: C_4  and  S_8
REMARK    2  A    between atoms: C_6  and  N_7
REMARK    3  A    between atoms: S_8  and  C_9
REMARK    4  A    between atoms: C_9  and  C_10
REMARK    5  A    between atoms: N_12  and  C_13
REMARK                            x       y       z     vdW  Elec       q    Type
REMARK                         _______ _______ _______ _____ _____    ______ ____
ROOT
ATOM      1  S   UNL     1       3.837  -0.838  -0.040  0.00  0.00    -0.077 S 
ENDROOT
BRANCH   1   5
ATOM      2  C   UNL     1      -0.017   1.388   0.010  0.00  0.00    +0.086 A 
ATOM      3  C   UNL     1       1.198   2.067   0.002  0.00  0.00    +0.122 A 
ATOM      4  N   UNL     1       2.331   1.368  -0.013  0.00  0.00    -0.207 NA
ATOM      5  C   UNL     1       2.311   0.043  -0.020  0.00  0.00    +0.192 A 
ATOM      6  N   UNL     1       1.173  -0.636  -0.013  0.00  0.00    -0.207 NA
ATOM      7  C   UNL     1       0.002  -0.004   0.002  0.00  0.00    +0.122 A 
ATOM      8  N   UNL     1       1.228   3.453   0.008  0.00  0.00    -0.343 N 
ATOM      9  H   UNL     1       0.398   3.956   0.019  0.00  0.00    +0.144 HD
ATOM     10  H   UNL     1       2.078   3.920   0.003  0.00  0.00    +0.144 HD
BRANCH   7  11
ATOM     11  N   UNL     1      -1.183  -0.723   0.010  0.00  0.00    -0.343 N 
ATOM     12  H   UNL     1      -2.034  -0.255   0.021  0.00  0.00    +0.144 HD
ATOM     13  H   UNL     1      -1.163  -1.692   0.004  0.00  0.00    +0.144 HD
ENDBRANCH   7  11
ENDBRANCH   1   5
BRANCH   1  14
ATOM     14  C   UNL     1       3.337  -2.581  -0.044  0.00  0.00    +0.173 C 
BRANCH  14  15
ATOM     15  C   UNL     1       4.564  -3.456  -0.061  0.00  0.00    +0.224 C 
ATOM     16  O   UNL     1       5.667  -2.952  -0.069  0.00  0.00    -0.275 OA
ATOM     17  N   UNL     1       4.435  -4.797  -0.067  0.00  0.00    -0.309 N 
ATOM     18  H   UNL     1       3.553  -5.200  -0.060  0.00  0.00    +0.149 HD
BRANCH  17  19
ATOM     19  C   UNL     1       5.628  -5.647  -0.083  0.00  0.00    +0.113 C 
ATOM     20  C   UNL     1       6.110  -5.793  -1.544  0.00  0.00    +0.189 C 
ATOM     21  S   UNL     1       6.695  -7.544  -1.558  0.00  0.00    -0.028 S 
ATOM     22  O   UNL     1       6.425  -8.121  -2.828  0.00  0.00    -0.174 OA
ATOM     23  O   UNL     1       8.009  -7.605  -1.021  0.00  0.00    -0.174 OA
ATOM     24  C   UNL     1       5.495  -8.203  -0.319  0.00  0.00    +0.187 C 
ATOM     25  C   UNL     1       5.290  -6.972   0.585  0.00  0.00    +0.123 C 
ATOM     26 CL   UNL     1       6.326  -7.159   2.049  0.00  0.00    -0.118 Cl
ENDBRANCH  17  19
ENDBRANCH  14  15
ENDBRANCH   1  14
TORSDOF 5
