REMARK  Name = ZINC12296708
REMARK  7 active torsions:
REMARK  status: ('A' for Active; 'I' for Inactive)
REMARK    1  A    between atoms: C_1  and  O_2
REMARK    2  A    between atoms: O_2  and  C_3
REMARK    3  A    between atoms: C_12  and  C_13
REMARK    4  A    between atoms: C_13  and  C_14
REMARK    5  A    between atoms: C_14  and  N_15
REMARK    6  A    between atoms: C_16  and  C_18
REMARK    7  A    between atoms: C_18  and  N_19
REMARK                            x       y       z     vdW  Elec       q    Type
REMARK                         _______ _______ _______ _____ _____    ______ ____
ROOT
ATOM      1  C   UNL     1      -4.416  -2.002   2.583  0.00  0.00    +0.201 C 
ENDROOT
BRANCH   1   2
ATOM      2  N   UNL     1      -3.319  -1.565   1.716  0.00  0.00    -0.291 N 
ATOM      3  C   UNL     1      -3.344  -0.334   1.166  0.00  0.00    +0.303 C 
ATOM      4  O   UNL     1      -4.229   0.446   1.461  0.00  0.00    -0.253 OA
ATOM      5  N   UNL     1      -2.388   0.032   0.290  0.00  0.00    -0.280 N 
ATOM      6  C   UNL     1      -2.459   1.325  -0.408  0.00  0.00    +0.114 C 
ATOM      7  C   UNL     1      -1.271   2.192   0.028  0.00  0.00    +0.056 C 
ATOM      8  C   UNL     1      -0.019   1.352   0.010  0.00  0.00    -0.016 A 
ATOM      9  C   UNL     1       1.360   1.798   0.000  0.00  0.00    +0.003 A 
ATOM     10  C   UNL     1       1.946   3.067  -0.005  0.00  0.00    +0.010 A 
ATOM     11  C   UNL     1       3.318   3.118  -0.013  0.00  0.00    +0.001 A 
ATOM     12  C   UNL     1       4.096   1.972  -0.018  0.00  0.00    +0.002 A 
ATOM     13  C   UNL     1       3.543   0.703  -0.015  0.00  0.00    +0.026 A 
ATOM     14  C   UNL     1       2.152   0.621  -0.006  0.00  0.00    +0.047 A 
ATOM     15  N   UNL     1       1.298  -0.444  -0.002  0.00  0.00    -0.356 N 
ATOM     16  H   UNL     1       1.567  -1.376  -0.004  0.00  0.00    +0.166 HD
ATOM     17  C   UNL     1       0.003   0.002   0.006  0.00  0.00    +0.038 A 
ATOM     18  C   UNL     1      -1.245  -0.853   0.006  0.00  0.00    +0.162 C 
ATOM     19  H   UNL     1      -2.575  -2.160   1.537  0.00  0.00    +0.151 HD
ENDBRANCH   1   2
BRANCH   1  21
ATOM     20  N   UNL     1      -5.028  -4.017   3.880  0.00  0.00    -0.314 N 
ATOM     21  C   UNL     1      -4.147  -3.404   3.064  0.00  0.00    +0.230 C 
ATOM     22  O   UNL     1      -3.139  -3.982   2.716  0.00  0.00    -0.274 OA
ATOM     23  H   UNL     1      -5.834  -3.555   4.158  0.00  0.00    +0.149 HD
BRANCH  20  24
ATOM     24  C   UNL     1      -4.767  -5.381   4.348  0.00  0.00    +0.109 C 
BRANCH  24  25
ATOM     25  C   UNL     1      -5.912  -5.837   5.253  0.00  0.00    +0.056 C 
BRANCH  25  35
ATOM     26  C   UNL     1      -3.472  -8.967   8.893  0.00  0.00    +0.122 A 
ATOM     27  C   UNL     1      -3.439  -7.576   8.834  0.00  0.00    +0.046 A 
ATOM     28  C   UNL     1      -4.109  -6.909   7.849  0.00  0.00    +0.014 A 
ATOM     29  C   UNL     1      -4.828  -7.624   6.890  0.00  0.00    +0.003 A 
ATOM     30  C   UNL     1      -4.872  -9.029   6.946  0.00  0.00    +0.050 A 
ATOM     31  C   UNL     1      -4.183  -9.693   7.956  0.00  0.00    +0.071 A 
ATOM     32  N   UNL     1      -5.650  -9.454   5.893  0.00  0.00    -0.360 N 
ATOM     33  H   UNL     1      -5.849 -10.381   5.685  0.00  0.00    +0.165 HD
ATOM     34  C   UNL     1      -6.101  -8.374   5.182  0.00  0.00    +0.087 A 
ATOM     35  C   UNL     1      -5.644  -7.240   5.734  0.00  0.00    -0.021 A 
BRANCH  26  37
ATOM     36  C   UNL     1      -2.083  -8.809  10.816  0.00  0.00    +0.277 C 
ATOM     37  O   UNL     1      -2.799  -9.617   9.879  0.00  0.00    -0.495 OA
ENDBRANCH  26  37
ENDBRANCH  25  35
ENDBRANCH  24  25
ENDBRANCH  20  24
ENDBRANCH   1  21
TORSDOF 6
