REMARK  Name = ZINC52550531
REMARK  15 active torsions:
REMARK  status: ('A' for Active; 'I' for Inactive)
REMARK    1  A    between atoms: C_1  and  C_2
REMARK    2  A    between atoms: C_2  and  C_3
REMARK    3  A    between atoms: C_3  and  N_4
REMARK    4  A    between atoms: N_7  and  S_10
REMARK    5  A    between atoms: S_10  and  C_13
REMARK    6  A    between atoms: C_15  and  C_26
REMARK    7  A    between atoms: C_16  and  O_19
REMARK    8  A    between atoms: O_19  and  C_20
REMARK    9  A    between atoms: C_20  and  C_22
REMARK   10  A    between atoms: C_20  and  C_23
REMARK   11  A    between atoms: C_23  and  O_24
REMARK   12  A    between atoms: O_24  and  C_25
REMARK   13  A    between atoms: N_32  and  C_39
REMARK   14  A    between atoms: C_33  and  C_37
REMARK   15  A    between atoms: C_37  and  C_38
REMARK                            x       y       z     vdW  Elec       q    Type
REMARK                         _______ _______ _______ _____ _____    ______ ____
ROOT
ATOM      1  C   UNL     1      -3.850  -4.558   3.326  0.00  0.00    +0.124 A 
ATOM      2  C   UNL     1      -3.139  -4.346   4.495  0.00  0.00    +0.046 A 
ATOM      3  C   UNL     1      -3.805  -3.776   5.584  0.00  0.00    +0.080 A 
ATOM      4  C   UNL     1      -5.161  -3.442   5.448  0.00  0.00    +0.226 A 
ATOM      5  N   UNL     1      -5.794  -3.666   4.309  0.00  0.00    -0.219 NA
ATOM      6  C   UNL     1      -5.184  -4.198   3.267  0.00  0.00    +0.143 A 
ENDROOT
BRANCH   3   7
ATOM      7  C   UNL     1      -3.094  -3.528   6.856  0.00  0.00    +0.158 C 
ATOM      8  N   UNL     1      -3.765  -2.991   7.860  0.00  0.00    -0.155 NA
ATOM      9  C   UNL     1      -3.171  -2.745   9.036  0.00  0.00    +0.291 C 
ATOM     10  O   UNL     1      -3.789  -2.250   9.965  0.00  0.00    -0.266 OA
ATOM     11  C   UNL     1      -1.742  -3.094   9.168  0.00  0.00    +0.168 C 
ATOM     12  N   UNL     1      -0.871  -2.994  10.148  0.00  0.00    -0.177 NA
ATOM     13  N   UNL     1       0.307  -3.419   9.864  0.00  0.00    -0.249 N 
ATOM     14  C   UNL     1       0.306  -3.905   8.472  0.00  0.00    +0.143 C 
ATOM     15  C   UNL     1      -1.117  -3.665   8.030  0.00  0.00    +0.097 C 
ATOM     16  N   UNL     1      -1.803  -3.862   6.940  0.00  0.00    -0.230 NA
ATOM     17  C   UNL     1       1.457  -3.421  10.772  0.00  0.00    +0.152 C 
BRANCH  14  18
ATOM     18  C   UNL     1       1.286  -3.099   7.617  0.00  0.00    +0.027 C 
ATOM     19  C   UNL     1       1.366  -3.712   6.218  0.00  0.00    +0.006 C 
ENDBRANCH  14  18
ENDBRANCH   3   7
BRANCH   1  20
ATOM     20  S   UNL     1      -3.060  -5.275   1.924  0.00  0.00    +0.062 S 
ATOM     21  O   UNL     1      -4.087  -5.861   1.135  0.00  0.00    -0.153 OA
ATOM     22  O   UNL     1      -1.957  -6.022   2.416  0.00  0.00    -0.153 OA
BRANCH  20  26
ATOM     23  N   UNL     1      -1.762  -1.433   0.246  0.00  0.00    +0.381 N 
ATOM     24  C   UNL     1      -1.107  -2.022   1.422  0.00  0.00    -0.061 C 
ATOM     25  C   UNL     1      -1.061  -3.546   1.270  0.00  0.00    +0.091 C 
ATOM     26  N   UNL     1      -2.429  -4.032   1.030  0.00  0.00    -0.180 NA
ATOM     27  C   UNL     1      -3.219  -3.383  -0.028  0.00  0.00    +0.091 C 
ATOM     28  C   UNL     1      -3.163  -1.867   0.185  0.00  0.00    -0.061 C 
ATOM     29  H   UNL     1      -1.281  -1.734  -0.589  0.00  0.00    -0.082 HD
BRANCH  23  30
ATOM     30  C   UNL     1      -1.708   0.032   0.340  0.00  0.00    -0.079 C 
BRANCH  30  32
ATOM     31  C   UNL     1      -0.194   2.019   0.376  0.00  0.00    +0.002 C 
ATOM     32  C   UNL     1      -0.250   0.493   0.278  0.00  0.00    -0.022 C 
ENDBRANCH  30  32
ENDBRANCH  23  30
ENDBRANCH  20  26
ENDBRANCH   1  20
BRANCH   4  33
ATOM     33  O   UNL     1      -5.826  -2.888   6.490  0.00  0.00    -0.471 OA
BRANCH  33  34
ATOM     34  C   UNL     1      -7.205  -2.572   6.286  0.00  0.00    +0.198 C 
ATOM     35  C   UNL     1      -8.067  -3.775   6.676  0.00  0.00    +0.054 C 
BRANCH  34  36
ATOM     36  C   UNL     1      -7.586  -1.369   7.151  0.00  0.00    +0.203 C 
BRANCH  36  37
ATOM     37  O   UNL     1      -7.479  -1.723   8.531  0.00  0.00    -0.379 OA
ATOM     38  C   UNL     1      -7.816  -0.663   9.430  0.00  0.00    +0.194 C 
ENDBRANCH  36  37
ENDBRANCH  34  36
ENDBRANCH  33  34
ENDBRANCH   4  33
TORSDOF 10
