REMARK  Name = ZINC38689073
REMARK  9 active torsions:
REMARK  status: ('A' for Active; 'I' for Inactive)
REMARK    1  A    between atoms: C_1  and  C_2
REMARK    2  A    between atoms: C_7  and  C_31
REMARK    3  A    between atoms: C_9  and  N_12
REMARK    4  A    between atoms: C_13  and  C_15
REMARK    5  A    between atoms: C_15  and  N_16
REMARK    6  A    between atoms: C_19  and  C_22
REMARK    7  A    between atoms: C_19  and  N_25
REMARK    8  A    between atoms: C_31  and  O_33
REMARK    9  A    between atoms: O_33  and  C_34
REMARK                            x       y       z     vdW  Elec       q    Type
REMARK                         _______ _______ _______ _____ _____    ______ ____
ROOT
ATOM      1  N   UNL     1      -1.213  -2.580   1.646  0.00  0.00    -0.285 N 
ATOM      2  C   UNL     1      -1.216  -1.803   2.747  0.00  0.00    +0.231 C 
ATOM      3  O   UNL     1      -1.357  -0.603   2.641  0.00  0.00    -0.274 OA
ATOM      4  H   UNL     1      -1.157  -3.545   1.733  0.00  0.00    +0.155 HD
ENDROOT
BRANCH   1  12
ATOM      5  C   UNL     1      -0.820  -5.822  -2.837  0.00  0.00    +0.044 C 
ATOM      6  C   UNL     1      -1.001  -4.371  -2.474  0.00  0.00    -0.050 A 
ATOM      7  C   UNL     1      -1.123  -3.423  -3.494  0.00  0.00    +0.005 A 
ATOM      8  C   UNL     1      -1.287  -2.104  -3.230  0.00  0.00    +0.026 A 
ATOM      9  C   UNL     1      -1.340  -1.655  -1.885  0.00  0.00    +0.045 A 
ATOM     10  N   UNL     1      -1.489  -0.450  -1.373  0.00  0.00    -0.367 N 
ATOM     11  C   UNL     1      -1.473  -0.545   0.090  0.00  0.00    +0.234 C 
ATOM     12  C   UNL     1      -1.288  -2.011   0.410  0.00  0.00    +0.053 C 
ATOM     13  C   UNL     1      -1.211  -2.656  -0.812  0.00  0.00    +0.018 A 
ATOM     14  C   UNL     1      -1.047  -4.017  -1.166  0.00  0.00    +0.015 A 
ATOM     15  H   UNL     1      -1.593   0.369  -1.883  0.00  0.00    +0.161 HD
BRANCH  11  16
ATOM     16  C   UNL     1      -2.778  -0.049   0.657  0.00  0.00    +0.335 C 
ATOM     17  O   UNL     1      -3.819  -0.336   0.117  0.00  0.00    -0.248 OA
BRANCH  16  18
ATOM     18  O   UNL     1      -2.783   0.713   1.762  0.00  0.00    -0.466 OA
ATOM     19  C   UNL     1      -4.056   1.148   2.244  0.00  0.00    +0.280 C 
ENDBRANCH  16  18
ENDBRANCH  11  16
ENDBRANCH   1  12
BRANCH   2  20
ATOM     20  C   UNL     1      -1.044  -2.424   4.109  0.00  0.00    +0.180 C 
BRANCH  20  21
ATOM     21  N   UNL     1      -1.083  -1.374   5.135  0.00  0.00    -0.294 NA
ATOM     22  C   UNL     1      -2.410  -0.747   5.196  0.00  0.00    +0.084 C 
ATOM     23  C   UNL     1      -2.373   0.434   6.168  0.00  0.00    +0.013 C 
ATOM     24  C   UNL     1      -1.960  -0.066   7.555  0.00  0.00    +0.015 C 
ATOM     25  C   UNL     1      -0.598  -0.757   7.455  0.00  0.00    +0.013 C 
ATOM     26  C   UNL     1      -0.686  -1.904   6.446  0.00  0.00    +0.084 C 
BRANCH  24  27
ATOM     27  N   UNL     1      -1.866   1.073   8.479  0.00  0.00    +0.389 N 
ATOM     28  C   UNL     1      -0.829   1.999   8.009  0.00  0.00    -0.077 C 
ATOM     29  C   UNL     1      -0.783   3.225   8.922  0.00  0.00    -0.019 C 
ATOM     30  C   UNL     1      -0.461   2.779  10.351  0.00  0.00    -0.004 C 
ATOM     31  C   UNL     1      -1.507   1.757  10.805  0.00  0.00    -0.019 C 
ATOM     32  C   UNL     1      -1.526   0.585   9.821  0.00  0.00    -0.077 C 
ATOM     33  H   UNL     1      -2.753   1.552   8.511  0.00  0.00    -0.080 HD
ENDBRANCH  24  27
BRANCH  24  34
ATOM     34  C   UNL     1      -2.986  -1.045   8.064  0.00  0.00    +0.200 C 
ATOM     35  O   UNL     1      -2.786  -2.238   7.967  0.00  0.00    -0.278 OA
ATOM     36  N   UNL     1      -4.126  -0.597   8.626  0.00  0.00    -0.330 N 
ATOM     37  H   UNL     1      -4.319   0.354   8.638  0.00  0.00    +0.145 HD
ATOM     38  H   UNL     1      -4.753  -1.224   9.018  0.00  0.00    +0.145 HD
ENDBRANCH  24  34
ENDBRANCH  20  21
ENDBRANCH   2  20
TORSDOF 7
