REMARK  Name = ZINC67187981
REMARK  9 active torsions:
REMARK  status: ('A' for Active; 'I' for Inactive)
REMARK    1  A    between atoms: C_1  and  C_2
REMARK    2  A    between atoms: C_3  and  C_15
REMARK    3  A    between atoms: N_5  and  C_7
REMARK    4  A    between atoms: C_15  and  N_16
REMARK    5  A    between atoms: N_16  and  C_17
REMARK    6  A    between atoms: C_17  and  C_18
REMARK    7  A    between atoms: C_23  and  N_24
REMARK    8  A    between atoms: N_24  and  C_25
REMARK    9  A    between atoms: N_24  and  C_26
REMARK                            x       y       z     vdW  Elec       q    Type
REMARK                         _______ _______ _______ _____ _____    ______ ____
ROOT
ATOM      1  C   UNL     1       0.068  -0.747  -3.001  0.00  0.00    -0.041 C 
ENDROOT
BRANCH   1   4
ATOM      2  C   UNL     1       0.654   0.941  -0.386  0.00  0.00    +0.068 C 
ATOM      3  C   UNL     1       0.453  -0.551  -0.447  0.00  0.00    +0.063 A 
ATOM      4  C   UNL     1       0.194  -1.295  -1.603  0.00  0.00    -0.005 A 
ATOM      5  C   UNL     1       0.077  -2.596  -1.244  0.00  0.00    +0.134 A 
ATOM      6  N   UNL     1       0.257  -2.669   0.100  0.00  0.00    -0.220 N 
ATOM      7  N   UNL     1       0.496  -1.372   0.571  0.00  0.00    -0.170 NA
ATOM      8 CL   UNL     1      -0.245  -3.929  -2.309  0.00  0.00    -0.062 Cl
BRANCH   6   9
ATOM      9  C   UNL     1       0.215  -3.836   0.877  0.00  0.00    +0.085 A 
ATOM     10  C   UNL     1       0.933  -4.958   0.486  0.00  0.00    +0.029 A 
ATOM     11  C   UNL     1       0.891  -6.105   1.254  0.00  0.00    +0.002 A 
ATOM     12  C   UNL     1       0.135  -6.138   2.411  0.00  0.00    +0.002 A 
ATOM     13  C   UNL     1      -0.582  -5.023   2.804  0.00  0.00    +0.022 A 
ATOM     14  C   UNL     1      -0.539  -3.869   2.043  0.00  0.00    +0.066 A 
ATOM     15 CL   UNL     1      -1.433  -2.466   2.540  0.00  0.00    -0.081 Cl
ENDBRANCH   6   9
ENDBRANCH   1   4
BRANCH   1  16
ATOM     16  N   UNL     1       1.387  -0.744  -3.647  0.00  0.00    +0.385 N 
ATOM     17  H   UNL     1       2.021  -0.166  -3.115  0.00  0.00    -0.085 HD
ATOM     18  H   UNL     1       1.744  -1.687  -3.686  0.00  0.00    -0.085 HD
BRANCH  16  19
ATOM     19  C   UNL     1       1.264  -0.209  -5.009  0.00  0.00    -0.043 C 
BRANCH  19  20
ATOM     20  C   UNL     1       2.600  -0.288  -5.702  0.00  0.00    -0.026 A 
ATOM     21  C   UNL     1       3.406   0.832  -5.800  0.00  0.00    +0.006 A 
ATOM     22  C   UNL     1       4.629   0.713  -6.447  0.00  0.00    +0.018 A 
ATOM     23  C   UNL     1       5.002  -0.509  -6.971  0.00  0.00    +0.084 A 
ATOM     24  N   UNL     1       4.212  -1.560  -6.863  0.00  0.00    -0.349 N 
ATOM     25  C   UNL     1       3.041  -1.489  -6.248  0.00  0.00    +0.100 A 
ATOM     26  H   UNL     1       4.497  -2.407  -7.240  0.00  0.00    +0.167 HD
BRANCH  25  27
ATOM     27  N   UNL     1       2.243  -2.623  -6.152  0.00  0.00    -0.323 N 
ATOM     28  C   UNL     1       1.184  -2.860  -7.136  0.00  0.00    +0.130 C 
ATOM     29  C   UNL     1       2.462  -3.583  -5.066  0.00  0.00    +0.130 C 
ENDBRANCH  25  27
ENDBRANCH  19  20
ENDBRANCH  16  19
ENDBRANCH   1  16
TORSDOF 6
