REMARK  Name = ZINC34784933
REMARK  10 active torsions:
REMARK  status: ('A' for Active; 'I' for Inactive)
REMARK    1  A    between atoms: C_1  and  C_2
REMARK    2  A    between atoms: C_2  and  C_3
REMARK    3  A    between atoms: C_2  and  C_4
REMARK    4  A    between atoms: C_2  and  N_5
REMARK    5  A    between atoms: C_6  and  N_28
REMARK    6  A    between atoms: C_7  and  N_16
REMARK    7  A    between atoms: C_8  and  C_10
REMARK    8  A    between atoms: N_19  and  C_20
REMARK    9  A    between atoms: C_20  and  C_21
REMARK   10  A    between atoms: C_21  and  C_22
REMARK                            x       y       z     vdW  Elec       q    Type
REMARK                         _______ _______ _______ _____ _____    ______ ____
ROOT
ATOM      1  N   UNL     1       0.578  -0.343  -1.373  0.00  0.00    -0.243 N 
ATOM      2  C   UNL     1       0.426  -1.587  -1.904  0.00  0.00    +0.137 A 
ATOM      3  C   UNL     1       1.463  -1.799  -2.762  0.00  0.00    +0.102 A 
ATOM      4  C   UNL     1       2.272  -0.644  -2.752  0.00  0.00    +0.116 A 
ATOM      5  N   UNL     1       1.734   0.226  -1.922  0.00  0.00    -0.167 NA
ENDROOT
BRANCH   4   6
ATOM      6  C   UNL     1       3.511  -0.442  -3.542  0.00  0.00    +0.004 A 
ATOM      7  C   UNL     1       4.363  -1.515  -3.794  0.00  0.00    +0.010 A 
ATOM      8  C   UNL     1       5.514  -1.321  -4.530  0.00  0.00    +0.001 A 
ATOM      9  C   UNL     1       5.822  -0.064  -5.019  0.00  0.00    +0.000 A 
ATOM     10  C   UNL     1       4.980   1.005  -4.772  0.00  0.00    +0.001 A 
ATOM     11  C   UNL     1       3.824   0.821  -4.042  0.00  0.00    +0.010 A 
ENDBRANCH   4   6
BRANCH   3  12
ATOM     12  N   UNL     1       1.688  -2.965  -3.524  0.00  0.00    -0.265 N 
ATOM     13  C   UNL     1       1.943  -2.869  -4.844  0.00  0.00    +0.304 C 
ATOM     14  O   UNL     1       2.041  -1.775  -5.366  0.00  0.00    -0.253 OA
ATOM     15  N   UNL     1       2.090  -3.985  -5.585  0.00  0.00    -0.299 N 
ATOM     16  H   UNL     1       1.658  -3.836  -3.099  0.00  0.00    +0.157 HD
ATOM     17  H   UNL     1       2.012  -4.857  -5.169  0.00  0.00    +0.150 HD
BRANCH  15  18
ATOM     18  C   UNL     1       2.368  -3.880  -7.020  0.00  0.00    +0.110 C 
BRANCH  18  19
ATOM     19  C   UNL     1       2.488  -5.283  -7.620  0.00  0.00    +0.054 C 
BRANCH  19  20
ATOM     20  C   UNL     1       2.774  -5.175  -9.095  0.00  0.00    -0.046 A 
ATOM     21  C   UNL     1       1.730  -5.124 -10.000  0.00  0.00    +0.004 A 
ATOM     22  C   UNL     1       1.992  -5.025 -11.353  0.00  0.00    +0.000 A 
ATOM     23  C   UNL     1       3.299  -4.977 -11.803  0.00  0.00    +0.000 A 
ATOM     24  C   UNL     1       4.343  -5.028 -10.898  0.00  0.00    +0.000 A 
ATOM     25  C   UNL     1       4.081  -5.122  -9.544  0.00  0.00    +0.004 A 
ENDBRANCH  19  20
ENDBRANCH  18  19
ENDBRANCH  15  18
ENDBRANCH   3  12
BRANCH   1  27
ATOM     26  C   UNL     1       0.207   1.691  -0.067  0.00  0.00    +0.036 C 
ATOM     27  C   UNL     1      -0.315   0.292  -0.401  0.00  0.00    +0.057 C 
ATOM     28  C   UNL     1      -0.364  -0.552   0.874  0.00  0.00    +0.036 C 
ATOM     29  C   UNL     1      -1.721   0.401  -0.996  0.00  0.00    +0.036 C 
ENDBRANCH   1  27
BRANCH   2  30
ATOM     30  N   UNL     1      -0.605  -2.483  -1.620  0.00  0.00    -0.342 N 
ATOM     31  H   UNL     1      -1.301  -2.238  -0.990  0.00  0.00    +0.144 HD
ATOM     32  H   UNL     1      -0.625  -3.351  -2.052  0.00  0.00    +0.144 HD
ENDBRANCH   2  30
TORSDOF 7
