REMARK  Name = ZINC13639721
REMARK  5 active torsions:
REMARK  status: ('A' for Active; 'I' for Inactive)
REMARK    1  A    between atoms: C_4  and  N_7
REMARK    2  A    between atoms: C_8  and  C_10
REMARK    3  A    between atoms: C_17  and  C_26
REMARK    4  A    between atoms: C_29  and  O_33
REMARK    5  A    between atoms: C_31  and  O_32
REMARK                            x       y       z     vdW  Elec       q    Type
REMARK                         _______ _______ _______ _____ _____    ______ ____
ROOT
ATOM      1  C   UNL     1      -3.822   3.473  -1.279  0.00  0.00    +0.058 A 
ATOM      2  C   UNL     1      -4.345   2.257  -1.715  0.00  0.00    +0.015 A 
ATOM      3  C   UNL     1      -3.828   1.072  -1.239  0.00  0.00    +0.001 A 
ATOM      4  C   UNL     1      -2.791   1.093  -0.320  0.00  0.00    +0.006 A 
ATOM      5  C   UNL     1      -2.266   2.285   0.127  0.00  0.00    -0.019 A 
ATOM      6  C   UNL     1      -2.762   3.503  -0.349  0.00  0.00    +0.044 A 
ATOM      7  N   UNL     1      -2.265   4.742   0.016  0.00  0.00    -0.336 N 
ATOM      8  C   UNL     1      -1.199   4.775   1.036  0.00  0.00    +0.108 C 
ATOM      9  C   UNL     1      -0.307   3.580   0.772  0.00  0.00    +0.029 C 
ATOM     10  C   UNL     1      -1.169   2.329   1.119  0.00  0.00    +0.049 C 
ATOM     11  C   UNL     1      -0.162   1.248   1.247  0.00  0.00    -0.023 C 
ATOM     12  C   UNL     1       0.991   1.788   1.627  0.00  0.00    -0.030 C 
ATOM     13  C   UNL     1       0.840   3.306   1.752  0.00  0.00    +0.033 C 
ATOM     14  H   UNL     1      -3.013   5.377   0.254  0.00  0.00    +0.147 HD
ENDROOT
BRANCH   8  15
ATOM     15  C   UNL     1      -0.400   6.048   0.920  0.00  0.00    +0.015 A 
ATOM     16  C   UNL     1      -0.330   6.711  -0.290  0.00  0.00    +0.012 A 
ATOM     17  C   UNL     1       0.401   7.878  -0.400  0.00  0.00    +0.046 A 
ATOM     18  C   UNL     1       1.067   8.387   0.706  0.00  0.00    +0.120 A 
ATOM     19  C   UNL     1       0.998   7.724   1.921  0.00  0.00    +0.091 A 
ATOM     20  C   UNL     1       0.259   6.556   2.030  0.00  0.00    +0.125 A 
BRANCH  20  21
ATOM     21  O   UNL     1       0.185   5.906   3.221  0.00  0.00    -0.506 OA
ATOM     22  H   UNL     1       0.929   5.312   3.392  0.00  0.00    +0.292 HD
ENDBRANCH  20  21
BRANCH  18  23
ATOM     23  O   UNL     1       1.785   9.536   0.598  0.00  0.00    -0.507 OA
ATOM     24  H   UNL     1       1.276  10.337   0.782  0.00  0.00    +0.292 HD
ENDBRANCH  18  23
ENDBRANCH   8  15
BRANCH   1  26
ATOM     25  N   UNL     1      -5.394   4.713  -2.681  0.00  0.00    -0.281 N 
ATOM     26  C   UNL     1      -4.381   4.736  -1.792  0.00  0.00    +0.250 C 
ATOM     27  O   UNL     1      -3.928   5.800  -1.415  0.00  0.00    -0.270 OA
ATOM     28  H   UNL     1      -5.806   3.869  -2.926  0.00  0.00    +0.155 HD
BRANCH  25  32
ATOM     29  C   UNL     1      -6.757   8.264  -4.378  0.00  0.00    +0.000 A 
ATOM     30  C   UNL     1      -5.418   8.119  -4.066  0.00  0.00    +0.002 A 
ATOM     31  C   UNL     1      -4.963   6.943  -3.503  0.00  0.00    +0.023 A 
ATOM     32  C   UNL     1      -5.852   5.905  -3.251  0.00  0.00    +0.034 A 
ATOM     33  C   UNL     1      -7.195   6.053  -3.572  0.00  0.00    +0.023 A 
ATOM     34  C   UNL     1      -7.645   7.234  -4.129  0.00  0.00    +0.002 A 
ENDBRANCH  25  32
ENDBRANCH   1  26
TORSDOF 5
