REMARK  Name = ZINC59384902
REMARK  8 active torsions:
REMARK  status: ('A' for Active; 'I' for Inactive)
REMARK    1  A    between atoms: C_1  and  C_2
REMARK    2  A    between atoms: C_3  and  C_17
REMARK    3  A    between atoms: C_4  and  C_10
REMARK    4  A    between atoms: N_19  and  N_20
REMARK    5  A    between atoms: C_21  and  C_22
REMARK    6  A    between atoms: C_25  and  C_28
REMARK    7  A    between atoms: C_28  and  O_30
REMARK    8  A    between atoms: O_30  and  C_31
REMARK                            x       y       z     vdW  Elec       q    Type
REMARK                         _______ _______ _______ _____ _____    ______ ____
ROOT
ATOM      1  C   UNL     1       0.633   1.225  -0.132  0.00  0.00    +0.061 C 
ATOM      2  C   UNL     1       0.379  -0.259  -0.064  0.00  0.00    +0.017 C 
ATOM      3  C   UNL     1      -0.886  -0.721  -0.165  0.00  0.00    +0.057 C 
ATOM      4  C   UNL     1      -1.097  -2.220  -0.092  0.00  0.00    +0.141 C 
ATOM      5  N   UNL     1       0.103  -3.055   0.083  0.00  0.00    -0.315 N 
ATOM      6  C   UNL     1       1.302  -2.445   0.168  0.00  0.00    +0.135 C 
ATOM      7  S   UNL     1       2.706  -3.404   0.371  0.00  0.00    -0.019 S 
ATOM      8  N   UNL     1       1.432  -1.115   0.092  0.00  0.00    -0.300 N 
ATOM      9  H   UNL     1       0.033  -4.021   0.137  0.00  0.00    +0.149 HD
ATOM     10  H   UNL     1       2.323  -0.737   0.156  0.00  0.00    +0.154 HD
ENDROOT
BRANCH   4  11
ATOM     11  C   UNL     1      -1.783  -2.655  -1.362  0.00  0.00    -0.004 A 
ATOM     12  C   UNL     1      -1.032  -3.071  -2.445  0.00  0.00    +0.007 A 
ATOM     13  C   UNL     1      -1.661  -3.470  -3.610  0.00  0.00    +0.000 A 
ATOM     14  C   UNL     1      -3.041  -3.452  -3.692  0.00  0.00    +0.001 A 
ATOM     15  C   UNL     1      -3.793  -3.035  -2.609  0.00  0.00    +0.020 A 
ATOM     16  C   UNL     1      -3.164  -2.642  -1.441  0.00  0.00    +0.046 A 
ATOM     17 CL   UNL     1      -4.107  -2.124  -0.079  0.00  0.00    -0.083 Cl
ENDBRANCH   4  11
BRANCH   3  18
ATOM     18  C   UNL     1      -1.978   0.164  -0.332  0.00  0.00    +0.263 C 
ATOM     19  O   UNL     1      -2.678   0.454   0.622  0.00  0.00    -0.269 OA
ATOM     20  N   UNL     1      -2.242   0.687  -1.545  0.00  0.00    -0.203 N 
ATOM     21  H   UNL     1      -1.727   0.405  -2.317  0.00  0.00    +0.178 HD
BRANCH  20  22
ATOM     22  N   UNL     1      -3.260   1.638  -1.692  0.00  0.00    -0.187 NA
ATOM     23  C   UNL     1      -3.451   2.214  -2.840  0.00  0.00    +0.138 C 
BRANCH  23  24
ATOM     24  C   UNL     1      -4.446   3.292  -2.968  0.00  0.00    -0.005 A 
ATOM     25  C   UNL     1      -5.183   3.700  -1.850  0.00  0.00    +0.010 A 
ATOM     26  C   UNL     1      -6.106   4.699  -1.969  0.00  0.00    +0.015 A 
ATOM     27  C   UNL     1      -6.315   5.315  -3.207  0.00  0.00    +0.059 A 
ATOM     28  C   UNL     1      -5.579   4.907  -4.324  0.00  0.00    +0.015 A 
ATOM     29  C   UNL     1      -4.651   3.912  -4.205  0.00  0.00    +0.010 A 
BRANCH  27  30
ATOM     30  C   UNL     1      -7.312   6.394  -3.334  0.00  0.00    +0.339 C 
ATOM     31  O   UNL     1      -7.952   6.748  -2.364  0.00  0.00    -0.245 OA
BRANCH  30  32
ATOM     32  O   UNL     1      -7.514   6.988  -4.527  0.00  0.00    -0.464 OA
ATOM     33  C   UNL     1      -8.495   8.025  -4.578  0.00  0.00    +0.280 C 
ENDBRANCH  30  32
ENDBRANCH  27  30
ENDBRANCH  23  24
ENDBRANCH  20  22
ENDBRANCH   3  18
TORSDOF 6
