REMARK  Name = ZINC64061232
REMARK  10 active torsions:
REMARK  status: ('A' for Active; 'I' for Inactive)
REMARK    1  A    between atoms: C_1  and  C_2
REMARK    2  A    between atoms: C_4  and  C_10
REMARK    3  A    between atoms: C_7  and  O_8
REMARK    4  A    between atoms: O_8  and  C_9
REMARK    5  A    between atoms: C_10  and  N_11
REMARK    6  A    between atoms: C_17  and  C_19
REMARK    7  A    between atoms: C_19  and  C_20
REMARK    8  A    between atoms: N_22  and  C_23
REMARK    9  A    between atoms: C_23  and  C_24
REMARK   10  A    between atoms: C_24  and  C_25
REMARK                            x       y       z     vdW  Elec       q    Type
REMARK                         _______ _______ _______ _____ _____    ______ ____
ROOT
ATOM      1  N   UNL     1       1.573  -2.954  -2.987  0.00  0.00    +0.391 N 
ATOM      2  C   UNL     1       2.272  -3.768  -1.980  0.00  0.00    -0.058 C 
ATOM      3  C   UNL     1       3.725  -3.955  -2.419  0.00  0.00    +0.085 C 
ATOM      4  N   UNL     1       3.770  -4.431  -3.799  0.00  0.00    -0.318 N 
ATOM      5  C   UNL     1       2.727  -4.333  -4.630  0.00  0.00    +0.200 C 
ATOM      6  O   UNL     1       2.850  -4.731  -5.769  0.00  0.00    -0.278 OA
ATOM      7  C   UNL     1       1.407  -3.750  -4.210  0.00  0.00    +0.028 C 
ATOM      8  H   UNL     1       4.590  -4.834  -4.126  0.00  0.00    +0.149 HD
ATOM      9  H   UNL     1       2.115  -2.129  -3.192  0.00  0.00    -0.080 HD
ENDROOT
BRANCH   1  10
ATOM     10  C   UNL     1       0.254  -2.562  -2.473  0.00  0.00    -0.042 C 
BRANCH  10  14
ATOM     11  C   UNL     1       0.725   2.090  -0.689  0.00  0.00    +0.047 C 
ATOM     12  C   UNL     1       0.653   0.603  -0.454  0.00  0.00    -0.009 A 
ATOM     13  C   UNL     1       0.494  -0.260  -1.522  0.00  0.00    +0.008 A 
ATOM     14  C   UNL     1       0.428  -1.623  -1.307  0.00  0.00    -0.063 A 
ATOM     15  C   UNL     1       0.521  -2.128  -0.023  0.00  0.00    +0.005 A 
ATOM     16  C   UNL     1       0.680  -1.271   1.048  0.00  0.00    +0.046 A 
ATOM     17  C   UNL     1       0.752   0.098   0.834  0.00  0.00    +0.123 A 
BRANCH  17  18
ATOM     18  O   UNL     1       0.915   0.944   1.886  0.00  0.00    -0.495 OA
ATOM     19  C   UNL     1       1.009   0.354   3.184  0.00  0.00    +0.277 C 
ENDBRANCH  17  18
ENDBRANCH  10  14
ENDBRANCH   1  10
BRANCH   7  20
ATOM     20  C   UNL     1       0.868  -2.856  -5.328  0.00  0.00    +0.089 C 
BRANCH  20  21
ATOM     21  C   UNL     1       1.859  -1.756  -5.613  0.00  0.00    +0.212 C 
ATOM     22  O   UNL     1       2.939  -1.755  -5.061  0.00  0.00    -0.276 OA
ATOM     23  N   UNL     1       1.544  -0.774  -6.480  0.00  0.00    -0.315 N 
ATOM     24  H   UNL     1       0.680  -0.775  -6.921  0.00  0.00    +0.149 HD
BRANCH  23  25
ATOM     25  C   UNL     1       2.506   0.295  -6.757  0.00  0.00    +0.108 C 
BRANCH  25  26
ATOM     26  C   UNL     1       1.905   1.274  -7.768  0.00  0.00    +0.052 C 
BRANCH  26  27
ATOM     27  C   UNL     1       2.895   2.373  -8.053  0.00  0.00    -0.040 C 
ATOM     28  C   UNL     1       3.777   2.428  -9.077  0.00  0.00    -0.001 A 
ATOM     29  C   UNL     1       4.068   1.515 -10.188  0.00  0.00    +0.010 A 
ATOM     30  C   UNL     1       5.031   1.850 -11.077  0.00  0.00    +0.001 A 
ATOM     31  C   UNL     1       5.757   3.043 -10.963  0.00  0.00    +0.002 A 
ATOM     32  C   UNL     1       5.547   3.932  -9.969  0.00  0.00    +0.026 A 
ATOM     33  C   UNL     1       4.557   3.683  -8.979  0.00  0.00    +0.043 A 
ATOM     34  N   UNL     1       4.172   4.376  -7.935  0.00  0.00    -0.380 N 
ATOM     35  C   UNL     1       3.099   3.642  -7.255  0.00  0.00    +0.144 C 
ATOM     36  H   UNL     1       4.534   5.233  -7.660  0.00  0.00    +0.160 HD
ENDBRANCH  26  27
ENDBRANCH  25  26
ENDBRANCH  23  25
ENDBRANCH  20  21
ENDBRANCH   7  20
TORSDOF 8
