REMARK  Name = ZINC39404345
REMARK  12 active torsions:
REMARK  status: ('A' for Active; 'I' for Inactive)
REMARK    1  A    between atoms: C_1  and  C_2
REMARK    2  A    between atoms: C_2  and  O_3
REMARK    3  A    between atoms: O_3  and  C_4
REMARK    4  A    between atoms: C_4  and  C_6
REMARK    5  A    between atoms: C_8  and  C_38
REMARK    6  A    between atoms: C_10  and  C_36
REMARK    7  A    between atoms: C_12  and  N_15
REMARK    8  A    between atoms: C_16  and  C_18
REMARK    9  A    between atoms: C_18  and  S_19
REMARK   10  A    between atoms: S_19  and  C_20
REMARK   11  A    between atoms: N_26  and  N_27
REMARK   12  A    between atoms: C_28  and  C_29
REMARK                            x       y       z     vdW  Elec       q    Type
REMARK                         _______ _______ _______ _____ _____    ______ ____
ROOT
ATOM      1  C   UNL     1      -7.457  -5.527   3.099  0.00  0.00    +0.168 C 
ENDROOT
BRANCH   1   3
ATOM      2  N   UNL     1      -5.631  -4.655   1.676  0.00  0.00    -0.302 N 
ATOM      3  C   UNL     1      -6.019  -5.506   2.647  0.00  0.00    +0.224 C 
ATOM      4  O   UNL     1      -5.212  -6.254   3.156  0.00  0.00    -0.275 OA
ATOM      5  H   UNL     1      -6.276  -4.057   1.269  0.00  0.00    +0.150 HD
BRANCH   2   9
ATOM      6  C   UNL     1      -2.907  -2.452   0.062  0.00  0.00    +0.161 C 
ATOM      7  C   UNL     1      -2.916  -3.783  -0.744  0.00  0.00    +0.029 C 
ATOM      8  C   UNL     1      -4.144  -4.599  -0.308  0.00  0.00    +0.126 C 
ATOM      9  C   UNL     1      -4.233  -4.635   1.236  0.00  0.00    +0.149 C 
ATOM     10  S   UNL     1      -3.415  -3.061   1.725  0.00  0.00    -0.122 S 
ATOM     11  C   UNL     1      -1.640  -4.574  -0.449  0.00  0.00    +0.010 C 
BRANCH   6  12
ATOM     12  C   UNL     1      -1.528  -1.847   0.100  0.00  0.00    +0.321 C 
ATOM     13  O   UNL     1      -1.198  -1.042  -0.738  0.00  0.00    -0.250 OA
BRANCH  12  14
ATOM     14  O   UNL     1      -0.665  -2.203   1.065  0.00  0.00    -0.464 OA
BRANCH  14  16
ATOM     15  C   UNL     1       1.462  -2.115   2.209  0.00  0.00    +0.048 C 
ATOM     16  C   UNL     1       0.625  -1.590   1.041  0.00  0.00    +0.229 C 
ENDBRANCH  14  16
ENDBRANCH  12  14
ENDBRANCH   6  12
BRANCH   8  17
ATOM     17  C   UNL     1      -5.362  -3.976  -0.852  0.00  0.00    +0.069 C 
ATOM     18  N   UNL     1      -6.302  -3.495  -1.272  0.00  0.00    -0.196 NA
ENDBRANCH   8  17
ENDBRANCH   2   9
ENDBRANCH   1   3
BRANCH   1  19
ATOM     19  S   UNL     1      -7.661  -6.768   4.406  0.00  0.00    -0.104 S 
BRANCH  19  20
ATOM     20  C   UNL     1      -9.421  -6.669   4.834  0.00  0.00    +0.274 C 
ATOM     21  N   UNL     1     -10.258  -6.927   3.647  0.00  0.00    -0.281 N 
ATOM     22  C   UNL     1     -10.976  -5.753   3.479  0.00  0.00    +0.231 C 
ATOM     23  N   UNL     1     -10.628  -4.869   4.445  0.00  0.00    -0.116 NA
ATOM     24  N   UNL     1      -9.778  -5.299   5.232  0.00  0.00    -0.150 NA
ATOM     25  N   UNL     1     -11.857  -5.532   2.528  0.00  0.00    -0.247 N 
ATOM     26  H   UNL     1     -10.296  -7.733   3.108  0.00  0.00    +0.152 HD
ATOM     27  H   UNL     1     -12.317  -4.679   2.482  0.00  0.00    +0.192 HD
BRANCH  25  28
ATOM     28  N   UNL     1     -12.110  -6.448   1.656  0.00  0.00    -0.179 NA
ATOM     29  C   UNL     1     -12.987  -6.228   0.710  0.00  0.00    +0.140 C 
BRANCH  29  30
ATOM     30  C   UNL     1     -13.276  -7.272  -0.282  0.00  0.00    -0.005 A 
ATOM     31  C   UNL     1     -12.618  -8.506  -0.216  0.00  0.00    +0.011 A 
ATOM     32  C   UNL     1     -12.894  -9.481  -1.151  0.00  0.00    +0.020 A 
ATOM     33  C   UNL     1     -13.819  -9.242  -2.154  0.00  0.00    +0.041 A 
ATOM     34  C   UNL     1     -14.474  -8.022  -2.226  0.00  0.00    +0.020 A 
ATOM     35  C   UNL     1     -14.213  -7.040  -1.296  0.00  0.00    +0.011 A 
ATOM     36 CL   UNL     1     -14.159 -10.475  -3.327  0.00  0.00    -0.084 Cl
ENDBRANCH  29  30
ENDBRANCH  25  28
ENDBRANCH  19  20
ENDBRANCH   1  19
TORSDOF 10
