REMARK  Name = ZINC39252920
REMARK  5 active torsions:
REMARK  status: ('A' for Active; 'I' for Inactive)
REMARK    1  A    between atoms: C_1  and  C_2
REMARK    2  A    between atoms: C_2  and  C_3
REMARK    3  A    between atoms: C_9  and  S_11
REMARK    4  A    between atoms: S_11  and  C_12
REMARK    5  A    between atoms: C_14  and  C_25
REMARK                            x       y       z     vdW  Elec       q    Type
REMARK                         _______ _______ _______ _____ _____    ______ ____
ROOT
ATOM      1  C   UNL     1       4.186  -3.345   7.019  0.00  0.00    +0.170 C 
ATOM      2  C   UNL     1       4.661  -4.141   8.219  0.00  0.00    -0.009 C 
ATOM      3  C   UNL     1       6.010  -4.021   8.566  0.00  0.00    +0.003 A 
ATOM      4  C   UNL     1       6.535  -4.726   9.668  0.00  0.00    +0.030 A 
ATOM      5  C   UNL     1       7.852  -4.591   9.985  0.00  0.00    +0.042 A 
ATOM      6  C   UNL     1       8.695  -3.768   9.241  0.00  0.00    +0.022 A 
ATOM      7  C   UNL     1       8.245  -3.062   8.166  0.00  0.00    +0.025 A 
ATOM      8  C   UNL     1       6.896  -3.154   7.781  0.00  0.00    +0.041 A 
ATOM      9  N   UNL     1       6.456  -2.461   6.726  0.00  0.00    -0.284 N 
ATOM     10  C   UNL     1       5.208  -2.492   6.303  0.00  0.00    +0.235 C 
ATOM     11  O   UNL     1       4.879  -1.834   5.333  0.00  0.00    -0.274 OA
ATOM     12 CL   UNL     1       8.494  -5.462  11.343  0.00  0.00    -0.084 Cl
ATOM     13  H   UNL     1       7.090  -1.905   6.246  0.00  0.00    +0.155 HD
ENDROOT
BRANCH   2  14
ATOM     14  C   UNL     1       3.777  -4.969   8.955  0.00  0.00    -0.020 A 
ATOM     15  C   UNL     1       2.696  -4.406   9.652  0.00  0.00    +0.008 A 
ATOM     16  C   UNL     1       1.843  -5.219  10.365  0.00  0.00    +0.001 A 
ATOM     17  C   UNL     1       2.050  -6.589  10.396  0.00  0.00    +0.000 A 
ATOM     18  C   UNL     1       3.113  -7.155   9.712  0.00  0.00    +0.001 A 
ATOM     19  C   UNL     1       3.974  -6.359   8.988  0.00  0.00    +0.008 A 
ENDBRANCH   2  14
BRANCH   1  20
ATOM     20  S   UNL     1       3.493  -4.511   5.815  0.00  0.00    -0.079 S 
BRANCH  20  27
ATOM     21  C   UNL     1       0.706  -0.431   1.275  0.00  0.00    +0.218 C 
ATOM     22  O   UNL     1       1.174   0.351   2.076  0.00  0.00    -0.275 OA
ATOM     23  N   UNL     1       0.843  -1.757   1.470  0.00  0.00    -0.263 N 
ATOM     24  C   UNL     1       1.521  -2.231   2.590  0.00  0.00    +0.189 A 
ATOM     25  N   UNL     1       2.097  -1.567   3.579  0.00  0.00    -0.125 NA
ATOM     26  N   UNL     1       2.677  -2.156   4.532  0.00  0.00    -0.133 NA
ATOM     27  C   UNL     1       2.745  -3.477   4.600  0.00  0.00    +0.161 A 
ATOM     28  S   UNL     1       1.857  -3.912   3.107  0.00  0.00    -0.024 S 
ATOM     29  H   UNL     1       0.469  -2.382   0.829  0.00  0.00    +0.157 HD
BRANCH  21  31
ATOM     30  C   UNL     1      -0.039   1.611   0.082  0.00  0.00    +0.013 C 
ATOM     31  C   UNL     1      -0.028   0.082   0.063  0.00  0.00    +0.093 C 
ENDBRANCH  21  31
ENDBRANCH  20  27
ENDBRANCH   1  20
TORSDOF 4
