REMARK  Name = ZINC36989255
REMARK  8 active torsions:
REMARK  status: ('A' for Active; 'I' for Inactive)
REMARK    1  A    between atoms: C_1  and  C_2
REMARK    2  A    between atoms: C_2  and  O_3
REMARK    3  A    between atoms: O_3  and  C_4
REMARK    4  A    between atoms: C_5  and  N_12
REMARK    5  A    between atoms: N_12  and  C_13
REMARK    6  A    between atoms: C_13  and  C_14
REMARK    7  A    between atoms: C_17  and  O_21
REMARK    8  A    between atoms: C_19  and  O_20
REMARK                            x       y       z     vdW  Elec       q    Type
REMARK                         _______ _______ _______ _____ _____    ______ ____
ROOT
ATOM      1  N   UNL     1      -1.511  -1.839  -2.413  0.00  0.00    -0.337 N 
ATOM      2  H   UNL     1      -1.398  -0.876  -2.412  0.00  0.00    +0.147 HD
ENDROOT
BRANCH   1   4
ATOM      3  C   UNL     1      -1.498  -1.850   0.006  0.00  0.00    +0.155 A 
ATOM      4  C   UNL     1      -1.586  -2.537  -1.202  0.00  0.00    +0.072 A 
ATOM      5  C   UNL     1      -1.749  -3.915  -1.202  0.00  0.00    +0.046 A 
ATOM      6  C   UNL     1      -1.823  -4.602  -0.004  0.00  0.00    +0.044 A 
ATOM      7  C   UNL     1      -1.736  -3.919   1.195  0.00  0.00    +0.039 A 
ATOM      8  C   UNL     1      -1.569  -2.546   1.202  0.00  0.00    +0.063 A 
ATOM      9 BR   UNL     1      -1.442  -1.617   2.845  0.00  0.00    -0.046 Br
ATOM     10 CL   UNL     1      -2.027  -6.326  -0.006  0.00  0.00    -0.083 Cl
BRANCH   3  11
ATOM     11  O   UNL     1      -1.339  -0.499   0.012  0.00  0.00    -0.489 OA
BRANCH  11  13
ATOM     12  C   UNL     1      -0.019   1.526   0.010  0.00  0.00    +0.048 C 
ATOM     13  C   UNL     1       0.002  -0.004   0.002  0.00  0.00    +0.226 C 
ENDBRANCH  11  13
ENDBRANCH   3  11
ENDBRANCH   1   4
BRANCH   1  14
ATOM     14  C   UNL     1      -1.604  -2.564  -3.683  0.00  0.00    +0.140 C 
BRANCH  14  15
ATOM     15  C   UNL     1      -1.495  -1.589  -4.827  0.00  0.00    +0.011 A 
ATOM     16  C   UNL     1      -2.636  -1.156  -5.476  0.00  0.00    +0.012 A 
ATOM     17  C   UNL     1      -2.540  -0.263  -6.525  0.00  0.00    +0.046 A 
ATOM     18  C   UNL     1      -1.297   0.204  -6.929  0.00  0.00    +0.120 A 
ATOM     19  C   UNL     1      -0.151  -0.228  -6.280  0.00  0.00    +0.091 A 
ATOM     20  C   UNL     1      -0.251  -1.121  -5.224  0.00  0.00    +0.125 A 
BRANCH  20  21
ATOM     21  O   UNL     1       0.870  -1.542  -4.581  0.00  0.00    -0.506 OA
ATOM     22  H   UNL     1       1.267  -2.337  -4.962  0.00  0.00    +0.292 HD
ENDBRANCH  20  21
BRANCH  18  23
ATOM     23  O   UNL     1      -1.204   1.083  -7.961  0.00  0.00    -0.507 OA
ATOM     24  H   UNL     1      -1.244   2.011  -7.693  0.00  0.00    +0.292 HD
ENDBRANCH  18  23
ENDBRANCH  14  15
ENDBRANCH   1  14
TORSDOF 7
