REMARK  Name = ZINC08254286
REMARK  7 active torsions:
REMARK  status: ('A' for Active; 'I' for Inactive)
REMARK    1  A    between atoms: C_1  and  C_2
REMARK    2  A    between atoms: C_2  and  O_3
REMARK    3  A    between atoms: O_3  and  C_4
REMARK    4  A    between atoms: C_6  and  C_11
REMARK    5  A    between atoms: C_9  and  O_10
REMARK    6  A    between atoms: C_15  and  O_22
REMARK    7  A    between atoms: C_16  and  O_21
REMARK                            x       y       z     vdW  Elec       q    Type
REMARK                         _______ _______ _______ _____ _____    ______ ____
ROOT
ATOM      1  C   UNL     1      -0.217  -4.968   0.484  0.00  0.00    -0.010 C 
ATOM      2  C   UNL     1      -1.556  -5.473   0.011  0.00  0.00    -0.050 A 
ATOM      3  C   UNL     1      -2.425  -4.572  -0.586  0.00  0.00    +0.051 A 
ATOM      4  C   UNL     1      -3.666  -4.988  -1.034  0.00  0.00    +0.158 A 
ATOM      5  C   UNL     1      -4.043  -6.319  -0.883  0.00  0.00    +0.158 A 
ATOM      6  C   UNL     1      -3.174  -7.213  -0.287  0.00  0.00    +0.053 A 
ATOM      7  C   UNL     1      -1.929  -6.792   0.158  0.00  0.00    -0.044 A 
ATOM      8  C   UNL     1      -1.014  -7.807   0.794  0.00  0.00    +0.016 C 
ATOM      9  C   UNL     1       0.093  -7.096   1.573  0.00  0.00    -0.077 C 
ATOM     10  N   UNL     1       0.712  -6.087   0.693  0.00  0.00    +0.386 N 
ATOM     11  H   UNL     1       1.573  -5.737   1.130  0.00  0.00    -0.085 HD
ATOM     12  H   UNL     1       0.937  -6.517  -0.212  0.00  0.00    -0.085 HD
ENDROOT
BRANCH   1  15
ATOM     13  C   UNL     1       0.777  -1.811  -1.336  0.00  0.00    +0.162 A 
ATOM     14  C   UNL     1       0.254  -2.669  -0.382  0.00  0.00    +0.051 A 
ATOM     15  C   UNL     1       0.357  -4.037  -0.552  0.00  0.00    -0.053 A 
ATOM     16  C   UNL     1       0.992  -4.552  -1.667  0.00  0.00    +0.006 A 
ATOM     17  C   UNL     1       1.521  -3.702  -2.619  0.00  0.00    +0.049 A 
ATOM     18  C   UNL     1       1.416  -2.330  -2.458  0.00  0.00    +0.158 A 
BRANCH  18  19
ATOM     19  O   UNL     1       1.937  -1.492  -3.394  0.00  0.00    -0.503 OA
ATOM     20  H   UNL     1       2.856  -1.242  -3.231  0.00  0.00    +0.292 HD
ENDBRANCH  18  19
BRANCH  13  21
ATOM     21  O   UNL     1       0.671  -0.465  -1.174  0.00  0.00    -0.489 OA
BRANCH  21  23
ATOM     22  C   UNL     1      -0.019   1.526   0.010  0.00  0.00    +0.048 C 
ATOM     23  C   UNL     1       0.002  -0.004   0.002  0.00  0.00    +0.226 C 
ENDBRANCH  21  23
ENDBRANCH  13  21
ENDBRANCH   1  15
BRANCH   5  24
ATOM     24  O   UNL     1      -5.262  -6.738  -1.317  0.00  0.00    -0.503 OA
ATOM     25  H   UNL     1      -5.268  -7.047  -2.234  0.00  0.00    +0.292 HD
ENDBRANCH   5  24
BRANCH   4  26
ATOM     26  O   UNL     1      -4.514  -4.100  -1.619  0.00  0.00    -0.503 OA
ATOM     27  H   UNL     1      -4.412  -4.032  -2.578  0.00  0.00    +0.292 HD
ENDBRANCH   4  26
TORSDOF 6
