REMARK  Name = ZINC12181212
REMARK  7 active torsions:
REMARK  status: ('A' for Active; 'I' for Inactive)
REMARK    1  A    between atoms: C_1  and  C_2
REMARK    2  A    between atoms: C_5  and  C_29
REMARK    3  A    between atoms: C_5  and  C_30
REMARK    4  A    between atoms: C_13  and  C_15
REMARK    5  A    between atoms: C_15  and  N_16
REMARK    6  A    between atoms: C_19  and  N_28
REMARK    7  A    between atoms: C_21  and  C_23
REMARK                            x       y       z     vdW  Elec       q    Type
REMARK                         _______ _______ _______ _____ _____    ______ ____
ROOT
ATOM      1  C   UNL     1       2.320  -1.852   0.111  0.00  0.00    +0.243 C 
ENDROOT
BRANCH   1  13
ATOM      2  C   UNL     1      -3.610   0.103  -1.404  0.00  0.00    +0.012 C 
ATOM      3  C   UNL     1      -2.116   0.392  -1.238  0.00  0.00    +0.020 C 
ATOM      4  C   UNL     1      -1.580  -0.395  -0.042  0.00  0.00    +0.033 C 
ATOM      5  C   UNL     1      -0.052  -0.267  -0.009  0.00  0.00    +0.037 C 
ATOM      6  N   UNL     1       0.478  -0.888  -1.230  0.00  0.00    -0.264 N 
ATOM      7  C   UNL     1      -0.146  -0.611  -2.456  0.00  0.00    +0.040 A 
ATOM      8  C   UNL     1      -1.391  -0.001  -2.497  0.00  0.00    -0.023 A 
ATOM      9  C   UNL     1      -1.985   0.255  -3.721  0.00  0.00    +0.006 A 
ATOM     10  C   UNL     1      -1.343  -0.091  -4.894  0.00  0.00    +0.000 A 
ATOM     11  C   UNL     1      -0.101  -0.696  -4.854  0.00  0.00    +0.002 A 
ATOM     12  C   UNL     1       0.499  -0.957  -3.637  0.00  0.00    +0.024 A 
ATOM     13  C   UNL     1       1.545  -1.710  -1.174  0.00  0.00    +0.242 C 
ATOM     14  O   UNL     1       1.881  -2.337  -2.157  0.00  0.00    -0.273 OA
ATOM     15  C   UNL     1       0.344   1.210   0.035  0.00  0.00    +0.032 C 
ATOM     16  C   UNL     1       0.502  -0.988   1.222  0.00  0.00    +0.032 C 
ENDBRANCH   1  13
BRANCH   1  17
ATOM     17  N   UNL     1       3.524  -2.650  -0.131  0.00  0.00    -0.218 N 
ATOM     18  C   UNL     1       4.671  -2.042  -0.494  0.00  0.00    +0.288 A 
ATOM     19  O   UNL     1       4.709  -0.829  -0.622  0.00  0.00    -0.264 OA
ATOM     20  C   UNL     1       5.833  -2.821  -0.725  0.00  0.00    +0.094 A 
ATOM     21  C   UNL     1       5.768  -4.175  -0.576  0.00  0.00    +0.061 A 
ATOM     22  C   UNL     1       4.549  -4.777  -0.195  0.00  0.00    +0.128 A 
ATOM     23  N   UNL     1       3.480  -4.040   0.022  0.00  0.00    -0.165 NA
BRANCH  22  24
ATOM     24  C   UNL     1       4.474  -6.244  -0.032  0.00  0.00    +0.155 A 
ATOM     25  C   UNL     1       3.372  -6.951   0.334  0.00  0.00    +0.051 A 
ATOM     26  C   UNL     1       3.751  -8.308   0.360  0.00  0.00    +0.042 A 
ATOM     27  C   UNL     1       5.054  -8.361   0.021  0.00  0.00    +0.196 A 
ATOM     28  O   UNL     1       5.488  -7.112  -0.215  0.00  0.00    -0.461 OA
ENDBRANCH  22  24
BRANCH  20  29
ATOM     29  N   UNL     1       7.029  -2.210  -1.102  0.00  0.00    -0.354 N 
ATOM     30  H   UNL     1       7.069  -1.246  -1.207  0.00  0.00    +0.142 HD
ATOM     31  H   UNL     1       7.821  -2.748  -1.259  0.00  0.00    +0.142 HD
ENDBRANCH  20  29
ENDBRANCH   1  17
TORSDOF 4
