REMARK  Name = ZINC18196386
REMARK  3 active torsions:
REMARK  status: ('A' for Active; 'I' for Inactive)
REMARK    1  A    between atoms: C_3  and  O_32
REMARK    2  A    between atoms: C_6  and  C_7
REMARK    3  A    between atoms: N_13  and  C_16
REMARK                            x       y       z     vdW  Elec       q    Type
REMARK                         _______ _______ _______ _____ _____    ______ ____
ROOT
ATOM      1  C   UNL     1      -1.293  -0.774   0.011  0.00  0.00    +0.092 C 
ATOM      2  C   UNL     1      -1.350  -1.645   1.234  0.00  0.00    +0.070 A 
ATOM      3  C   UNL     1      -1.185  -3.006   1.177  0.00  0.00    +0.125 A 
ATOM      4  N   UNL     1      -1.285  -3.500   2.441  0.00  0.00    -0.276 N 
ATOM      5  H   UNL     1      -1.206  -4.431   2.698  0.00  0.00    +0.189 HD
ATOM      6  N   UNL     1      -1.522  -2.420   3.307  0.00  0.00    -0.216 N 
ATOM      7  C   UNL     1      -1.562  -1.290   2.567  0.00  0.00    +0.278 A 
ATOM      8  O   UNL     1      -1.749  -0.162   2.989  0.00  0.00    -0.265 OA
ATOM      9  N   UNL     1      -0.965  -3.652  -0.016  0.00  0.00    -0.303 N 
ATOM     10  C   UNL     1      -1.215  -2.976  -1.188  0.00  0.00    +0.017 C 
ATOM     11  C   UNL     1      -1.375  -1.638  -1.230  0.00  0.00    +0.024 C 
ATOM     12  C   UNL     1      -1.627  -0.977  -2.448  0.00  0.00    +0.162 C 
ATOM     13  O   UNL     1      -1.788   0.227  -2.447  0.00  0.00    -0.292 OA
ATOM     14  C   UNL     1      -1.701  -1.728  -3.748  0.00  0.00    +0.080 C 
ATOM     15  C   UNL     1      -0.830  -2.984  -3.645  0.00  0.00    +0.014 C 
ATOM     16  C   UNL     1      -1.312  -3.805  -2.449  0.00  0.00    +0.051 C 
ATOM     17  H   UNL     1      -0.641  -4.566  -0.032  0.00  0.00    +0.153 HD
ENDROOT
BRANCH   6  18
ATOM     18  C   UNL     1      -1.690  -2.500   4.694  0.00  0.00    +0.087 A 
ATOM     19  C   UNL     1      -0.891  -1.738   5.536  0.00  0.00    +0.049 A 
ATOM     20  C   UNL     1      -1.059  -1.819   6.906  0.00  0.00    +0.043 A 
ATOM     21  C   UNL     1      -2.022  -2.659   7.438  0.00  0.00    +0.021 A 
ATOM     22  C   UNL     1      -2.818  -3.420   6.602  0.00  0.00    +0.023 A 
ATOM     23  C   UNL     1      -2.659  -3.339   5.231  0.00  0.00    +0.066 A 
ATOM     24 CL   UNL     1      -3.664  -4.290   4.182  0.00  0.00    -0.081 Cl
ATOM     25 CL   UNL     1      -0.061  -0.867   7.960  0.00  0.00    -0.083 Cl
ENDBRANCH   6  18
BRANCH   1  31
ATOM     26  C   UNL     1      -0.017   1.378   0.010  0.00  0.00    +0.008 A 
ATOM     27  C   UNL     1       1.169   2.087   0.002  0.00  0.00    +0.046 A 
ATOM     28  C   UNL     1       2.380   1.409  -0.013  0.00  0.00    +0.117 A 
ATOM     29  C   UNL     1       2.396   0.022  -0.021  0.00  0.00    +0.046 A 
ATOM     30  C   UNL     1       1.207  -0.681  -0.013  0.00  0.00    +0.008 A 
ATOM     31  C   UNL     1       0.002  -0.004   0.002  0.00  0.00    -0.035 A 
BRANCH  28  32
ATOM     32  O   UNL     1       3.548   2.104  -0.021  0.00  0.00    -0.507 OA
ATOM     33  H   UNL     1       3.895   2.300   0.860  0.00  0.00    +0.292 HD
ENDBRANCH  28  32
ENDBRANCH   1  31
TORSDOF 3
