REMARK  Name = ZINC41004901
REMARK  11 active torsions:
REMARK  status: ('A' for Active; 'I' for Inactive)
REMARK    1  A    between atoms: C_1  and  C_2
REMARK    2  A    between atoms: C_2  and  S_3
REMARK    3  A    between atoms: S_3  and  C_4
REMARK    4  A    between atoms: C_9  and  C_18
REMARK    5  A    between atoms: C_11  and  C_15
REMARK    6  A    between atoms: C_12  and  C_14
REMARK    7  A    between atoms: C_21  and  O_26
REMARK    8  A    between atoms: C_22  and  O_24
REMARK    9  A    between atoms: O_24  and  C_25
REMARK   10  A    between atoms: O_26  and  C_27
REMARK   11  A    between atoms: C_27  and  C_28
REMARK                            x       y       z     vdW  Elec       q    Type
REMARK                         _______ _______ _______ _____ _____    ______ ____
ROOT
ATOM      1  C   UNL     1       0.393  -2.381  -1.573  0.00  0.00    +0.210 A 
ATOM      2  N   UNL     1      -0.128  -3.067  -0.544  0.00  0.00    -0.187 NA
ATOM      3  C   UNL     1       0.180  -4.330  -0.663  0.00  0.00    +0.219 A 
ATOM      4  N   UNL     1       0.921  -4.479  -1.788  0.00  0.00    -0.220 N 
ATOM      5  N   UNL     1       1.038  -3.214  -2.361  0.00  0.00    -0.141 NA
ATOM      6  C   UNL     1       1.455  -5.762  -2.240  0.00  0.00    +0.177 C 
ATOM      7  C   UNL     1       0.815  -6.875  -1.455  0.00  0.00    +0.060 C 
ATOM      8  C   UNL     1       0.087  -6.667  -0.348  0.00  0.00    +0.018 C 
ATOM      9  N   UNL     1      -0.141  -5.408   0.151  0.00  0.00    -0.287 N 
ATOM     10  C   UNL     1      -0.500  -7.853   0.372  0.00  0.00    +0.061 C 
ATOM     11  H   UNL     1      -0.512  -5.277   1.038  0.00  0.00    +0.155 HD
ENDROOT
BRANCH   6  12
ATOM     12  C   UNL     1       2.946  -5.788  -2.026  0.00  0.00    -0.015 A 
ATOM     13  C   UNL     1       3.463  -5.646  -0.751  0.00  0.00    +0.010 A 
ATOM     14  C   UNL     1       4.830  -5.669  -0.550  0.00  0.00    +0.050 A 
ATOM     15  C   UNL     1       5.687  -5.836  -1.626  0.00  0.00    +0.162 A 
ATOM     16  C   UNL     1       5.167  -5.980  -2.909  0.00  0.00    +0.162 A 
ATOM     17  C   UNL     1       3.795  -5.960  -3.103  0.00  0.00    +0.055 A 
BRANCH  16  18
ATOM     18  O   UNL     1       6.003  -6.144  -3.969  0.00  0.00    -0.491 OA
ATOM     19  C   UNL     1       5.399  -6.286  -5.256  0.00  0.00    +0.277 C 
ENDBRANCH  16  18
BRANCH  15  20
ATOM     20  O   UNL     1       7.032  -5.859  -1.430  0.00  0.00    -0.484 OA
BRANCH  20  21
ATOM     21  C   UNL     1       7.494  -5.705  -0.086  0.00  0.00    +0.267 C 
BRANCH  21  22
ATOM     22  C   UNL     1       9.000  -5.756  -0.064  0.00  0.00    +0.025 A 
ATOM     23  C   UNL     1       9.704  -5.925  -1.242  0.00  0.00    +0.010 A 
ATOM     24  C   UNL     1      11.085  -5.971  -1.222  0.00  0.00    +0.001 A 
ATOM     25  C   UNL     1      11.765  -5.849  -0.024  0.00  0.00    +0.003 A 
ATOM     26  C   UNL     1      11.064  -5.680   1.155  0.00  0.00    +0.039 A 
ATOM     27  C   UNL     1       9.680  -5.628   1.135  0.00  0.00    +0.130 A 
ATOM     28  F   UNL     1       8.994  -5.458   2.286  0.00  0.00    -0.205 F 
ENDBRANCH  21  22
ENDBRANCH  20  21
ENDBRANCH  15  20
ENDBRANCH   6  12
BRANCH   7  29
ATOM     29  C   UNL     1       0.990  -8.205  -1.906  0.00  0.00    +0.241 C 
ATOM     30  O   UNL     1       0.385  -8.600  -2.886  0.00  0.00    -0.271 OA
ATOM     31  N   UNL     1       1.827  -9.035  -1.251  0.00  0.00    -0.325 N 
ATOM     32  H   UNL     1       2.309  -8.720  -0.470  0.00  0.00    +0.145 HD
ATOM     33  H   UNL     1       1.946  -9.946  -1.560  0.00  0.00    +0.145 HD
ENDBRANCH   7  29
BRANCH   1  34
ATOM     34  S   UNL     1       0.232  -0.645  -1.830  0.00  0.00    -0.085 S 
BRANCH  34  36
ATOM     35  C   UNL     1      -0.971   1.430  -0.516  0.00  0.00    +0.016 C 
ATOM     36  C   UNL     1      -0.754  -0.081  -0.416  0.00  0.00    +0.074 C 
ENDBRANCH  34  36
ENDBRANCH   1  34
TORSDOF 8
