REMARK  Name = ZINC08645777
REMARK  9 active torsions:
REMARK  status: ('A' for Active; 'I' for Inactive)
REMARK    1  A    between atoms: C_1  and  C_2
REMARK    2  A    between atoms: C_2  and  C_3
REMARK    3  A    between atoms: C_2  and  C_4
REMARK    4  A    between atoms: C_4  and  C_6
REMARK    5  A    between atoms: C_4  and  S_12
REMARK    6  A    between atoms: S_12  and  C_13
REMARK    7  A    between atoms: C_16  and  C_25
REMARK    8  A    between atoms: N_17  and  C_18
REMARK    9  A    between atoms: C_18  and  C_19
REMARK                            x       y       z     vdW  Elec       q    Type
REMARK                         _______ _______ _______ _____ _____    ______ ____
ROOT
ATOM      1  C   UNL     1       0.002  -0.004   0.002  0.00  0.00    +0.193 A 
ATOM      2  N   UNL     1      -0.016   1.310   0.009  0.00  0.00    -0.122 NA
ATOM      3  N   UNL     1       1.184   1.769   0.000  0.00  0.00    -0.125 NA
ATOM      4  C   UNL     1       2.045   0.775  -0.013  0.00  0.00    +0.201 A 
ATOM      5  N   UNL     1       1.313  -0.392  -0.013  0.00  0.00    -0.295 N 
ENDROOT
BRANCH   4   6
ATOM      6  C   UNL     1       3.512   0.887  -0.026  0.00  0.00    +0.173 A 
ATOM      7  C   UNL     1       4.225   2.011  -0.318  0.00  0.00    +0.054 A 
ATOM      8  C   UNL     1       5.587   1.667  -0.207  0.00  0.00    +0.057 A 
ATOM      9  C   UNL     1       5.639   0.362   0.134  0.00  0.00    +0.171 A 
ATOM     10  O   UNL     1       4.384  -0.105   0.242  0.00  0.00    -0.445 OA
ATOM     11 BR   UNL     1       7.217  -0.641   0.414  0.00  0.00    -0.008 Br
ENDBRANCH   4   6
BRANCH   1  12
ATOM     12  S   UNL     1      -1.403  -1.068   0.009  0.00  0.00    -0.073 S 
BRANCH  12  13
ATOM     13  C   UNL     1      -2.729   0.163   0.029  0.00  0.00    +0.143 C 
BRANCH  13  14
ATOM     14  C   UNL     1      -4.061  -0.532  -0.086  0.00  0.00    +0.234 C 
ATOM     15  O   UNL     1      -4.177  -1.684   0.273  0.00  0.00    -0.274 OA
ATOM     16  N   UNL     1      -5.124   0.127  -0.589  0.00  0.00    -0.239 N 
ATOM     17  C   UNL     1      -6.316  -0.494  -0.692  0.00  0.00    +0.303 C 
ATOM     18  O   UNL     1      -6.431  -1.649  -0.332  0.00  0.00    -0.253 OA
ATOM     19  N   UNL     1      -7.378   0.165  -1.194  0.00  0.00    -0.313 N 
ATOM     20  H   UNL     1      -5.032   1.049  -0.876  0.00  0.00    +0.159 HD
ATOM     21  H   UNL     1      -7.286   1.087  -1.481  0.00  0.00    +0.146 HD
ATOM     22  H   UNL     1      -8.236  -0.283  -1.268  0.00  0.00    +0.146 HD
ENDBRANCH  13  14
BRANCH  13  24
ATOM     23  C   UNL     1      -3.797   1.990   1.357  0.00  0.00    +0.009 C 
ATOM     24  C   UNL     1      -2.676   0.950   1.340  0.00  0.00    +0.005 C 
ATOM     25  C   UNL     1      -2.854  -0.011   2.518  0.00  0.00    +0.009 C 
ENDBRANCH  13  24
ENDBRANCH  12  13
ENDBRANCH   1  12
BRANCH   5  26
ATOM     26  C   UNL     1       1.830  -1.763  -0.025  0.00  0.00    +0.161 C 
BRANCH  26  27
ATOM     27  C   UNL     1       1.994  -2.225  -1.450  0.00  0.00    -0.028 A 
ATOM     28  C   UNL     1       0.951  -2.865  -2.094  0.00  0.00    +0.005 A 
ATOM     29  C   UNL     1       1.099  -3.284  -3.402  0.00  0.00    +0.000 A 
ATOM     30  C   UNL     1       2.294  -3.073  -4.064  0.00  0.00    +0.000 A 
ATOM     31  C   UNL     1       3.339  -2.438  -3.420  0.00  0.00    +0.000 A 
ATOM     32  C   UNL     1       3.189  -2.014  -2.113  0.00  0.00    +0.005 A 
ENDBRANCH  26  27
ENDBRANCH   5  26
TORSDOF 7
