REMARK  Name = ZINC30910255
REMARK  10 active torsions:
REMARK  status: ('A' for Active; 'I' for Inactive)
REMARK    1  A    between atoms: C_1  and  S_2
REMARK    2  A    between atoms: S_2  and  C_3
REMARK    3  A    between atoms: C_3  and  C_4
REMARK    4  A    between atoms: C_4  and  C_5
REMARK    5  A    between atoms: C_5  and  C_7
REMARK    6  A    between atoms: C_5  and  N_17
REMARK    7  A    between atoms: C_18  and  C_20
REMARK    8  A    between atoms: C_20  and  C_21
REMARK    9  A    between atoms: C_21  and  N_22
REMARK   10  A    between atoms: N_25  and  C_26
REMARK                            x       y       z     vdW  Elec       q    Type
REMARK                         _______ _______ _______ _____ _____    ______ ____
ROOT
ATOM      1  N   UNL     1       3.969   3.741   1.236  0.00  0.00    -0.305 N 
ATOM      2  C   UNL     1       4.435   2.481   1.340  0.00  0.00    +0.215 C 
ATOM      3  O   UNL     1       4.331   1.717   0.404  0.00  0.00    -0.276 OA
ATOM      4  H   UNL     1       4.064   4.434   2.085  0.00  0.00    +0.149 HD
ENDROOT
BRANCH   1   5
ATOM      5  C   UNL     1       3.336   4.188  -0.007  0.00  0.00    +0.140 C 
BRANCH   5   6
ATOM      6  C   UNL     1       3.459   5.685  -0.124  0.00  0.00    +0.129 A 
ATOM      7  N   UNL     1       4.145   6.480   0.741  0.00  0.00    -0.340 N 
ATOM      8  H   UNL     1       4.660   6.037   1.605  0.00  0.00    +0.167 HD
ATOM      9  C   UNL     1       4.021   7.779   0.290  0.00  0.00    +0.066 A 
ATOM     10  C   UNL     1       4.489   9.007   0.739  0.00  0.00    +0.028 A 
ATOM     11  C   UNL     1       4.174  10.154   0.042  0.00  0.00    +0.002 A 
ATOM     12  C   UNL     1       3.392  10.089  -1.103  0.00  0.00    +0.002 A 
ATOM     13  C   UNL     1       2.922   8.890  -1.559  0.00  0.00    +0.030 A 
ATOM     14  C   UNL     1       3.230   7.714  -0.869  0.00  0.00    +0.089 A 
ATOM     15  N   UNL     1       2.922   6.406  -1.064  0.00  0.00    -0.231 NA
ENDBRANCH   5   6
BRANCH   5  16
ATOM     16  C   UNL     1       1.857   3.797   0.005  0.00  0.00    +0.041 C 
BRANCH  16  17
ATOM     17  C   UNL     1       1.731   2.272  -0.002  0.00  0.00    +0.071 C 
BRANCH  17  19
ATOM     18  C   UNL     1       0.002  -0.004   0.002  0.00  0.00    +0.084 C 
ATOM     19  S   UNL     1      -0.022   1.810   0.012  0.00  0.00    -0.164 S 
ENDBRANCH  17  19
ENDBRANCH  16  17
ENDBRANCH   5  16
ENDBRANCH   1   5
BRANCH   2  20
ATOM     20  C   UNL     1       5.087   2.022   2.619  0.00  0.00    +0.114 C 
BRANCH  20  21
ATOM     21  C   UNL     1       5.524   0.562   2.474  0.00  0.00    +0.115 C 
BRANCH  21  22
ATOM     22  N   UNL     1       6.157   0.116   3.717  0.00  0.00    -0.299 N 
ATOM     23  C   UNL     1       6.623  -1.144   3.821  0.00  0.00    +0.300 C 
ATOM     24  O   UNL     1       6.518  -1.910   2.883  0.00  0.00    -0.253 OA
ATOM     25  N   UNL     1       7.205  -1.555   4.965  0.00  0.00    -0.294 N 
ATOM     26  H   UNL     1       6.251   0.809   4.566  0.00  0.00    +0.150 HD
ATOM     27  H   UNL     1       7.300  -0.862   5.814  0.00  0.00    +0.151 HD
BRANCH  25  28
ATOM     28  C   UNL     1       7.712  -2.925   5.078  0.00  0.00    +0.037 C 
ATOM     29  C   UNL     1       6.562  -3.913   4.873  0.00  0.00    +0.029 C 
ATOM     30  C   UNL     1       7.092  -5.343   4.991  0.00  0.00    -0.008 C 
ATOM     31  C   UNL     1       7.700  -5.549   6.380  0.00  0.00    +0.007 C 
ATOM     32  C   UNL     1       8.850  -4.561   6.585  0.00  0.00    -0.008 C 
ATOM     33  C   UNL     1       8.320  -3.131   6.467  0.00  0.00    +0.029 C 
ATOM     34  C   UNL     1       9.921  -4.798   5.519  0.00  0.00    +0.007 C 
ATOM     35  C   UNL     1       9.314  -4.592   4.130  0.00  0.00    -0.008 C 
ATOM     36  C   UNL     1       8.164  -5.580   3.925  0.00  0.00    +0.007 C 
ATOM     37  C   UNL     1       8.784  -3.162   4.012  0.00  0.00    +0.029 C 
ENDBRANCH  25  28
ENDBRANCH  21  22
ENDBRANCH  20  21
ENDBRANCH   2  20
TORSDOF 9
