REMARK  Name = ZINC19077147
REMARK  6 active torsions:
REMARK  status: ('A' for Active; 'I' for Inactive)
REMARK    1  A    between atoms: C_1  and  C_2
REMARK    2  A    between atoms: C_2  and  C_4
REMARK    3  A    between atoms: C_2  and  N_14
REMARK    4  A    between atoms: C_15  and  C_17
REMARK    5  A    between atoms: N_23  and  S_24
REMARK    6  A    between atoms: S_24  and  C_27
REMARK                            x       y       z     vdW  Elec       q    Type
REMARK                         _______ _______ _______ _____ _____    ______ ____
ROOT
ATOM      1  C   UNL     1      -1.452   3.865  -1.571  0.00  0.00    +0.165 C 
ATOM      2  C   UNL     1      -1.603   5.389  -1.556  0.00  0.00    +0.030 C 
ATOM      3  C   UNL     1      -0.999   5.971  -2.836  0.00  0.00    +0.003 C 
ATOM      4  C   UNL     1       0.493   5.634  -2.896  0.00  0.00    +0.017 C 
ATOM      5  C   UNL     1       0.670   4.117  -2.923  0.00  0.00    +0.110 C 
ATOM      6  N   UNL     1      -0.035   3.532  -1.774  0.00  0.00    -0.165 NA
ENDROOT
BRANCH   1   8
ATOM      7  N   UNL     1      -2.988   2.471  -0.223  0.00  0.00    -0.311 N 
ATOM      8  C   UNL     1      -1.921   3.295  -0.257  0.00  0.00    +0.232 C 
ATOM      9  O   UNL     1      -1.339   3.577   0.769  0.00  0.00    -0.274 OA
ATOM     10  H   UNL     1      -3.453   2.245  -1.043  0.00  0.00    +0.149 HD
BRANCH   7  12
ATOM     11  C   UNL     1      -2.643   0.654   1.377  0.00  0.00    +0.028 C 
ATOM     12  C   UNL     1      -3.444   1.917   1.054  0.00  0.00    +0.076 C 
BRANCH  12  13
ATOM     13  C   UNL     1      -4.930   1.567   0.956  0.00  0.00    -0.010 C 
ATOM     14  C   UNL     1      -5.731   2.829   0.633  0.00  0.00    +0.012 C 
ATOM     15  C   UNL     1      -7.217   2.480   0.536  0.00  0.00    -0.010 C 
ATOM     16  C   UNL     1      -7.694   1.901   1.869  0.00  0.00    +0.007 C 
ATOM     17  C   UNL     1      -6.893   0.638   2.192  0.00  0.00    -0.010 C 
ATOM     18  C   UNL     1      -5.407   0.988   2.290  0.00  0.00    +0.012 C 
ATOM     19  C   UNL     1      -7.101  -0.396   1.084  0.00  0.00    +0.007 C 
ATOM     20  C   UNL     1      -6.625   0.183  -0.250  0.00  0.00    -0.010 C 
ATOM     21  C   UNL     1      -7.426   1.446  -0.573  0.00  0.00    +0.007 C 
ATOM     22  C   UNL     1      -5.139   0.533  -0.152  0.00  0.00    +0.012 C 
ENDBRANCH  12  13
ENDBRANCH   7  12
ENDBRANCH   1   8
BRANCH   6  23
ATOM     23  S   UNL     1       0.753   2.523  -0.725  0.00  0.00    +0.064 S 
ATOM     24  O   UNL     1       1.899   2.038  -1.411  0.00  0.00    -0.153 OA
ATOM     25  O   UNL     1      -0.231   1.656  -0.177  0.00  0.00    -0.153 OA
BRANCH  23  26
ATOM     26  C   UNL     1       1.346   3.515   0.605  0.00  0.00    +0.134 A 
ATOM     27  C   UNL     1       0.861   3.331   1.856  0.00  0.00    +0.031 A 
ATOM     28  C   UNL     1       1.307   4.098   2.932  0.00  0.00    +0.004 A 
ATOM     29  C   UNL     1       2.245   5.062   2.775  0.00  0.00    +0.031 A 
ATOM     30  C   UNL     1       2.799   5.311   1.492  0.00  0.00    +0.102 A 
ATOM     31  C   UNL     1       2.332   4.508   0.365  0.00  0.00    +0.126 A 
ATOM     32  N   UNL     1       2.933   4.847  -0.773  0.00  0.00    -0.189 NA
ATOM     33  S   UNL     1       3.925   6.007  -0.417  0.00  0.00    +0.117 S 
ATOM     34  N   UNL     1       3.719   6.200   1.125  0.00  0.00    -0.191 NA
ENDBRANCH  23  26
ENDBRANCH   6  23
TORSDOF 5
