REMARK  Name = ZINC09446419
REMARK  2 active torsions:
REMARK  status: ('A' for Active; 'I' for Inactive)
REMARK    1  A    between atoms: C_1  and  C_2
REMARK    2  A    between atoms: C_5  and  N_9
REMARK                            x       y       z     vdW  Elec       q    Type
REMARK                         _______ _______ _______ _____ _____    ______ ____
ROOT
ATOM      1  N   UNL     1      -0.965  -2.850   1.388  0.00  0.00    -0.209 N 
ATOM      2  C   UNL     1      -2.139  -2.442   0.891  0.00  0.00    +0.228 C 
ATOM      3  O   UNL     1      -3.070  -3.167   0.609  0.00  0.00    -0.275 OA
ATOM      4  C   UNL     1      -2.123  -0.939   0.734  0.00  0.00    +0.074 C 
ATOM      5  C   UNL     1      -2.139  -0.580  -0.763  0.00  0.00    -0.054 C 
ATOM      6  C   UNL     1      -2.761  -1.729  -1.578  0.00  0.00    -0.016 C 
ATOM      7  C   UNL     1      -1.579  -2.628  -1.991  0.00  0.00    -0.020 C 
ATOM      8  C   UNL     1      -0.333  -1.968  -1.368  0.00  0.00    -0.076 C 
ATOM      9  C   UNL     1       0.002  -0.004   0.002  0.00  0.00    +0.053 C 
ATOM     10  C   UNL     1      -0.707  -0.580   1.233  0.00  0.00    +0.089 C 
ATOM     11  C   UNL     1      -0.089  -1.866   1.619  0.00  0.00    +0.229 C 
ATOM     12  O   UNL     1       1.028  -2.013   2.067  0.00  0.00    -0.275 OA
ATOM     13  C   UNL     1       1.459  -0.373  -0.014  0.00  0.00    -0.026 A 
ATOM     14  C   UNL     1       2.131  -1.576  -0.026  0.00  0.00    +0.004 A 
ATOM     15  C   UNL     1       3.514  -1.596  -0.040  0.00  0.00    +0.002 A 
ATOM     16  C   UNL     1       4.220  -0.407  -0.040  0.00  0.00    +0.022 A 
ATOM     17  C   UNL     1       3.551   0.801  -0.027  0.00  0.00    +0.062 A 
ATOM     18  C   UNL     1       2.157   0.830  -0.015  0.00  0.00    +0.054 A 
ATOM     19  N   UNL     1       1.266   1.905   0.000  0.00  0.00    -0.285 N 
ATOM     20  C   UNL     1      -0.018   1.500   0.010  0.00  0.00    +0.212 C 
ATOM     21  O   UNL     1      -1.001   2.211   0.019  0.00  0.00    -0.277 OA
ATOM     22 CL   UNL     1       4.448   2.287  -0.028  0.00  0.00    -0.082 Cl
ATOM     23  H   UNL     1       1.541   2.836   0.002  0.00  0.00    +0.155 HD
ATOM     24  N   UNL     1      -0.741  -0.568  -1.129  0.00  0.00    +0.395 N 
ATOM     25  H   UNL     1      -0.587  -0.004  -1.973  0.00  0.00    -0.079 HD
ENDROOT
BRANCH   1  30
ATOM     26  C   UNL     1       0.202  -8.306   2.430  0.00  0.00    +0.044 C 
ATOM     27  C   UNL     1      -0.108  -6.858   2.154  0.00  0.00    -0.049 A 
ATOM     28  C   UNL     1       0.178  -6.315   0.915  0.00  0.00    +0.005 A 
ATOM     29  C   UNL     1      -0.105  -4.988   0.658  0.00  0.00    +0.025 A 
ATOM     30  C   UNL     1      -0.677  -4.198   1.646  0.00  0.00    +0.058 A 
ATOM     31  C   UNL     1      -0.960  -4.744   2.891  0.00  0.00    +0.040 A 
ATOM     32  C   UNL     1      -0.678  -6.074   3.140  0.00  0.00    +0.020 A 
ATOM     33 BR   UNL     1      -1.733  -3.671   4.242  0.00  0.00    -0.048 Br
ENDBRANCH   1  30
TORSDOF 1
