REMARK  Name = ZINC66924986
REMARK  9 active torsions:
REMARK  status: ('A' for Active; 'I' for Inactive)
REMARK    1  A    between atoms: C_1  and  C_2
REMARK    2  A    between atoms: C_2  and  C_3
REMARK    3  A    between atoms: N_5  and  C_6
REMARK    4  A    between atoms: C_9  and  C_12
REMARK    5  A    between atoms: C_12  and  C_14
REMARK    6  A    between atoms: C_12  and  N_15
REMARK    7  A    between atoms: N_18  and  C_19
REMARK    8  A    between atoms: C_19  and  C_20
REMARK    9  A    between atoms: C_20  and  O_30
REMARK                            x       y       z     vdW  Elec       q    Type
REMARK                         _______ _______ _______ _____ _____    ______ ____
ROOT
ATOM      1  N   UNL     1      -7.106  -4.773  -1.193  0.00  0.00    -0.293 N 
ATOM      2  C   UNL     1      -8.261  -5.066  -1.823  0.00  0.00    +0.300 C 
ATOM      3  O   UNL     1      -9.235  -4.355  -1.669  0.00  0.00    -0.253 OA
ATOM      4  N   UNL     1      -8.336  -6.146  -2.625  0.00  0.00    -0.296 N 
ATOM      5  H   UNL     1      -6.329  -5.340  -1.317  0.00  0.00    +0.151 HD
ATOM      6  H   UNL     1      -7.559  -6.714  -2.749  0.00  0.00    +0.150 HD
ENDROOT
BRANCH   1   7
ATOM      7  C   UNL     1      -7.025  -3.598  -0.322  0.00  0.00    +0.102 C 
ATOM      8  C   UNL     1      -7.524  -3.965   1.077  0.00  0.00    +0.033 C 
BRANCH   7  12
ATOM      9  C   UNL     1      -2.967  -2.279  -0.085  0.00  0.00    +0.033 A 
ATOM     10  C   UNL     1      -3.996  -1.351  -0.171  0.00  0.00    +0.023 A 
ATOM     11  C   UNL     1      -5.306  -1.780  -0.247  0.00  0.00    +0.007 A 
ATOM     12  C   UNL     1      -5.594  -3.133  -0.238  0.00  0.00    -0.027 A 
ATOM     13  C   UNL     1      -4.571  -4.059  -0.153  0.00  0.00    +0.007 A 
ATOM     14  C   UNL     1      -3.258  -3.636  -0.082  0.00  0.00    +0.023 A 
BRANCH   9  17
ATOM     15  C   UNL     1      -0.662  -2.558  -0.606  0.00  0.00    +0.217 C 
ATOM     16  O   UNL     1      -0.923  -3.614  -1.142  0.00  0.00    -0.275 OA
ATOM     17  N   UNL     1      -1.638  -1.847  -0.007  0.00  0.00    -0.286 N 
ATOM     18  H   UNL     1      -1.419  -1.036   0.478  0.00  0.00    +0.155 HD
BRANCH  15  20
ATOM     19  C   UNL     1       1.656  -3.029  -1.351  0.00  0.00    +0.013 C 
ATOM     20  C   UNL     1       0.753  -2.039  -0.612  0.00  0.00    +0.093 C 
ENDBRANCH  15  20
ENDBRANCH   9  17
ENDBRANCH   7  12
ENDBRANCH   1   7
BRANCH   4  21
ATOM     21  C   UNL     1      -9.591  -6.465  -3.310  0.00  0.00    +0.145 C 
BRANCH  21  22
ATOM     22  C   UNL     1      -9.445  -7.796  -4.050  0.00  0.00    +0.107 C 
ATOM     23  C   UNL     1      -8.298  -7.691  -5.053  0.00  0.00    +0.041 C 
ATOM     24  C   UNL     1      -8.307  -8.948  -5.932  0.00  0.00    +0.008 C 
ATOM     25  C   UNL     1      -9.534  -8.891  -6.840  0.00  0.00    +0.035 C 
ATOM     26  C   UNL     1     -10.778  -8.624  -6.034  0.00  0.00    -0.041 A 
ATOM     27  C   UNL     1     -10.737  -8.117  -4.755  0.00  0.00    -0.011 A 
ATOM     28  C   UNL     1     -11.922  -7.887  -4.068  0.00  0.00    +0.007 A 
ATOM     29  C   UNL     1     -13.139  -8.166  -4.657  0.00  0.00    +0.000 A 
ATOM     30  C   UNL     1     -13.180  -8.678  -5.940  0.00  0.00    +0.000 A 
ATOM     31  C   UNL     1     -12.003  -8.905  -6.624  0.00  0.00    +0.004 A 
BRANCH  22  32
ATOM     32  O   UNL     1      -9.153  -8.829  -3.108  0.00  0.00    -0.382 OA
ATOM     33  H   UNL     1      -9.834  -8.950  -2.432  0.00  0.00    +0.211 HD
ENDBRANCH  22  32
ENDBRANCH  21  22
ENDBRANCH   4  21
TORSDOF 7
