REMARK  Name = ZINC36914325
REMARK  3 active torsions:
REMARK  status: ('A' for Active; 'I' for Inactive)
REMARK    1  A    between atoms: C_7  and  S_14
REMARK    2  A    between atoms: C_8  and  C_11
REMARK    3  A    between atoms: S_14  and  C_15
REMARK                            x       y       z     vdW  Elec       q    Type
REMARK                         _______ _______ _______ _____ _____    ______ ____
ROOT
ATOM      1  C   UNL     1       0.021   1.373   0.161  0.00  0.00    +0.001 A 
ATOM      2  C   UNL     1       1.208   2.095   0.081  0.00  0.00    +0.002 A 
ATOM      3  C   UNL     1       2.411   1.461  -0.006  0.00  0.00    +0.028 A 
ATOM      4  C   UNL     1       2.461   0.058  -0.015  0.00  0.00    +0.072 A 
ATOM      5  C   UNL     1       1.252  -0.673   0.067  0.00  0.00    +0.015 A 
ATOM      6  C   UNL     1       0.031   0.010   0.155  0.00  0.00    +0.011 A 
ATOM      7  C   UNL     1       1.302  -2.088   0.058  0.00  0.00    +0.034 A 
ATOM      8  C   UNL     1       2.563  -2.697  -0.032  0.00  0.00    +0.044 A 
ATOM      9  C   UNL     1       3.709  -1.892  -0.110  0.00  0.00    +0.123 A 
ATOM     10  N   UNL     1       3.634  -0.586  -0.099  0.00  0.00    -0.254 NA
ENDROOT
BRANCH   8  11
ATOM     11  C   UNL     1       2.682  -4.166  -0.045  0.00  0.00    +0.097 C 
ATOM     12  N   UNL     1       3.305  -4.775  -1.055  0.00  0.00    -0.387 N 
ATOM     13  N   UNL     1       2.166  -4.886   0.952  0.00  0.00    -0.344 N 
ATOM     14  H   UNL     1       3.738  -4.250  -1.746  0.00  0.00    +0.157 HD
ATOM     15  H   UNL     1       1.712  -4.442   1.686  0.00  0.00    +0.144 HD
ATOM     16  H   UNL     1       2.244  -5.852   0.944  0.00  0.00    +0.144 HD
ATOM     17  H   UNL     1       3.326  -5.744  -1.098  0.00  0.00    +0.157 HD
ENDBRANCH   8  11
BRANCH   7  18
ATOM     18  S   UNL     1      -0.170  -3.052   0.158  0.00  0.00    -0.087 S 
BRANCH  18  19
ATOM     19  C   UNL     1      -0.646  -3.279  -1.523  0.00  0.00    +0.027 A 
ATOM     20  C   UNL     1       0.123  -2.734  -2.544  0.00  0.00    +0.016 A 
ATOM     21  C   UNL     1      -0.253  -2.914  -3.860  0.00  0.00    +0.001 A 
ATOM     22  C   UNL     1      -1.394  -3.635  -4.164  0.00  0.00    +0.001 A 
ATOM     23  C   UNL     1      -2.162  -4.178  -3.151  0.00  0.00    +0.016 A 
ATOM     24  C   UNL     1      -1.789  -4.008  -1.831  0.00  0.00    +0.032 A 
ATOM     25 BR   UNL     1      -2.835  -4.759  -0.447  0.00  0.00    -0.049 Br
ENDBRANCH  18  19
ENDBRANCH   7  18
TORSDOF 3
