REMARK  Name = ZINC39462462
REMARK  6 active torsions:
REMARK  status: ('A' for Active; 'I' for Inactive)
REMARK    1  A    between atoms: C_11  and  C_13
REMARK    2  A    between atoms: C_13  and  S_14
REMARK    3  A    between atoms: S_14  and  C_15
REMARK    4  A    between atoms: C_18  and  C_28
REMARK    5  A    between atoms: N_20  and  C_21
REMARK    6  A    between atoms: C_28  and  N_29
REMARK                            x       y       z     vdW  Elec       q    Type
REMARK                         _______ _______ _______ _____ _____    ______ ____
ROOT
ATOM      1  C   UNL     1       7.811  -1.990  -0.073  0.00  0.00    +0.180 C 
ATOM      2  N   UNL     1       7.832  -3.256   0.171  0.00  0.00    -0.162 NA
ATOM      3  N   UNL     1       9.122  -3.784   0.033  0.00  0.00    -0.248 N 
ATOM      4  C   UNL     1       9.989  -2.656  -0.350  0.00  0.00    +0.165 C 
ATOM      5  N   UNL     1       9.068  -1.507  -0.409  0.00  0.00    -0.260 N 
ATOM      6  H   UNL     1       9.391  -4.707   0.164  0.00  0.00    +0.170 HD
ENDROOT
BRANCH   5   7
ATOM      7  C   UNL     1       9.398  -0.188  -0.736  0.00  0.00    +0.038 A 
ATOM      8  C   UNL     1      10.242   0.543   0.089  0.00  0.00    +0.026 A 
ATOM      9  C   UNL     1      10.566   1.846  -0.237  0.00  0.00    +0.040 A 
ATOM     10  C   UNL     1      10.050   2.423  -1.385  0.00  0.00    +0.124 A 
ATOM     11  C   UNL     1       9.208   1.696  -2.209  0.00  0.00    +0.040 A 
ATOM     12  C   UNL     1       8.885   0.391  -1.890  0.00  0.00    +0.026 A 
ATOM     13  F   UNL     1      10.368   3.697  -1.701  0.00  0.00    -0.205 F 
ENDBRANCH   5   7
BRANCH   1  14
ATOM     14  S   UNL     1       6.360  -0.994   0.003  0.00  0.00    -0.081 S 
BRANCH  14  15
ATOM     15  C   UNL     1       5.054  -2.157   0.484  0.00  0.00    +0.151 C 
BRANCH  15  26
ATOM     16  C   UNL     1       0.199   1.998   0.572  0.00  0.00    +0.001 A 
ATOM     17  C   UNL     1       1.379   2.640   0.220  0.00  0.00    +0.002 A 
ATOM     18  C   UNL     1       2.563   1.944   0.135  0.00  0.00    +0.028 A 
ATOM     19  C   UNL     1       2.581   0.574   0.407  0.00  0.00    +0.078 A 
ATOM     20  C   UNL     1       1.380  -0.076   0.765  0.00  0.00    +0.065 A 
ATOM     21  C   UNL     1       0.191   0.647   0.844  0.00  0.00    +0.015 A 
ATOM     22  C   UNL     1       1.432  -1.519   1.044  0.00  0.00    +0.259 A 
ATOM     23  O   UNL     1       0.433  -2.139   1.357  0.00  0.00    -0.267 OA
ATOM     24  N   UNL     1       2.635  -2.130   0.939  0.00  0.00    -0.310 N 
ATOM     25  H   UNL     1       2.708  -3.081   1.115  0.00  0.00    +0.170 HD
ATOM     26  C   UNL     1       3.741  -1.424   0.587  0.00  0.00    +0.121 A 
ATOM     27  N   UNL     1       3.725  -0.151   0.335  0.00  0.00    -0.233 NA
ENDBRANCH  15  26
ENDBRANCH  14  15
ENDBRANCH   1  14
BRANCH   4  28
ATOM     28  C   UNL     1      10.621  -2.905  -1.720  0.00  0.00    -0.034 C 
BRANCH  28  29
ATOM     29  N   UNL     1       9.575  -2.896  -2.751  0.00  0.00    +0.382 N 
ATOM     30  C   UNL     1       8.740  -4.095  -2.610  0.00  0.00    -0.079 C 
ATOM     31  C   UNL     1       7.600  -4.051  -3.630  0.00  0.00    -0.019 C 
ATOM     32  C   UNL     1       8.188  -3.999  -5.043  0.00  0.00    -0.004 C 
ATOM     33  C   UNL     1       9.115  -2.786  -5.156  0.00  0.00    -0.019 C 
ATOM     34  C   UNL     1      10.199  -2.877  -4.080  0.00  0.00    -0.079 C 
ATOM     35  H   UNL     1       9.000  -2.074  -2.639  0.00  0.00    -0.082 HD
ENDBRANCH  28  29
ENDBRANCH   4  28
TORSDOF 6
