REMARK  Name = ZINC20516485
REMARK  9 active torsions:
REMARK  status: ('A' for Active; 'I' for Inactive)
REMARK    1  A    between atoms: C_1  and  C_2
REMARK    2  A    between atoms: C_2  and  C_3
REMARK    3  A    between atoms: C_2  and  O_4
REMARK    4  A    between atoms: O_4  and  C_5
REMARK    5  A    between atoms: C_5  and  C_6
REMARK    6  A    between atoms: C_6  and  C_7
REMARK    7  A    between atoms: C_7  and  N_8
REMARK    8  A    between atoms: C_18  and  S_21
REMARK    9  A    between atoms: S_21  and  C_24
REMARK                            x       y       z     vdW  Elec       q    Type
REMARK                         _______ _______ _______ _____ _____    ______ ____
ROOT
ATOM      1  N   UNL     1       2.037   5.389   0.011  0.00  0.00    -0.328 N 
ATOM      2  C   UNL     1       2.193   4.014   0.003  0.00  0.00    +0.137 A 
ATOM      3  C   UNL     1       1.070   3.182   0.008  0.00  0.00    +0.077 A 
ATOM      4  C   UNL     1       1.188   1.788   0.000  0.00  0.00    +0.087 A 
ATOM      5  C   UNL     1      -0.013   1.076   0.008  0.00  0.00    +0.036 A 
ATOM      6  C   UNL     1      -1.194   1.734   0.017  0.00  0.00    +0.048 A 
ATOM      7  S   UNL     1      -0.684   3.445   0.026  0.00  0.00    -0.092 S 
ATOM      8  N   UNL     1       2.497   1.298  -0.014  0.00  0.00    -0.192 N 
ATOM      9  C   UNL     1       3.564   2.150  -0.019  0.00  0.00    +0.204 A 
ATOM     10  N   UNL     1       3.405   3.485  -0.011  0.00  0.00    -0.209 NA
ATOM     11  C   UNL     1       4.693   1.346  -0.033  0.00  0.00    +0.249 A 
ATOM     12  N   UNL     1       4.304   0.077  -0.036  0.00  0.00    -0.108 NA
ATOM     13  N   UNL     1       3.018  -0.000  -0.025  0.00  0.00    -0.057 NA
ATOM     14  H   UNL     1       1.029   5.828   0.023  0.00  0.00    +0.147 HD
ENDROOT
BRANCH  11  15
ATOM     15  S   UNL     1       6.361   1.912  -0.044  0.00  0.00    +0.047 S 
ATOM     16  O   UNL     1       7.141   0.866  -0.607  0.00  0.00    -0.163 OA
ATOM     17  O   UNL     1       6.341   3.224  -0.590  0.00  0.00    -0.163 OA
BRANCH  15  18
ATOM     18  C   UNL     1       6.869   2.072   1.635  0.00  0.00    +0.096 A 
ATOM     19  C   UNL     1       6.689   3.271   2.300  0.00  0.00    +0.028 A 
ATOM     20  C   UNL     1       7.083   3.396   3.619  0.00  0.00    +0.017 A 
ATOM     21  C   UNL     1       7.667   2.324   4.271  0.00  0.00    +0.018 A 
ATOM     22  C   UNL     1       7.852   1.127   3.603  0.00  0.00    +0.017 A 
ATOM     23  C   UNL     1       7.453   1.002   2.286  0.00  0.00    +0.028 A 
ATOM     24 BR   UNL     1       8.212   2.496   6.073  0.00  0.00    -0.050 Br
ENDBRANCH  15  18
ENDBRANCH  11  15
BRANCH   1  25
ATOM     25  C   UNL     1       3.215   6.260   0.005  0.00  0.00    +0.105 C 
BRANCH  25  26
ATOM     26  C   UNL     1       2.768   7.723   0.017  0.00  0.00    +0.047 C 
BRANCH  26  27
ATOM     27  C   UNL     1       3.998   8.633   0.011  0.00  0.00    +0.161 C 
BRANCH  27  28
ATOM     28  O   UNL     1       3.580   9.999   0.022  0.00  0.00    -0.377 OA
BRANCH  28  30
ATOM     29  C   UNL     1       5.030  11.279  -1.427  0.00  0.00    +0.037 C 
ATOM     30  C   UNL     1       4.659  10.937   0.017  0.00  0.00    +0.112 C 
ATOM     31  C   UNL     1       4.231  12.210   0.749  0.00  0.00    +0.037 C 
ENDBRANCH  28  30
ENDBRANCH  27  28
ENDBRANCH  26  27
ENDBRANCH  25  26
ENDBRANCH   1  25
TORSDOF 7
