REMARK  Name = ZINC63214310
REMARK  4 active torsions:
REMARK  status: ('A' for Active; 'I' for Inactive)
REMARK    1  A    between atoms: C_3  and  N_11
REMARK    2  A    between atoms: C_6  and  N_7
REMARK    3  A    between atoms: N_11  and  C_12
REMARK    4  A    between atoms: C_19  and  N_21
REMARK                            x       y       z     vdW  Elec       q    Type
REMARK                         _______ _______ _______ _____ _____    ______ ____
ROOT
ATOM      1  N   UNL     1       3.286   2.283  -0.405  0.00  0.00    -0.342 N 
ATOM      2  H   UNL     1       4.039   1.693  -0.247  0.00  0.00    +0.146 HD
ENDROOT
BRANCH   1   5
ATOM      3  C   UNL     1      -0.256   2.064  -1.365  0.00  0.00    +0.034 A 
ATOM      4  C   UNL     1       0.967   2.594  -1.000  0.00  0.00    +0.026 A 
ATOM      5  C   UNL     1       2.047   1.751  -0.774  0.00  0.00    +0.042 A 
ATOM      6  C   UNL     1       1.894   0.376  -0.915  0.00  0.00    +0.041 A 
ATOM      7  C   UNL     1       0.668  -0.146  -1.279  0.00  0.00    +0.049 A 
ATOM      8  C   UNL     1      -0.405   0.697  -1.504  0.00  0.00    +0.127 A 
ATOM      9 BR   UNL     1       3.361  -0.777  -0.608  0.00  0.00    -0.048 Br
BRANCH   8  10
ATOM     10  N   UNL     1      -1.717   0.134  -1.895  0.00  0.00    +0.056 N 
ATOM     11  O   UNL     1      -2.656   0.870  -2.092  0.00  0.00    -0.126 OA
ATOM     12  O   UNL     1      -1.850  -1.062  -2.017  0.00  0.00    -0.126 OA
ENDBRANCH   8  10
ENDBRANCH   1   5
BRANCH   1  13
ATOM     13  C   UNL     1       3.446   3.732  -0.258  0.00  0.00    +0.056 C 
ATOM     14  C   UNL     1       3.009   4.139   1.162  0.00  0.00    +0.020 C 
ATOM     15  C   UNL     1       3.526   5.532   1.570  0.00  0.00    +0.002 C 
ATOM     16  C   UNL     1       3.420   6.535   0.453  0.00  0.00    +0.000 C 
ATOM     17  C   UNL     1       4.764   6.572  -0.302  0.00  0.00    -0.002 C 
ATOM     18  C   UNL     1       4.902   5.471  -1.244  0.00  0.00    -0.014 C 
ATOM     19  C   UNL     1       4.878   4.095  -0.544  0.00  0.00    -0.055 C 
BRANCH  19  20
ATOM     20  N   UNL     1       5.476   3.083  -1.425  0.00  0.00    +0.381 N 
ATOM     21  H   UNL     1       4.892   2.957  -2.239  0.00  0.00    -0.090 HD
ATOM     22  H   UNL     1       6.394   3.390  -1.714  0.00  0.00    -0.090 HD
ATOM     23  H   UNL     1       5.555   2.209  -0.929  0.00  0.00    -0.090 HD
ENDBRANCH  19  20
ENDBRANCH   1  13
TORSDOF 4
