REMARK  Name = ZINC02712640
REMARK  11 active torsions:
REMARK  status: ('A' for Active; 'I' for Inactive)
REMARK    1  A    between atoms: C_1  and  O_2
REMARK    2  A    between atoms: O_2  and  C_3
REMARK    3  A    between atoms: C_6  and  C_11
REMARK    4  A    between atoms: C_8  and  O_9
REMARK    5  A    between atoms: O_9  and  C_10
REMARK    6  A    between atoms: N_13  and  C_14
REMARK    7  A    between atoms: C_15  and  N_33
REMARK    8  A    between atoms: C_17  and  S_22
REMARK    9  A    between atoms: S_22  and  C_23
REMARK   10  A    between atoms: C_23  and  C_24
REMARK   11  A    between atoms: C_27  and  N_30
REMARK                            x       y       z     vdW  Elec       q    Type
REMARK                         _______ _______ _______ _____ _____    ______ ____
ROOT
ATOM      1  C   UNL     1      -4.392  -0.837   0.043  0.00  0.00    +0.139 A 
ATOM      2  C   UNL     1      -3.892   0.461   0.055  0.00  0.00    +0.146 A 
ATOM      3  N   UNL     1      -2.569   0.662   0.046  0.00  0.00    -0.207 NA
ATOM      4  C   UNL     1      -1.726  -0.349   0.026  0.00  0.00    +0.171 A 
ATOM      5  N   UNL     1      -2.163  -1.639   0.008  0.00  0.00    -0.300 N 
ATOM      6  H   UNL     1      -1.502  -2.389  -0.015  0.00  0.00    +0.171 HD
ATOM      7  C   UNL     1      -3.486  -1.907   0.021  0.00  0.00    +0.275 A 
ATOM      8  O   UNL     1      -3.886  -3.061   0.011  0.00  0.00    -0.266 OA
ENDROOT
BRANCH   1  11
ATOM      9  C   UNL     1      -6.355  -1.756  -0.957  0.00  0.00    +0.249 C 
ATOM     10  O   UNL     1      -5.665  -2.245  -1.831  0.00  0.00    -0.270 OA
ATOM     11  N   UNL     1      -5.781  -1.072   0.052  0.00  0.00    -0.274 N 
ATOM     12  H   UNL     1      -6.324  -0.741   0.785  0.00  0.00    +0.155 HD
BRANCH   9  16
ATOM     13  C   UNL     1     -10.580  -2.205  -1.079  0.00  0.00    +0.162 A 
ATOM     14  C   UNL     1      -9.986  -1.501  -0.040  0.00  0.00    +0.050 A 
ATOM     15  C   UNL     1      -8.616  -1.357   0.005  0.00  0.00    +0.017 A 
ATOM     16  C   UNL     1      -7.822  -1.913  -1.001  0.00  0.00    +0.041 A 
ATOM     17  C   UNL     1      -8.420  -2.622  -2.046  0.00  0.00    +0.062 A 
ATOM     18  C   UNL     1      -9.793  -2.766  -2.083  0.00  0.00    +0.162 A 
BRANCH  13  20
ATOM     19  C   UNL     1     -12.675  -1.747  -0.055  0.00  0.00    +0.277 C 
ATOM     20  O   UNL     1     -11.930  -2.348  -1.116  0.00  0.00    -0.491 OA
ENDBRANCH  13  20
BRANCH  18  21
ATOM     21  O   UNL     1     -10.378  -3.456  -3.099  0.00  0.00    -0.491 OA
ATOM     22  C   UNL     1      -9.511  -4.003  -4.095  0.00  0.00    +0.277 C 
ENDBRANCH  18  21
ENDBRANCH   9  16
ENDBRANCH   1  11
BRANCH   2  23
ATOM     23  N   UNL     1      -4.758   1.539   0.075  0.00  0.00    -0.341 N 
ATOM     24  H   UNL     1      -4.407   2.443   0.083  0.00  0.00    +0.144 HD
ATOM     25  H   UNL     1      -5.717   1.391   0.081  0.00  0.00    +0.144 HD
ENDBRANCH   2  23
BRANCH   4  26
ATOM     26  S   UNL     1       0.006  -0.026   0.015  0.00  0.00    -0.083 S 
BRANCH  26  27
ATOM     27  C   UNL     1      -0.011   1.784   0.038  0.00  0.00    +0.112 C 
BRANCH  27  28
ATOM     28  C   UNL     1       1.405   2.300   0.032  0.00  0.00    -0.037 A 
ATOM     29  C   UNL     1       2.062   2.527   1.227  0.00  0.00    +0.007 A 
ATOM     30  C   UNL     1       3.362   2.996   1.222  0.00  0.00    +0.033 A 
ATOM     31  C   UNL     1       4.002   3.248   0.022  0.00  0.00    +0.126 A 
ATOM     32  C   UNL     1       3.342   3.025  -1.172  0.00  0.00    +0.033 A 
ATOM     33  C   UNL     1       2.044   2.552  -1.167  0.00  0.00    +0.007 A 
BRANCH  31  34
ATOM     34  N   UNL     1       5.392   3.755   0.017  0.00  0.00    +0.056 N 
ATOM     35  O   UNL     1       5.956   3.976  -1.040  0.00  0.00    -0.126 OA
ATOM     36  O   UNL     1       5.973   3.951   1.069  0.00  0.00    -0.126 OA
ENDBRANCH  31  34
ENDBRANCH  27  28
ENDBRANCH  26  27
ENDBRANCH   4  26
TORSDOF 9
