REMARK  Name = ZINC13033730
REMARK  8 active torsions:
REMARK  status: ('A' for Active; 'I' for Inactive)
REMARK    1  A    between atoms: C_4  and  C_7
REMARK    2  A    between atoms: C_7  and  C_8
REMARK    3  A    between atoms: C_8  and  N_69
REMARK    4  A    between atoms: C_9  and  C_10
REMARK    5  A    between atoms: C_9  and  N_69
REMARK    6  A    between atoms: C_26  and  C_27
REMARK    7  A    between atoms: C_26  and  N_69
REMARK    8  A    between atoms: N_31  and  C_32
REMARK                            x       y       z     vdW  Elec       q    Type
REMARK                         _______ _______ _______ _____ _____    ______ ____
ROOT
ATOM      1  N   UNL     1      -1.991   4.721   0.602  0.00  0.00    +0.387 N 
ATOM      2  H   UNL     1      -0.997   4.812   0.842  0.00  0.00    -0.081 HD
ENDROOT
BRANCH   1   3
ATOM      3  C   UNL     1      -2.217   5.307  -0.736  0.00  0.00    -0.073 C 
BRANCH   3   4
ATOM      4  C   UNL     1      -3.660   5.071  -1.188  0.00  0.00    +0.016 C 
BRANCH   4   8
ATOM      5  C   UNL     1      -4.342   7.095  -4.888  0.00  0.00    +0.000 A 
ATOM      6  C   UNL     1      -3.884   5.791  -4.888  0.00  0.00    +0.000 A 
ATOM      7  C   UNL     1      -3.663   5.136  -3.691  0.00  0.00    +0.003 A 
ATOM      8  C   UNL     1      -3.900   5.785  -2.494  0.00  0.00    -0.049 A 
ATOM      9  C   UNL     1      -4.364   7.087  -2.494  0.00  0.00    +0.003 A 
ATOM     10  C   UNL     1      -4.580   7.744  -3.691  0.00  0.00    +0.000 A 
ENDBRANCH   4   8
ENDBRANCH   3   4
ENDBRANCH   1   3
BRANCH   1  11
ATOM     11  C   UNL     1      -2.798   5.439   1.611  0.00  0.00    -0.037 C 
BRANCH  11  12
ATOM     12  C   UNL     1      -2.170   6.785   1.863  0.00  0.00    +0.001 A 
ATOM     13  C   UNL     1      -2.648   7.884   1.225  0.00  0.00    +0.017 A 
ATOM     14  C   UNL     1      -2.018   9.177   1.491  0.00  0.00    +0.002 A 
ATOM     15  C   UNL     1      -2.469  10.343   0.861  0.00  0.00    +0.059 A 
ATOM     16  C   UNL     1      -1.853  11.548   1.129  0.00  0.00    +0.163 A 
ATOM     17  C   UNL     1      -0.784  11.607   2.028  0.00  0.00    +0.164 A 
ATOM     18  C   UNL     1      -0.333  10.459   2.656  0.00  0.00    +0.075 A 
ATOM     19  C   UNL     1      -0.941   9.238   2.396  0.00  0.00    +0.053 A 
ATOM     20  N   UNL     1      -0.503   8.083   3.012  0.00  0.00    -0.322 N 
ATOM     21  H   UNL     1       0.238   8.126   3.636  0.00  0.00    +0.169 HD
ATOM     22  C   UNL     1      -1.093   6.901   2.765  0.00  0.00    +0.251 A 
ATOM     23  O   UNL     1      -0.683   5.902   3.331  0.00  0.00    -0.268 OA
ATOM     24  O   UNL     1      -0.173  12.792   2.301  0.00  0.00    -0.485 OA
ATOM     25  C   UNL     1      -0.400  13.861   1.377  0.00  0.00    +0.270 C 
ATOM     26  C   UNL     1      -1.903  13.925   1.074  0.00  0.00    +0.270 C 
ATOM     27  O   UNL     1      -2.299  12.673   0.504  0.00  0.00    -0.485 OA
ENDBRANCH  11  12
ENDBRANCH   1  11
BRANCH   1  28
ATOM     28  C   UNL     1      -2.353   3.288   0.593  0.00  0.00    +0.001 C 
BRANCH  28  29
ATOM     29  C   UNL     1      -1.373   2.545  -0.278  0.00  0.00    +0.135 A 
ATOM     30  N   UNL     1      -1.491   2.306  -1.562  0.00  0.00    -0.115 NA
ATOM     31  N   UNL     1      -0.451   1.646  -1.941  0.00  0.00    -0.023 NA
ATOM     32  N   UNL     1       0.329   1.462  -0.934  0.00  0.00    -0.044 NA
ATOM     33  N   UNL     1      -0.206   1.997   0.111  0.00  0.00    -0.228 N 
BRANCH  33  34
ATOM     34  C   UNL     1       0.352   2.010   1.465  0.00  0.00    +0.111 C 
ATOM     35  C   UNL     1       1.709   2.718   1.450  0.00  0.00    +0.027 C 
ATOM     36  C   UNL     1       2.292   2.732   2.864  0.00  0.00    +0.002 C 
ATOM     37  C   UNL     1       2.472   1.294   3.356  0.00  0.00    +0.000 C 
ATOM     38  C   UNL     1       1.115   0.587   3.372  0.00  0.00    +0.002 C 
ATOM     39  C   UNL     1       0.532   0.573   1.957  0.00  0.00    +0.027 C 
ENDBRANCH  33  34
ENDBRANCH  28  29
ENDBRANCH   1  28
TORSDOF 8
