REMARK  Name = ZINC03096674
REMARK  8 active torsions:
REMARK  status: ('A' for Active; 'I' for Inactive)
REMARK    1  A    between atoms: C_3  and  O_25
REMARK    2  A    between atoms: C_4  and  O_24
REMARK    3  A    between atoms: C_5  and  O_23
REMARK    4  A    between atoms: C_6  and  C_7
REMARK    5  A    between atoms: N_8  and  N_9
REMARK    6  A    between atoms: C_10  and  C_12
REMARK    7  A    between atoms: C_12  and  O_13
REMARK    8  A    between atoms: O_13  and  C_14
REMARK                            x       y       z     vdW  Elec       q    Type
REMARK                         _______ _______ _______ _____ _____    ______ ____
ROOT
ATOM      1  N   UNL     1      -2.444  -2.778   0.011  0.00  0.00    -0.204 N 
ATOM      2  C   UNL     1      -2.423  -4.126   0.004  0.00  0.00    +0.270 C 
ATOM      3  O   UNL     1      -1.363  -4.716  -0.010  0.00  0.00    -0.270 OA
ATOM      4  H   UNL     1      -3.291  -2.306   0.022  0.00  0.00    +0.177 HD
ENDROOT
BRANCH   1   6
ATOM      5  C   UNL     1      -1.262  -0.760   0.011  0.00  0.00    +0.142 C 
ATOM      6  N   UNL     1      -1.242  -2.059   0.003  0.00  0.00    -0.188 NA
BRANCH   5  12
ATOM      7  C   UNL     1      -0.017   1.393   0.010  0.00  0.00    +0.017 A 
ATOM      8  C   UNL     1       1.167   2.099   0.002  0.00  0.00    +0.050 A 
ATOM      9  C   UNL     1       2.382   1.427  -0.013  0.00  0.00    +0.162 A 
ATOM     10  C   UNL     1       2.414   0.037  -0.021  0.00  0.00    +0.201 A 
ATOM     11  C   UNL     1       1.228  -0.683  -0.013  0.00  0.00    +0.171 A 
ATOM     12  C   UNL     1       0.002  -0.004   0.002  0.00  0.00    +0.040 A 
BRANCH  11  13
ATOM     13  O   UNL     1       1.255  -2.042  -0.021  0.00  0.00    -0.503 OA
ATOM     14  H   UNL     1       1.254  -2.430  -0.907  0.00  0.00    +0.292 HD
ENDBRANCH  11  13
BRANCH  10  15
ATOM     15  O   UNL     1       3.607  -0.617  -0.036  0.00  0.00    -0.501 OA
ATOM     16  H   UNL     1       3.943  -0.801  -0.924  0.00  0.00    +0.292 HD
ENDBRANCH  10  15
BRANCH   9  17
ATOM     17  O   UNL     1       3.545   2.131  -0.021  0.00  0.00    -0.503 OA
ATOM     18  H   UNL     1       3.873   2.339  -0.906  0.00  0.00    +0.292 HD
ENDBRANCH   9  17
ENDBRANCH   5  12
ENDBRANCH   1   6
BRANCH   2  19
ATOM     19  C   UNL     1      -3.716  -4.899   0.013  0.00  0.00    +0.326 C 
BRANCH  19  20
ATOM     20  O   UNL     1      -3.433  -6.300   0.003  0.00  0.00    -0.480 OA
BRANCH  20  21
ATOM     21  C   UNL     1      -4.498  -7.145   0.009  0.00  0.00    +0.158 A 
ATOM     22  C   UNL     1      -5.027  -7.588   1.213  0.00  0.00    +0.085 A 
ATOM     23  C   UNL     1      -6.114  -8.443   1.217  0.00  0.00    +0.043 A 
ATOM     24  C   UNL     1      -6.667  -8.865   0.021  0.00  0.00    +0.044 A 
ATOM     25  C   UNL     1      -6.138  -8.430  -1.181  0.00  0.00    +0.043 A 
ATOM     26  C   UNL     1      -5.055  -7.571  -1.190  0.00  0.00    +0.085 A 
ATOM     27 CL   UNL     1      -4.392  -7.024  -2.698  0.00  0.00    -0.080 Cl
ATOM     28 CL   UNL     1      -8.027  -9.945   0.029  0.00  0.00    -0.083 Cl
ATOM     29 CL   UNL     1      -4.329  -7.064   2.713  0.00  0.00    -0.080 Cl
ENDBRANCH  20  21
ENDBRANCH  19  20
ENDBRANCH   2  19
TORSDOF 8
