REMARK  Name = ZINC41027111
REMARK  4 active torsions:
REMARK  status: ('A' for Active; 'I' for Inactive)
REMARK    1  A    between atoms: C_5  and  S_8
REMARK    2  A    between atoms: C_6  and  N_7
REMARK    3  A    between atoms: S_8  and  C_9
REMARK    4  A    between atoms: C_15  and  N_17
REMARK                            x       y       z     vdW  Elec       q    Type
REMARK                         _______ _______ _______ _____ _____    ______ ____
ROOT
ATOM      1  C   UNL     1      -0.643   1.113  -0.076  0.00  0.00    +0.039 A 
ATOM      2  C   UNL     1       0.424   2.009  -0.142  0.00  0.00    +0.066 A 
ATOM      3  C   UNL     1       1.754   1.530  -0.171  0.00  0.00    +0.079 A 
ATOM      4  C   UNL     1       1.991   0.156  -0.135  0.00  0.00    +0.045 A 
ATOM      5  C   UNL     1       0.925  -0.722  -0.069  0.00  0.00    +0.038 A 
ATOM      6  C   UNL     1      -0.393  -0.244  -0.040  0.00  0.00    +0.039 A 
ATOM      7  N   UNL     1       2.774   2.424  -0.236  0.00  0.00    -0.237 NA
ATOM      8  C   UNL     1       2.556   3.703  -0.271  0.00  0.00    +0.199 A 
ATOM      9  N   UNL     1       1.312   4.250  -0.246  0.00  0.00    -0.313 N 
ATOM     10  H   UNL     1       1.210   5.214  -0.274  0.00  0.00    +0.170 HD
ATOM     11  C   UNL     1       0.214   3.461  -0.183  0.00  0.00    +0.259 A 
ATOM     12  O   UNL     1      -0.906   3.938  -0.160  0.00  0.00    -0.267 OA
ENDROOT
BRANCH   6  13
ATOM     13  N   UNL     1      -1.459  -1.148   0.026  0.00  0.00    -0.357 N 
ATOM     14  H   UNL     1      -2.372  -0.820   0.046  0.00  0.00    +0.142 HD
ATOM     15  H   UNL     1      -1.286  -2.102   0.051  0.00  0.00    +0.142 HD
ENDBRANCH   6  13
BRANCH   5  16
ATOM     16  S   UNL     1       1.226  -2.458  -0.023  0.00  0.00    -0.050 S 
BRANCH  16  17
ATOM     17  C   UNL     1       0.946  -2.894   1.661  0.00  0.00    +0.176 A 
ATOM     18  N   UNL     1       0.997  -4.205   2.029  0.00  0.00    -0.302 N 
ATOM     19  H   UNL     1       1.187  -4.886   1.365  0.00  0.00    +0.171 HD
ATOM     20  C   UNL     1       0.786  -4.557   3.314  0.00  0.00    +0.254 A 
ATOM     21  O   UNL     1       0.830  -5.729   3.652  0.00  0.00    -0.268 OA
ATOM     22  C   UNL     1       0.515  -3.556   4.252  0.00  0.00    +0.113 A 
ATOM     23  C   UNL     1       0.474  -2.236   3.827  0.00  0.00    +0.124 A 
ATOM     24  N   UNL     1       0.697  -1.946   2.540  0.00  0.00    -0.208 NA
BRANCH  23  25
ATOM     25  N   UNL     1       0.209  -1.225   4.729  0.00  0.00    -0.343 N 
ATOM     26  H   UNL     1       0.051  -1.437   5.662  0.00  0.00    +0.144 HD
ATOM     27  H   UNL     1       0.180  -0.303   4.430  0.00  0.00    +0.144 HD
ENDBRANCH  23  25
ENDBRANCH  16  17
ENDBRANCH   5  16
TORSDOF 4
