REMARK  Name = ZINC05121017
REMARK  1 active torsions:
REMARK  status: ('A' for Active; 'I' for Inactive)
REMARK    1  A    between atoms: C_1  and  C_2
REMARK                            x       y       z     vdW  Elec       q    Type
REMARK                         _______ _______ _______ _____ _____    ______ ____
ROOT
ATOM      1  C   UNL     1       7.162   4.016  -1.696  0.00  0.00    +0.064 C 
ATOM      2  C   UNL     1       5.907   3.345  -1.200  0.00  0.00    +0.051 C 
ATOM      3  N   UNL     1       5.877   2.074  -1.142  0.00  0.00    -0.193 NA
ATOM      4  N   UNL     1       4.737   1.390  -0.677  0.00  0.00    -0.244 N 
ATOM      5  C   UNL     1       3.678   2.181  -0.030  0.00  0.00    +0.207 C 
ATOM      6  C   UNL     1       2.400   1.389  -0.017  0.00  0.00    -0.000 A 
ATOM      7  C   UNL     1       2.405   0.012  -0.024  0.00  0.00    +0.008 A 
ATOM      8  C   UNL     1       1.208  -0.682  -0.014  0.00  0.00    +0.000 A 
ATOM      9  C   UNL     1       0.002  -0.004   0.002  0.00  0.00    +0.001 A 
ATOM     10  C   UNL     1      -0.017   1.378   0.010  0.00  0.00    +0.009 A 
ATOM     11  C   UNL     1       1.182   2.076   0.002  0.00  0.00    -0.010 A 
ATOM     12  C   UNL     1       1.236   3.557   0.049  0.00  0.00    +0.004 A 
ATOM     13  C   UNL     1       0.156   4.314   0.478  0.00  0.00    +0.010 A 
ATOM     14  C   UNL     1       0.251   5.693   0.493  0.00  0.00    +0.001 A 
ATOM     15  C   UNL     1       1.417   6.314   0.083  0.00  0.00    +0.002 A 
ATOM     16  C   UNL     1       2.498   5.569  -0.345  0.00  0.00    +0.024 A 
ATOM     17  C   UNL     1       2.421   4.183  -0.368  0.00  0.00    +0.039 A 
ATOM     18  N   UNL     1       3.501   3.422  -0.799  0.00  0.00    -0.301 N 
ATOM     19  C   UNL     1       4.744   4.205  -0.794  0.00  0.00    +0.159 C 
ATOM     20  H   UNL     1       4.644   0.431  -0.790  0.00  0.00    +0.170 HD
ENDROOT
TORSDOF 0
