REMARK  Name = ZINC09944356
REMARK  11 active torsions:
REMARK  status: ('A' for Active; 'I' for Inactive)
REMARK    1  A    between atoms: C_1  and  C_2
REMARK    2  A    between atoms: C_2  and  C_3
REMARK    3  A    between atoms: C_2  and  C_4
REMARK    4  A    between atoms: C_2  and  C_5
REMARK    5  A    between atoms: C_12  and  C_14
REMARK    6  A    between atoms: C_17  and  S_20
REMARK    7  A    between atoms: N_18  and  C_19
REMARK    8  A    between atoms: S_20  and  C_21
REMARK    9  A    between atoms: C_21  and  C_22
REMARK   10  A    between atoms: N_24  and  C_25
REMARK   11  A    between atoms: C_26  and  C_30
REMARK                            x       y       z     vdW  Elec       q    Type
REMARK                         _______ _______ _______ _____ _____    ______ ____
ROOT
ATOM      1  C   UNL     1      -3.807   1.614   0.049  0.00  0.00    +0.171 A 
ATOM      2  N   UNL     1      -4.268   2.817  -0.215  0.00  0.00    -0.128 NA
ATOM      3  N   UNL     1      -5.549   2.829  -0.107  0.00  0.00    -0.122 NA
ATOM      4  C   UNL     1      -5.986   1.637   0.231  0.00  0.00    +0.192 A 
ATOM      5  N   UNL     1      -4.895   0.820   0.338  0.00  0.00    -0.305 N 
ATOM      6  C   UNL     1      -4.884  -0.602   0.689  0.00  0.00    +0.153 C 
ENDROOT
BRANCH   1  13
ATOM      7  C   UNL     1       2.425   1.223   0.448  0.00  0.00    -0.001 C 
ATOM      8  C   UNL     1       2.426  -0.054  -0.397  0.00  0.00    +0.009 C 
ATOM      9  C   UNL     1       1.200  -0.898  -0.016  0.00  0.00    +0.043 C 
ATOM     10  C   UNL     1       0.002  -0.004   0.002  0.00  0.00    -0.006 A 
ATOM     11  C   UNL     1      -0.016   1.359   0.009  0.00  0.00    -0.036 A 
ATOM     12  C   UNL     1      -1.266   1.967   0.030  0.00  0.00    +0.023 A 
ATOM     13  C   UNL     1      -2.397   1.194   0.033  0.00  0.00    +0.057 A 
ATOM     14  S   UNL     1      -1.712  -0.456   0.018  0.00  0.00    -0.090 S 
ATOM     15  C   UNL     1       1.291   2.147   0.001  0.00  0.00    +0.040 C 
BRANCH   7  17
ATOM     16  C   UNL     1       3.966   2.307  -1.193  0.00  0.00    +0.011 C 
ATOM     17  C   UNL     1       3.764   1.945   0.280  0.00  0.00    -0.035 C 
ATOM     18  C   UNL     1       3.765   3.221   1.123  0.00  0.00    +0.011 C 
ATOM     19  C   UNL     1       4.899   1.028   0.740  0.00  0.00    +0.011 C 
ENDBRANCH   7  17
ENDBRANCH   1  13
BRANCH   4  20
ATOM     20  S   UNL     1      -7.666   1.176   0.492  0.00  0.00    -0.077 S 
BRANCH  20  21
ATOM     21  C   UNL     1      -8.481   2.758   0.162  0.00  0.00    +0.173 C 
BRANCH  21  22
ATOM     22  C   UNL     1      -9.971   2.600   0.330  0.00  0.00    +0.228 C 
ATOM     23  O   UNL     1     -10.435   1.524   0.642  0.00  0.00    -0.275 OA
ATOM     24  N   UNL     1     -10.786   3.655   0.134  0.00  0.00    -0.279 N 
ATOM     25  H   UNL     1     -10.415   4.516  -0.116  0.00  0.00    +0.155 HD
BRANCH  24  26
ATOM     26  C   UNL     1     -12.157   3.510   0.288  0.00  0.00    +0.084 A 
ATOM     27  C   UNL     1     -13.149   4.471   0.137  0.00  0.00    +0.065 A 
ATOM     28  C   UNL     1     -14.509   4.040   0.357  0.00  0.00    +0.022 A 
ATOM     29  C   UNL     1     -14.698   2.753   0.699  0.00  0.00    +0.048 A 
ATOM     30  S   UNL     1     -13.046   2.089   0.725  0.00  0.00    -0.081 S 
BRANCH  27  31
ATOM     31  C   UNL     1     -12.831   5.854  -0.233  0.00  0.00    +0.244 C 
ATOM     32  O   UNL     1     -11.673   6.184  -0.415  0.00  0.00    -0.270 OA
ATOM     33  N   UNL     1     -13.819   6.759  -0.371  0.00  0.00    -0.325 N 
ATOM     34  H   UNL     1     -14.742   6.496  -0.226  0.00  0.00    +0.145 HD
ATOM     35  H   UNL     1     -13.609   7.674  -0.616  0.00  0.00    +0.145 HD
ENDBRANCH  27  31
ENDBRANCH  24  26
ENDBRANCH  21  22
ENDBRANCH  20  21
ENDBRANCH   4  20
TORSDOF 7
