REMARK  Name = ZINC10764912
REMARK  9 active torsions:
REMARK  status: ('A' for Active; 'I' for Inactive)
REMARK    1  A    between atoms: C_1  and  C_2
REMARK    2  A    between atoms: C_6  and  N_32
REMARK    3  A    between atoms: C_7  and  N_8
REMARK    4  A    between atoms: C_9  and  C_11
REMARK    5  A    between atoms: C_11  and  O_12
REMARK    6  A    between atoms: O_12  and  C_13
REMARK    7  A    between atoms: C_13  and  C_15
REMARK    8  A    between atoms: N_20  and  S_22
REMARK    9  A    between atoms: S_22  and  C_25
REMARK                            x       y       z     vdW  Elec       q    Type
REMARK                         _______ _______ _______ _____ _____    ______ ____
ROOT
ATOM      1  C   UNL     1      -1.439  -4.080  -4.936  0.00  0.00    +0.312 C 
ATOM      2  O   UNL     1      -0.587  -4.643  -4.290  0.00  0.00    -0.250 OA
ENDROOT
BRANCH   1   3
ATOM      3  C   UNL     1      -1.449  -2.575  -5.021  0.00  0.00    +0.113 C 
ATOM      4  C   UNL     1      -1.302  -2.146  -6.482  0.00  0.00    +0.017 C 
ATOM      5  C   UNL     1      -1.345  -0.618  -6.573  0.00  0.00    +0.018 C 
ATOM      6  C   UNL     1      -0.182  -0.030  -5.776  0.00  0.00    +0.109 C 
ATOM      7  N   UNL     1      -0.229  -0.554  -4.404  0.00  0.00    -0.176 NA
ATOM      8  C   UNL     1      -0.282  -2.009  -4.205  0.00  0.00    +0.124 C 
BRANCH   7   9
ATOM      9  S   UNL     1      -0.228   0.475  -3.106  0.00  0.00    +0.061 S 
ATOM     10  O   UNL     1      -0.830  -0.230  -2.029  0.00  0.00    -0.153 OA
ATOM     11  O   UNL     1      -0.726   1.720  -3.575  0.00  0.00    -0.153 OA
BRANCH   9  12
ATOM     12  C   UNL     1       1.454   0.742  -2.655  0.00  0.00    +0.106 A 
ATOM     13  C   UNL     1       2.164   1.785  -3.222  0.00  0.00    +0.031 A 
ATOM     14  C   UNL     1       3.483   1.996  -2.869  0.00  0.00    +0.040 A 
ATOM     15  C   UNL     1       4.094   1.163  -1.947  0.00  0.00    +0.124 A 
ATOM     16  C   UNL     1       3.383   0.119  -1.380  0.00  0.00    +0.040 A 
ATOM     17  C   UNL     1       2.063  -0.090  -1.735  0.00  0.00    +0.031 A 
ATOM     18  F   UNL     1       5.384   1.368  -1.601  0.00  0.00    -0.205 F 
ENDBRANCH   9  12
ENDBRANCH   7   9
ENDBRANCH   1   3
BRANCH   1  19
ATOM     19  O   UNL     1      -2.377  -4.795  -5.577  0.00  0.00    -0.455 OA
BRANCH  19  20
ATOM     20  C   UNL     1      -2.305  -6.240  -5.451  0.00  0.00    +0.328 C 
BRANCH  20  22
ATOM     21  N   UNL     1      -3.564  -8.209  -6.260  0.00  0.00    -0.281 N 
ATOM     22  C   UNL     1      -3.430  -6.869  -6.232  0.00  0.00    +0.255 C 
ATOM     23  O   UNL     1      -4.215  -6.168  -6.836  0.00  0.00    -0.272 OA
ATOM     24  H   UNL     1      -2.906  -8.772  -5.822  0.00  0.00    +0.155 HD
BRANCH  21  31
ATOM     25  C   UNL     1      -6.183  -7.365  -5.535  0.00  0.00    +0.046 C 
ATOM     26  C   UNL     1      -5.947  -8.407  -6.598  0.00  0.00    -0.027 A 
ATOM     27  C   UNL     1      -7.019  -8.979  -7.255  0.00  0.00    +0.005 A 
ATOM     28  C   UNL     1      -6.804  -9.940  -8.226  0.00  0.00    +0.003 A 
ATOM     29  C   UNL     1      -5.515 -10.327  -8.546  0.00  0.00    +0.034 A 
ATOM     30  C   UNL     1      -4.439  -9.755  -7.896  0.00  0.00    +0.148 A 
ATOM     31  C   UNL     1      -4.652  -8.790  -6.920  0.00  0.00    +0.067 A 
BRANCH  30  32
ATOM     32  N   UNL     1      -3.061 -10.170  -8.240  0.00  0.00    +0.058 N 
ATOM     33  O   UNL     1      -2.869 -10.942  -9.162  0.00  0.00    -0.126 OA
ATOM     34  O   UNL     1      -2.118  -9.740  -7.600  0.00  0.00    -0.126 OA
ENDBRANCH  30  32
ENDBRANCH  21  31
ENDBRANCH  20  22
ENDBRANCH  19  20
ENDBRANCH   1  19
TORSDOF 8
