REMARK  Name = ZINC23617388
REMARK  8 active torsions:
REMARK  status: ('A' for Active; 'I' for Inactive)
REMARK    1  A    between atoms: C_1  and  C_2
REMARK    2  A    between atoms: C_3  and  C_7
REMARK    3  A    between atoms: C_10  and  S_13
REMARK    4  A    between atoms: N_11  and  N_12
REMARK    5  A    between atoms: S_13  and  C_14
REMARK    6  A    between atoms: C_14  and  C_16
REMARK    7  A    between atoms: C_14  and  C_17
REMARK    8  A    between atoms: C_28  and  C_30
REMARK                            x       y       z     vdW  Elec       q    Type
REMARK                         _______ _______ _______ _____ _____    ______ ____
ROOT
ATOM      1  S   UNL     1      -0.797   3.247  -1.237  0.00  0.00    -0.072 S 
ENDROOT
BRANCH   1   5
ATOM      2  C   UNL     1      -3.013   6.386  -0.524  0.00  0.00    +0.185 A 
ATOM      3  N   UNL     1      -3.372   5.556   0.427  0.00  0.00    -0.127 NA
ATOM      4  N   UNL     1      -2.720   4.454   0.318  0.00  0.00    -0.121 NA
ATOM      5  C   UNL     1      -1.897   4.516  -0.703  0.00  0.00    +0.209 A 
ATOM      6  N   UNL     1      -2.057   5.746  -1.278  0.00  0.00    -0.224 N 
BRANCH   2   9
ATOM      7  C   UNL     1      -5.193   7.838   1.198  0.00  0.00    +0.087 C 
ATOM      8  C   UNL     1      -4.481   8.397  -0.008  0.00  0.00    +0.112 A 
ATOM      9  C   UNL     1      -3.537   7.751  -0.744  0.00  0.00    +0.061 A 
ATOM     10  C   UNL     1      -3.141   8.694  -1.798  0.00  0.00    +0.053 A 
ATOM     11  C   UNL     1      -3.881   9.798  -1.605  0.00  0.00    +0.196 A 
ATOM     12  O   UNL     1      -4.672   9.614  -0.537  0.00  0.00    -0.467 OA
ENDBRANCH   2   9
BRANCH   6  13
ATOM     13  N   UNL     1      -1.404   6.237  -2.373  0.00  0.00    -0.295 N 
ATOM     14  H   UNL     1      -0.655   5.618  -2.889  0.00  0.00    +0.163 HD
ATOM     15  H   UNL     1      -1.626   7.250  -2.737  0.00  0.00    +0.163 HD
ENDBRANCH   6  13
ENDBRANCH   1   5
BRANCH   1  16
ATOM     16  C   UNL     1      -1.162   1.974  -0.003  0.00  0.00    +0.137 C 
ATOM     17  C   UNL     1      -0.738   2.470   1.381  0.00  0.00    +0.029 C 
BRANCH  16  18
ATOM     18  C   UNL     1      -0.404   0.716  -0.340  0.00  0.00    +0.233 C 
ATOM     19  O   UNL     1       0.236   0.650  -1.368  0.00  0.00    -0.274 OA
ATOM     20  N   UNL     1      -0.443  -0.339   0.498  0.00  0.00    -0.267 N 
ATOM     21  C   UNL     1       0.519  -1.354   0.410  0.00  0.00    +0.040 A 
ATOM     22  C   UNL     1       1.664  -1.139  -0.349  0.00  0.00    +0.024 A 
ATOM     23  C   UNL     1       2.622  -2.128  -0.451  0.00  0.00    +0.002 A 
ATOM     24  C   UNL     1       2.440  -3.333   0.202  0.00  0.00    +0.000 A 
ATOM     25  C   UNL     1       1.304  -3.550   0.957  0.00  0.00    +0.005 A 
ATOM     26  C   UNL     1       0.339  -2.562   1.066  0.00  0.00    -0.026 A 
ATOM     27  C   UNL     1      -0.883  -2.827   1.904  0.00  0.00    +0.039 C 
ATOM     28  C   UNL     1      -2.019  -1.884   1.508  0.00  0.00    +0.027 C 
ATOM     29  C   UNL     1      -1.490  -0.440   1.524  0.00  0.00    +0.079 C 
ATOM     30  C   UNL     1      -2.626   0.533   1.202  0.00  0.00    +0.028 C 
ENDBRANCH  16  18
ENDBRANCH   1  16
TORSDOF 5
