REMARK  Name = ZINC01438268
REMARK  8 active torsions:
REMARK  status: ('A' for Active; 'I' for Inactive)
REMARK    1  A    between atoms: C_1  and  C_2
REMARK    2  A    between atoms: C_2  and  C_3
REMARK    3  A    between atoms: C_2  and  C_4
REMARK    4  A    between atoms: C_7  and  C_10
REMARK    5  A    between atoms: C_19  and  C_27
REMARK    6  A    between atoms: C_20  and  N_26
REMARK    7  A    between atoms: C_21  and  C_22
REMARK    8  A    between atoms: C_21  and  C_24
REMARK                            x       y       z     vdW  Elec       q    Type
REMARK                         _______ _______ _______ _____ _____    ______ ____
ROOT
ATOM      1  C   UNL     1      -5.419  -2.005   0.043  0.00  0.00    +0.067 C 
ATOM      2  C   UNL     1      -5.404  -3.528  -0.092  0.00  0.00    +0.040 C 
ATOM      3  C   UNL     1      -4.999  -4.204   1.192  0.00  0.00    +0.078 C 
ATOM      4  S   UNL     1      -3.244  -4.671   1.155  0.00  0.00    -0.156 S 
ATOM      5  C   UNL     1      -3.155  -5.645  -0.383  0.00  0.00    +0.096 C 
ATOM      6  C   UNL     1      -3.736  -4.808  -1.484  0.00  0.00    -0.011 C 
ATOM      7  C   UNL     1      -4.657  -3.903  -1.327  0.00  0.00    -0.027 C 
ATOM      8  C   UNL     1      -4.999  -3.116  -2.555  0.00  0.00    +0.074 C 
ATOM      9  C   UNL     1      -5.701  -1.965  -2.440  0.00  0.00    +0.054 C 
ATOM     10  C   UNL     1      -6.195  -1.411  -1.134  0.00  0.00    +0.188 C 
ENDROOT
BRANCH   1  14
ATOM     11  C   UNL     1      -1.413  -0.522   0.012  0.00  0.00    -0.045 A 
ATOM     12  C   UNL     1      -2.098  -0.688  -1.177  0.00  0.00    +0.004 A 
ATOM     13  C   UNL     1      -3.394  -1.168  -1.167  0.00  0.00    +0.004 A 
ATOM     14  C   UNL     1      -4.006  -1.482   0.032  0.00  0.00    -0.041 A 
ATOM     15  C   UNL     1      -3.320  -1.317   1.221  0.00  0.00    +0.004 A 
ATOM     16  C   UNL     1      -2.023  -0.841   1.211  0.00  0.00    +0.004 A 
BRANCH  11  18
ATOM     17  C   UNL     1       0.887  -0.942  -0.814  0.00  0.00    +0.012 C 
ATOM     18  C   UNL     1      -0.000   0.002   0.001  0.00  0.00    +0.013 C 
ATOM     19  C   UNL     1       0.023   1.395  -0.631  0.00  0.00    +0.012 C 
ENDBRANCH  11  18
ENDBRANCH   1  14
BRANCH   9  20
ATOM     20  N   UNL     1      -5.977  -1.264  -3.580  0.00  0.00    -0.358 N 
ATOM     21  H   UNL     1      -5.672  -1.595  -4.439  0.00  0.00    +0.142 HD
ATOM     22  H   UNL     1      -6.479  -0.435  -3.530  0.00  0.00    +0.142 HD
ENDBRANCH   9  20
BRANCH  10  23
ATOM     23  C   UNL     1      -7.623  -1.733  -0.982  0.00  0.00    +0.091 C 
ATOM     24  N   UNL     1      -8.725  -1.982  -0.865  0.00  0.00    -0.194 NA
ENDBRANCH  10  23
BRANCH  10  25
ATOM     25  C   UNL     1      -6.029   0.052  -1.132  0.00  0.00    +0.091 C 
ATOM     26  N   UNL     1      -5.901   1.181  -1.131  0.00  0.00    -0.194 NA
ENDBRANCH  10  25
BRANCH   8  27
ATOM     27  C   UNL     1      -4.584  -3.580  -3.845  0.00  0.00    +0.101 C 
ATOM     28  N   UNL     1      -4.255  -3.948  -4.868  0.00  0.00    -0.191 NA
ENDBRANCH   8  27
TORSDOF 6
