REMARK  Name = ZINC20920284
REMARK  11 active torsions:
REMARK  status: ('A' for Active; 'I' for Inactive)
REMARK    1  A    between atoms: C_1  and  C_2
REMARK    2  A    between atoms: C_2  and  N_3
REMARK    3  A    between atoms: N_3  and  C_4
REMARK    4  A    between atoms: N_3  and  C_6
REMARK    5  A    between atoms: C_4  and  C_5
REMARK    6  A    between atoms: C_6  and  C_7
REMARK    7  A    between atoms: C_7  and  N_8
REMARK    8  A    between atoms: C_14  and  C_30
REMARK    9  A    between atoms: C_17  and  C_18
REMARK   10  A    between atoms: C_17  and  C_19
REMARK   11  A    between atoms: N_21  and  C_22
REMARK                            x       y       z     vdW  Elec       q    Type
REMARK                         _______ _______ _______ _____ _____    ______ ____
ROOT
ATOM      1  N   UNL     1      -5.676   4.242   0.219  0.00  0.00    -0.282 N 
ATOM      2  C   UNL     1      -4.785   5.185  -0.170  0.00  0.00    +0.264 C 
ATOM      3  O   UNL     1      -5.138   6.302  -0.502  0.00  0.00    -0.268 OA
ATOM      4  C   UNL     1      -3.374   4.789  -0.169  0.00  0.00    +0.105 A 
ATOM      5  C   UNL     1      -2.237   5.533  -0.324  0.00  0.00    +0.033 A 
ATOM      6  C   UNL     1      -1.152   4.663  -0.211  0.00  0.00    +0.032 A 
ATOM      7  C   UNL     1      -1.652   3.387   0.001  0.00  0.00    +0.085 A 
ATOM      8  N   UNL     1      -3.006   3.461   0.022  0.00  0.00    -0.331 N 
ATOM      9  C   UNL     1      -4.005   2.403   0.195  0.00  0.00    +0.157 C 
ATOM     10  C   UNL     1      -5.255   2.995   0.846  0.00  0.00    +0.128 C 
ATOM     11  C   UNL     1      -4.965   3.258   2.325  0.00  0.00    +0.043 C 
ENDROOT
BRANCH   7  12
ATOM     12  C   UNL     1      -0.853   2.167   0.178  0.00  0.00    +0.151 A 
ATOM     13  C   UNL     1       0.508   2.104   0.252  0.00  0.00    +0.051 A 
ATOM     14  C   UNL     1       0.841   0.748   0.421  0.00  0.00    +0.042 A 
ATOM     15  C   UNL     1      -0.316   0.054   0.442  0.00  0.00    +0.196 A 
ATOM     16  O   UNL     1      -1.336   0.913   0.290  0.00  0.00    -0.461 OA
ENDBRANCH   7  12
BRANCH  10  17
ATOM     17  C   UNL     1      -6.378   1.996   0.741  0.00  0.00    +0.238 C 
ATOM     18  O   UNL     1      -6.732   1.376   1.721  0.00  0.00    -0.273 OA
ATOM     19  N   UNL     1      -6.990   1.792  -0.443  0.00  0.00    -0.311 N 
ATOM     20  H   UNL     1      -6.613   2.287  -1.349  0.00  0.00    +0.149 HD
BRANCH  19  21
ATOM     21  C   UNL     1      -8.157   0.910  -0.521  0.00  0.00    +0.073 C 
ATOM     22  C   UNL     1      -7.693  -0.539  -0.677  0.00  0.00    +0.022 C 
ATOM     23  C   UNL     1      -8.855  -1.484  -0.364  0.00  0.00    +0.002 C 
ATOM     24  C   UNL     1      -9.582  -1.000   0.892  0.00  0.00    +0.000 C 
ATOM     25  C   UNL     1     -10.988  -0.528   0.517  0.00  0.00    +0.000 C 
ATOM     26  C   UNL     1     -10.903   0.843  -0.157  0.00  0.00    +0.000 C 
ATOM     27  C   UNL     1     -10.402   0.675  -1.593  0.00  0.00    +0.002 C 
ATOM     28  C   UNL     1      -9.014   1.304  -1.726  0.00  0.00    +0.022 C 
ENDBRANCH  19  21
ENDBRANCH  10  17
BRANCH   1  29
ATOM     29  C   UNL     1      -7.105   4.483   0.003  0.00  0.00    +0.091 C 
BRANCH  29  30
ATOM     30  C   UNL     1      -7.662   5.318   1.158  0.00  0.00    -0.060 C 
BRANCH  30  31
ATOM     31  N   UNL     1      -9.095   5.559   0.942  0.00  0.00    +0.380 N 
ATOM     32  H   UNL     1      -9.576   4.588   0.756  0.00  0.00    -0.082 HD
BRANCH  31  34
ATOM     33  C   UNL     1      -9.904   5.068   3.200  0.00  0.00    -0.017 C 
ATOM     34  C   UNL     1      -9.715   6.150   2.135  0.00  0.00    -0.082 C 
ENDBRANCH  31  34
BRANCH  31  35
ATOM     35  C   UNL     1      -9.314   6.405  -0.239  0.00  0.00    -0.082 C 
ATOM     36  C   UNL     1     -10.803   6.412  -0.592  0.00  0.00    -0.017 C 
ENDBRANCH  31  35
ENDBRANCH  30  31
ENDBRANCH  29  30
ENDBRANCH   1  29
TORSDOF 8
