REMARK  Name = ZINC04729305
REMARK  10 active torsions:
REMARK  status: ('A' for Active; 'I' for Inactive)
REMARK    1  A    between atoms: C_1  and  O_2
REMARK    2  A    between atoms: O_2  and  C_3
REMARK    3  A    between atoms: C_6  and  C_9
REMARK    4  A    between atoms: C_11  and  C_23
REMARK    5  A    between atoms: C_13  and  C_16
REMARK    6  A    between atoms: C_21  and  O_22
REMARK    7  A    between atoms: C_26  and  O_31
REMARK    8  A    between atoms: C_27  and  O_29
REMARK    9  A    between atoms: O_29  and  C_30
REMARK   10  A    between atoms: O_31  and  C_32
REMARK                            x       y       z     vdW  Elec       q    Type
REMARK                         _______ _______ _______ _____ _____    ______ ____
ROOT
ATOM      1  C   UNL     1      -2.500   1.008   0.019  0.00  0.00    +0.040 C 
ATOM      2  N   UNL     1      -2.451  -0.272   0.012  0.00  0.00    -0.299 NA
ATOM      3  C   UNL     1      -3.626  -1.135   0.003  0.00  0.00    +0.081 C 
ATOM      4  C   UNL     1      -4.945   0.852  -0.359  0.00  0.00    -0.028 C 
ATOM      5  C   UNL     1      -3.790   1.780   0.036  0.00  0.00    +0.044 C 
ATOM      6  N   UNL     1      -4.823  -0.392   0.426  0.00  0.00    +0.401 N 
ATOM      7  H   UNL     1      -4.745  -0.159   1.423  0.00  0.00    -0.081 HD
ATOM      8  H   UNL     1      -5.656  -0.973   0.274  0.00  0.00    -0.081 HD
ENDROOT
BRANCH   1  12
ATOM      9  C   UNL     1       1.152   3.171   0.008  0.00  0.00    +0.120 A 
ATOM     10  C   UNL     1       1.170   1.782   0.001  0.00  0.00    +0.046 A 
ATOM     11  C   UNL     1      -0.013   1.076   0.008  0.00  0.00    +0.013 A 
ATOM     12  C   UNL     1      -1.232   1.759   0.017  0.00  0.00    -0.004 A 
ATOM     13  C   UNL     1      -1.245   3.156   0.030  0.00  0.00    +0.013 A 
ATOM     14  C   UNL     1      -0.058   3.854   0.023  0.00  0.00    +0.046 A 
BRANCH   9  16
ATOM     15  C   UNL     1       2.230   5.289   0.009  0.00  0.00    +0.277 C 
ATOM     16  O   UNL     1       2.321   3.863   0.001  0.00  0.00    -0.495 OA
ENDBRANCH   9  16
ENDBRANCH   1  12
BRANCH   4  17
ATOM     17  C   UNL     1      -6.260   1.518  -0.048  0.00  0.00    -0.019 A 
ATOM     18  C   UNL     1      -6.886   1.282   1.161  0.00  0.00    +0.005 A 
ATOM     19  C   UNL     1      -8.092   1.893   1.447  0.00  0.00    +0.000 A 
ATOM     20  C   UNL     1      -8.676   2.742   0.524  0.00  0.00    +0.004 A 
ATOM     21  C   UNL     1      -8.054   2.981  -0.686  0.00  0.00    +0.045 A 
ATOM     22  C   UNL     1      -6.841   2.373  -0.973  0.00  0.00    +0.118 A 
BRANCH  22  23
ATOM     23  O   UNL     1      -6.225   2.611  -2.161  0.00  0.00    -0.507 OA
ATOM     24  H   UNL     1      -6.478   1.997  -2.865  0.00  0.00    +0.292 HD
ENDBRANCH  22  23
ENDBRANCH   4  17
BRANCH   3  25
ATOM     25  C   UNL     1      -3.838  -1.670  -1.389  0.00  0.00    -0.037 A 
ATOM     26  C   UNL     1      -5.116  -1.966  -1.828  0.00  0.00    +0.007 A 
ATOM     27  C   UNL     1      -5.315  -2.457  -3.104  0.00  0.00    +0.049 A 
ATOM     28  C   UNL     1      -4.234  -2.654  -3.948  0.00  0.00    +0.161 A 
ATOM     29  C   UNL     1      -2.948  -2.357  -3.507  0.00  0.00    +0.162 A 
ATOM     30  C   UNL     1      -2.755  -1.860  -2.228  0.00  0.00    +0.053 A 
BRANCH  29  31
ATOM     31  O   UNL     1      -1.884  -2.548  -4.331  0.00  0.00    -0.491 OA
ATOM     32  C   UNL     1      -0.593  -2.221  -3.811  0.00  0.00    +0.277 C 
ENDBRANCH  29  31
BRANCH  28  33
ATOM     33  O   UNL     1      -4.429  -3.137  -5.204  0.00  0.00    -0.491 OA
ATOM     34  C   UNL     1      -5.776  -3.420  -5.589  0.00  0.00    +0.277 C 
ENDBRANCH  28  33
ENDBRANCH   3  25
TORSDOF 7
