REMARK  Name = ZINC66241455
REMARK  6 active torsions:
REMARK  status: ('A' for Active; 'I' for Inactive)
REMARK    1  A    between atoms: C_4  and  C_7
REMARK    2  A    between atoms: C_7  and  C_8
REMARK    3  A    between atoms: C_15  and  C_17
REMARK    4  A    between atoms: C_20  and  N_23
REMARK    5  A    between atoms: C_24  and  N_30
REMARK    6  A    between atoms: C_25  and  C_28
REMARK                            x       y       z     vdW  Elec       q    Type
REMARK                         _______ _______ _______ _____ _____    ______ ____
ROOT
ATOM      1  C   UNL     1       1.306  -3.364   2.075  0.00  0.00    +0.037 A 
ATOM      2  C   UNL     1       1.673  -3.932   3.298  0.00  0.00    +0.015 A 
ATOM      3  C   UNL     1       0.815  -4.796   3.939  0.00  0.00    +0.028 A 
ATOM      4  C   UNL     1      -0.417  -5.106   3.370  0.00  0.00    +0.067 A 
ATOM      5  C   UNL     1      -0.785  -4.543   2.153  0.00  0.00    +0.028 A 
ATOM      6  C   UNL     1       0.066  -3.673   1.509  0.00  0.00    +0.015 A 
ENDROOT
BRANCH   1  13
ATOM      7  C   UNL     1       4.486  -1.645   0.884  0.00  0.00    +0.081 C 
ATOM      8  C   UNL     1       5.439  -2.363  -0.077  0.00  0.00    +0.023 C 
ATOM      9  C   UNL     1       6.120  -3.520   0.657  0.00  0.00    +0.003 C 
ATOM     10  C   UNL     1       5.063  -4.522   1.128  0.00  0.00    +0.019 C 
ATOM     11  C   UNL     1       4.106  -3.828   2.102  0.00  0.00    +0.108 C 
ATOM     12  N   UNL     1       3.556  -2.629   1.455  0.00  0.00    -0.294 N 
ATOM     13  C   UNL     1       2.224  -2.436   1.385  0.00  0.00    +0.247 C 
ATOM     14  O   UNL     1       1.778  -1.498   0.752  0.00  0.00    -0.270 OA
BRANCH   7  15
ATOM     15  C   UNL     1       3.698  -0.577   0.122  0.00  0.00    +0.057 C 
BRANCH  15  19
ATOM     16  C   UNL     1       6.406   2.285  -1.528  0.00  0.00    +0.000 A 
ATOM     17  C   UNL     1       5.957   1.232  -2.303  0.00  0.00    +0.000 A 
ATOM     18  C   UNL     1       5.080   0.306  -1.769  0.00  0.00    +0.004 A 
ATOM     19  C   UNL     1       4.654   0.432  -0.460  0.00  0.00    -0.046 A 
ATOM     20  C   UNL     1       5.104   1.485   0.315  0.00  0.00    +0.004 A 
ATOM     21  C   UNL     1       5.979   2.412  -0.220  0.00  0.00    +0.000 A 
ENDBRANCH  15  19
ENDBRANCH   7  15
ENDBRANCH   1  13
BRANCH   4  22
ATOM     22  N   UNL     1      -1.285  -5.984   4.024  0.00  0.00    -0.218 N 
ATOM     23  C   UNL     1      -2.642  -5.905   4.028  0.00  0.00    +0.137 A 
ATOM     24  C   UNL     1      -3.108  -6.970   4.793  0.00  0.00    +0.111 A 
ATOM     25  C   UNL     1      -1.974  -7.685   5.244  0.00  0.00    +0.155 A 
ATOM     26  N   UNL     1      -0.907  -7.098   4.780  0.00  0.00    -0.172 NA
BRANCH  23  27
ATOM     27  N   UNL     1      -3.411  -4.950   3.393  0.00  0.00    -0.342 N 
ATOM     28  H   UNL     1      -2.984  -4.245   2.882  0.00  0.00    +0.144 HD
ATOM     29  H   UNL     1      -4.378  -4.984   3.459  0.00  0.00    +0.144 HD
ENDBRANCH  23  27
BRANCH  24  30
ATOM     30  C   UNL     1      -4.478  -7.282   5.072  0.00  0.00    +0.104 C 
ATOM     31  N   UNL     1      -5.564  -7.530   5.292  0.00  0.00    -0.191 NA
ENDBRANCH  24  30
ENDBRANCH   4  22
TORSDOF 6
