REMARK  Name = ZINC43722191
REMARK  9 active torsions:
REMARK  status: ('A' for Active; 'I' for Inactive)
REMARK    1  A    between atoms: C_1  and  C_2
REMARK    2  A    between atoms: C_2  and  C_4
REMARK    3  A    between atoms: C_2  and  O_32
REMARK    4  A    between atoms: C_4  and  O_31
REMARK    5  A    between atoms: C_9  and  C_30
REMARK    6  A    between atoms: C_11  and  O_29
REMARK    7  A    between atoms: C_19  and  C_28
REMARK    8  A    between atoms: C_20  and  C_27
REMARK    9  A    between atoms: C_23  and  O_26
REMARK                            x       y       z     vdW  Elec       q    Type
REMARK                         _______ _______ _______ _____ _____    ______ ____
ROOT
ATOM      1  C   UNL     1       2.359  -0.103   1.467  0.00  0.00    +0.097 C 
ATOM      2  C   UNL     1       3.814   0.123   0.996  0.00  0.00    +0.038 C 
ATOM      3  C   UNL     1       4.537  -1.229   1.189  0.00  0.00    +0.007 C 
ATOM      4  C   UNL     1       3.409  -2.275   0.980  0.00  0.00    +0.001 C 
ATOM      5  C   UNL     1       2.212  -1.607   1.680  0.00  0.00    +0.005 C 
ATOM      6  C   UNL     1       0.895  -2.226   1.322  0.00  0.00    +0.041 C 
ATOM      7  C   UNL     1       0.672  -2.539  -0.154  0.00  0.00    +0.119 C 
ATOM      8  C   UNL     1       1.894  -3.195  -0.785  0.00  0.00    +0.027 C 
ATOM      9  C   UNL     1       3.147  -2.371  -0.533  0.00  0.00    -0.001 C 
ATOM     10  C   UNL     1       4.364  -3.030  -1.175  0.00  0.00    +0.005 C 
ATOM     11  C   UNL     1       4.164  -3.355  -2.644  0.00  0.00    +0.007 C 
ATOM     12  C   UNL     1       2.783  -2.960  -3.158  0.00  0.00    -0.024 C 
ATOM     13  C   UNL     1       1.686  -3.517  -2.261  0.00  0.00    -0.021 C 
ATOM     14  C   UNL     1       0.336  -3.037  -2.786  0.00  0.00    +0.010 C 
ATOM     15  C   UNL     1       0.100  -3.515  -4.216  0.00  0.00    +0.032 C 
ATOM     16  C   UNL     1       1.252  -3.235  -5.161  0.00  0.00    +0.115 C 
ATOM     17  C   UNL     1       2.620  -3.529  -4.576  0.00  0.00    +0.038 C 
ATOM     18  C   UNL     1       1.699  -5.062  -2.365  0.00  0.00    +0.012 C 
ATOM     19  C   UNL     1       2.706  -1.433  -3.282  0.00  0.00    +0.012 C 
ATOM     20  C   UNL     1       2.406  -1.855   3.199  0.00  0.00    +0.014 C 
ENDROOT
BRANCH   1  22
ATOM     21  C   UNL     1       1.537   1.980   0.371  0.00  0.00    +0.040 C 
ATOM     22  C   UNL     1       1.381   0.460   0.443  0.00  0.00    +0.144 C 
BRANCH  22  23
ATOM     23  O   UNL     1       1.654  -0.108  -0.839  0.00  0.00    -0.389 OA
ATOM     24  H   UNL     1       2.515   0.138  -1.204  0.00  0.00    +0.210 HD
ENDBRANCH  22  23
ENDBRANCH   1  22
BRANCH  16  25
ATOM     25  O   UNL     1       1.177  -1.898  -5.661  0.00  0.00    -0.392 OA
ATOM     26  H   UNL     1       0.365  -1.706  -6.151  0.00  0.00    +0.210 HD
ENDBRANCH  16  25
BRANCH   7  27
ATOM     27  O   UNL     1      -0.427  -3.479  -0.179  0.00  0.00    -0.391 OA
ATOM     28  H   UNL     1      -1.245  -3.138   0.207  0.00  0.00    +0.210 HD
ENDBRANCH   7  27
BRANCH   1  29
ATOM     29  O   UNL     1       2.170   0.576   2.721  0.00  0.00    -0.385 OA
ATOM     30  H   UNL     1       2.305   1.532   2.674  0.00  0.00    +0.210 HD
ENDBRANCH   1  29
TORSDOF 5
