REMARK  Name = ZINC38845362
REMARK  15 active torsions:
REMARK  status: ('A' for Active; 'I' for Inactive)
REMARK    1  A    between atoms: C_1  and  C_2
REMARK    2  A    between atoms: C_2  and  C_3
REMARK    3  A    between atoms: C_3  and  C_4
REMARK    4  A    between atoms: C_4  and  N_5
REMARK    5  A    between atoms: N_5  and  C_6
REMARK    6  A    between atoms: N_5  and  S_7
REMARK    7  A    between atoms: S_7  and  C_10
REMARK    8  A    between atoms: C_13  and  C_16
REMARK    9  A    between atoms: N_18  and  C_19
REMARK   10  A    between atoms: C_19  and  C_20
REMARK   11  A    between atoms: C_20  and  N_21
REMARK   12  A    between atoms: N_21  and  C_22
REMARK   13  A    between atoms: N_21  and  C_23
REMARK   14  A    between atoms: C_29  and  S_33
REMARK   15  A    between atoms: S_33  and  C_34
REMARK                            x       y       z     vdW  Elec       q    Type
REMARK                         _______ _______ _______ _____ _____    ______ ____
ROOT
ATOM      1  C   UNL     1       5.852   1.793   3.590  0.00  0.00    +0.252 C 
ATOM      2  O   UNL     1       6.178   2.355   2.562  0.00  0.00    -0.270 OA
ATOM      3  N   UNL     1       6.310   2.240   4.776  0.00  0.00    -0.248 N 
ATOM      4  C   UNL     1       7.052   3.409   4.837  0.00  0.00    +0.168 A 
ATOM      5  N   UNL     1       7.582   3.993   5.885  0.00  0.00    -0.224 NA
ATOM      6  C   UNL     1       8.288   5.143   5.796  0.00  0.00    +0.080 A 
ATOM      7  C   UNL     1       8.907   5.869   6.840  0.00  0.00    +0.030 A 
ATOM      8  C   UNL     1       9.585   7.019   6.585  0.00  0.00    +0.017 A 
ATOM      9  C   UNL     1       9.700   7.527   5.292  0.00  0.00    +0.009 A 
ATOM     10  C   UNL     1       9.106   6.841   4.240  0.00  0.00    +0.032 A 
ATOM     11  C   UNL     1       8.420   5.680   4.495  0.00  0.00    +0.042 A 
ATOM     12  S   UNL     1       7.535   4.500   3.506  0.00  0.00    -0.052 S 
ENDROOT
BRANCH   1  16
ATOM     13  C   UNL     1       3.271  -1.577   3.442  0.00  0.00    +0.106 A 
ATOM     14  C   UNL     1       2.977  -0.450   2.694  0.00  0.00    +0.029 A 
ATOM     15  C   UNL     1       3.811   0.648   2.738  0.00  0.00    +0.015 A 
ATOM     16  C   UNL     1       4.954   0.621   3.539  0.00  0.00    +0.037 A 
ATOM     17  C   UNL     1       5.245  -0.518   4.291  0.00  0.00    +0.015 A 
ATOM     18  C   UNL     1       4.399  -1.608   4.242  0.00  0.00    +0.029 A 
BRANCH  13  19
ATOM     19  S   UNL     1       2.201  -2.975   3.380  0.00  0.00    +0.061 S 
ATOM     20  O   UNL     1       2.983  -4.101   3.752  0.00  0.00    -0.153 OA
ATOM     21  O   UNL     1       1.510  -2.902   2.141  0.00  0.00    -0.153 OA
BRANCH  19  22
ATOM     22  N   UNL     1       1.065  -2.775   4.568  0.00  0.00    -0.180 NA
ATOM     23  C   UNL     1       1.313  -3.297   5.914  0.00  0.00    +0.131 C 
BRANCH  22  24
ATOM     24  C   UNL     1      -0.188  -2.075   4.273  0.00  0.00    +0.109 C 
BRANCH  24  25
ATOM     25  C   UNL     1      -0.053  -0.601   4.661  0.00  0.00    +0.017 C 
BRANCH  25  27
ATOM     26  C   UNL     1      -1.227   1.603   4.741  0.00  0.00    +0.004 C 
ATOM     27  C   UNL     1      -1.362   0.129   4.353  0.00  0.00    -0.002 C 
ENDBRANCH  25  27
ENDBRANCH  24  25
ENDBRANCH  22  24
ENDBRANCH  19  22
ENDBRANCH  13  19
ENDBRANCH   1  16
BRANCH   9  28
ATOM     28  S   UNL     1      10.586   9.021   4.996  0.00  0.00    -0.129 S 
ATOM     29  C   UNL     1      11.159   9.525   6.642  0.00  0.00    +0.090 C 
ENDBRANCH   9  28
BRANCH   3  30
ATOM     30  C   UNL     1       6.025   1.489   6.001  0.00  0.00    +0.097 C 
BRANCH  30  31
ATOM     31  C   UNL     1       7.229   0.616   6.357  0.00  0.00    -0.060 C 
BRANCH  31  32
ATOM     32  N   UNL     1       6.895  -0.234   7.508  0.00  0.00    +0.377 N 
ATOM     33  C   UNL     1       8.007  -1.157   7.774  0.00  0.00    -0.097 C 
ATOM     34  C   UNL     1       6.665   0.610   8.688  0.00  0.00    -0.097 C 
ATOM     35  H   UNL     1       6.061  -0.763   7.305  0.00  0.00    -0.083 HD
ENDBRANCH  31  32
ENDBRANCH  30  31
ENDBRANCH   3  30
TORSDOF 10
