REMARK  Name = ZINC12880947
REMARK  7 active torsions:
REMARK  status: ('A' for Active; 'I' for Inactive)
REMARK    1  A    between atoms: C_1  and  C_2
REMARK    2  A    between atoms: C_16  and  C_18
REMARK    3  A    between atoms: C_18  and  C_20
REMARK    4  A    between atoms: C_18  and  O_21
REMARK    5  A    between atoms: N_24  and  C_27
REMARK    6  A    between atoms: C_27  and  C_28
REMARK    7  A    between atoms: C_28  and  C_29
REMARK                            x       y       z     vdW  Elec       q    Type
REMARK                         _______ _______ _______ _____ _____    ______ ____
ROOT
ATOM      1  C   UNL     1      -3.002   4.632   0.168  0.00  0.00    +0.046 C 
ATOM      2  C   UNL     1      -1.498   4.696   0.084  0.00  0.00    -0.028 A 
ATOM      3  C   UNL     1      -0.867   5.917  -0.029  0.00  0.00    +0.025 A 
ATOM      4  C   UNL     1       0.512   5.986  -0.106  0.00  0.00    +0.042 A 
ATOM      5  C   UNL     1       1.263   4.823  -0.069  0.00  0.00    +0.024 A 
ATOM      6  C   UNL     1       0.636   3.602   0.045  0.00  0.00    -0.026 A 
ATOM      7  C   UNL     1      -0.751   3.521   0.122  0.00  0.00    +0.039 A 
ATOM      8  N   UNL     1      -1.152   2.187   0.226  0.00  0.00    -0.286 N 
ATOM      9  C   UNL     1      -0.103   1.341   0.233  0.00  0.00    +0.211 C 
ATOM     10  O   UNL     1      -0.149   0.132   0.315  0.00  0.00    -0.277 OA
ATOM     11  C   UNL     1       1.135   2.187   0.114  0.00  0.00    +0.050 C 
ATOM     12  C   UNL     1       1.950   1.816  -1.132  0.00  0.00    +0.088 C 
ATOM     13  C   UNL     1       3.431   1.996  -0.696  0.00  0.00    +0.075 C 
ATOM     14  C   UNL     1       3.358   2.465   0.773  0.00  0.00    -0.028 C 
ATOM     15  C   UNL     1       3.998   0.595  -0.745  0.00  0.00    +0.224 C 
ATOM     16  O   UNL     1       5.140   0.292  -0.473  0.00  0.00    -0.275 OA
ATOM     17  N   UNL     1       3.020  -0.252  -1.140  0.00  0.00    -0.241 N 
ATOM     18  C   UNL     1       1.841   0.329  -1.386  0.00  0.00    +0.225 C 
ATOM     19  O   UNL     1       0.840  -0.246  -1.756  0.00  0.00    -0.275 OA
ATOM     20 CL   UNL     1       1.301   7.526  -0.248  0.00  0.00    -0.084 Cl
ATOM     21  H   UNL     1      -2.077   1.903   0.287  0.00  0.00    +0.155 HD
ATOM     22  N   UNL     1       2.046   2.001   1.229  0.00  0.00    +0.396 N 
ATOM     23  H   UNL     1       2.092   1.008   1.489  0.00  0.00    -0.083 HD
ATOM     24  H   UNL     1       1.736   2.552   2.037  0.00  0.00    -0.083 HD
ENDROOT
BRANCH  14  25
ATOM     25  C   UNL     1       4.488   1.837   1.591  0.00  0.00    +0.098 C 
ATOM     26  C   UNL     1       5.826   2.447   1.166  0.00  0.00    +0.036 C 
BRANCH  25  27
ATOM     27  O   UNL     1       4.269   2.091   2.980  0.00  0.00    -0.394 OA
ATOM     28  H   UNL     1       4.239   3.031   3.208  0.00  0.00    +0.210 HD
ENDBRANCH  25  27
ENDBRANCH  14  25
BRANCH  17  29
ATOM     29  C   UNL     1       3.241  -1.692  -1.292  0.00  0.00    +0.121 C 
BRANCH  29  30
ATOM     30  C   UNL     1       3.705  -1.990  -2.719  0.00  0.00    +0.054 C 
BRANCH  30  31
ATOM     31  C   UNL     1       3.932  -3.471  -2.875  0.00  0.00    -0.046 A 
ATOM     32  C   UNL     1       5.176  -4.012  -2.611  0.00  0.00    +0.004 A 
ATOM     33  C   UNL     1       5.383  -5.372  -2.749  0.00  0.00    +0.000 A 
ATOM     34  C   UNL     1       4.348  -6.189  -3.163  0.00  0.00    +0.000 A 
ATOM     35  C   UNL     1       3.105  -5.648  -3.432  0.00  0.00    +0.000 A 
ATOM     36  C   UNL     1       2.897  -4.289  -3.289  0.00  0.00    +0.004 A 
ENDBRANCH  30  31
ENDBRANCH  29  30
ENDBRANCH  17  29
TORSDOF 5
