REMARK  Name = ZINC02280100
REMARK  11 active torsions:
REMARK  status: ('A' for Active; 'I' for Inactive)
REMARK    1  A    between atoms: C_1  and  C_2
REMARK    2  A    between atoms: C_2  and  C_3
REMARK    3  A    between atoms: C_2  and  C_4
REMARK    4  A    between atoms: C_4  and  C_5
REMARK    5  A    between atoms: C_5  and  S_6
REMARK    6  A    between atoms: S_6  and  C_7
REMARK    7  A    between atoms: C_19  and  C_21
REMARK    8  A    between atoms: C_19  and  C_22
REMARK    9  A    between atoms: N_25  and  C_26
REMARK   10  A    between atoms: C_29  and  O_32
REMARK   11  A    between atoms: O_32  and  C_33
REMARK                            x       y       z     vdW  Elec       q    Type
REMARK                         _______ _______ _______ _____ _____    ______ ____
ROOT
ATOM      1  C   UNL     1      -2.103   5.734  -1.014  0.00  0.00    +0.198 A 
ATOM      2  N   UNL     1      -3.345   6.027  -1.312  0.00  0.00    -0.120 NA
ATOM      3  N   UNL     1      -4.146   4.935  -0.955  0.00  0.00    -0.109 NA
ATOM      4  C   UNL     1      -3.368   4.008  -0.449  0.00  0.00    +0.245 A 
ATOM      5  N   UNL     1      -2.080   4.477  -0.471  0.00  0.00    -0.249 N 
ATOM      6  C   UNL     1      -1.052   3.697   0.008  0.00  0.00    +0.102 A 
ATOM      7  C   UNL     1      -1.271   2.426   0.531  0.00  0.00    +0.075 A 
ATOM      8  C   UNL     1      -0.079   1.719   0.996  0.00  0.00    -0.018 A 
ATOM      9  C   UNL     1       1.090   2.385   0.875  0.00  0.00    +0.021 A 
ATOM     10  S   UNL     1       0.652   3.934   0.144  0.00  0.00    -0.072 S 
ATOM     11  C   UNL     1       2.439   1.881   1.283  0.00  0.00    +0.203 C 
ATOM     12  O   UNL     1       2.244   0.724   2.112  0.00  0.00    -0.368 OA
ATOM     13  C   UNL     1       1.334  -0.230   1.558  0.00  0.00    +0.068 C 
ATOM     14  C   UNL     1      -0.097   0.319   1.598  0.00  0.00    +0.071 C 
ATOM     15  C   UNL     1       1.402  -1.526   2.369  0.00  0.00    +0.041 C 
ATOM     16  C   UNL     1       1.726  -0.518   0.108  0.00  0.00    +0.041 C 
ATOM     17  C   UNL     1      -2.674   1.952   0.532  0.00  0.00    +0.268 A 
ATOM     18  O   UNL     1      -2.946   0.848   0.968  0.00  0.00    -0.266 OA
ATOM     19  N   UNL     1      -3.646   2.746   0.054  0.00  0.00    -0.245 N 
ENDROOT
BRANCH  19  20
ATOM     20  C   UNL     1      -4.971   2.290   0.065  0.00  0.00    +0.053 A 
ATOM     21  C   UNL     1      -5.781   2.532   1.167  0.00  0.00    +0.030 A 
ATOM     22  C   UNL     1      -7.087   2.086   1.174  0.00  0.00    +0.047 A 
ATOM     23  C   UNL     1      -7.589   1.387   0.086  0.00  0.00    +0.120 A 
ATOM     24  C   UNL     1      -6.779   1.140  -1.014  0.00  0.00    +0.047 A 
ATOM     25  C   UNL     1      -5.473   1.590  -1.025  0.00  0.00    +0.030 A 
BRANCH  23  26
ATOM     26  O   UNL     1      -8.874   0.944   0.096  0.00  0.00    -0.495 OA
ATOM     27  C   UNL     1      -9.651   1.234   1.260  0.00  0.00    +0.277 C 
ENDBRANCH  23  26
ENDBRANCH  19  20
BRANCH   1  28
ATOM     28  S   UNL     1      -0.705   6.777  -1.267  0.00  0.00    -0.086 S 
BRANCH  28  29
ATOM     29  C   UNL     1      -1.405   8.277  -2.009  0.00  0.00    +0.078 C 
BRANCH  29  30
ATOM     30  C   UNL     1      -0.284   9.281  -2.284  0.00  0.00    +0.014 C 
BRANCH  30  32
ATOM     31  C   UNL     1       0.226  11.597  -3.070  0.00  0.00    +0.007 C 
ATOM     32  C   UNL     1      -0.875  10.546  -2.909  0.00  0.00    -0.016 C 
ATOM     33  C   UNL     1      -1.462  10.210  -4.282  0.00  0.00    +0.007 C 
ENDBRANCH  30  32
ENDBRANCH  29  30
ENDBRANCH  28  29
ENDBRANCH   1  28
TORSDOF 6
