REMARK  Name = ZINC32070612
REMARK  6 active torsions:
REMARK  status: ('A' for Active; 'I' for Inactive)
REMARK    1  A    between atoms: C_1  and  C_2
REMARK    2  A    between atoms: N_7  and  C_9
REMARK    3  A    between atoms: C_9  and  C_11
REMARK    4  A    between atoms: C_9  and  C_13
REMARK    5  A    between atoms: C_11  and  N_12
REMARK    6  A    between atoms: C_16  and  O_20
REMARK                            x       y       z     vdW  Elec       q    Type
REMARK                         _______ _______ _______ _____ _____    ______ ____
ROOT
ATOM      1  C   UNL     1       1.366  -2.507   2.463  0.00  0.00    +0.069 C 
ENDROOT
BRANCH   1   7
ATOM      2  C   UNL     1       0.304   0.814  -1.006  0.00  0.00    +0.009 C 
ATOM      3  C   UNL     1       0.228  -0.663  -0.617  0.00  0.00    +0.000 C 
ATOM      4  C   UNL     1       0.946  -1.508  -1.673  0.00  0.00    +0.006 C 
ATOM      5  C   UNL     1       0.918  -2.978  -1.246  0.00  0.00    +0.016 C 
ATOM      6  C   UNL     1       1.574  -3.117   0.129  0.00  0.00    +0.085 C 
ATOM      7  N   UNL     1       0.850  -2.291   1.104  0.00  0.00    -0.297 NA
ATOM      8  C   UNL     1       0.904  -0.870   0.741  0.00  0.00    +0.088 C 
ENDBRANCH   1   7
BRANCH   1   9
ATOM      9  C   UNL     1       2.841  -2.200   2.494  0.00  0.00    -0.031 A 
ATOM     10  C   UNL     1       3.736  -3.046   1.864  0.00  0.00    +0.009 A 
ATOM     11  C   UNL     1       5.089  -2.768   1.892  0.00  0.00    +0.047 A 
ATOM     12  C   UNL     1       5.550  -1.639   2.552  0.00  0.00    +0.131 A 
ATOM     13  C   UNL     1       4.651  -0.791   3.183  0.00  0.00    +0.060 A 
ATOM     14  C   UNL     1       3.298  -1.071   3.148  0.00  0.00    +0.024 A 
ATOM     15 BR   UNL     1       5.276   0.750   4.085  0.00  0.00    -0.047 Br
BRANCH  12  16
ATOM     16  O   UNL     1       6.881  -1.363   2.581  0.00  0.00    -0.506 OA
ATOM     17  H   UNL     1       7.185  -0.815   1.844  0.00  0.00    +0.292 HD
ENDBRANCH  12  16
ENDBRANCH   1   9
BRANCH   1  18
ATOM     18  C   UNL     1       1.139  -3.964   2.869  0.00  0.00    -0.063 C 
BRANCH  18  19
ATOM     19  N   UNL     1      -0.284  -4.297   2.724  0.00  0.00    +0.379 N 
ATOM     20  H   UNL     1      -0.833  -3.693   3.317  0.00  0.00    -0.090 HD
ATOM     21  H   UNL     1      -0.563  -4.169   1.762  0.00  0.00    -0.090 HD
ATOM     22  H   UNL     1      -0.433  -5.258   2.992  0.00  0.00    -0.090 HD
ENDBRANCH  18  19
ENDBRANCH   1  18
TORSDOF 5
