REMARK  Name = ZINC04593532
REMARK  7 active torsions:
REMARK  status: ('A' for Active; 'I' for Inactive)
REMARK    1  A    between atoms: C_1  and  C_2
REMARK    2  A    between atoms: C_2  and  C_28
REMARK    3  A    between atoms: C_6  and  C_14
REMARK    4  A    between atoms: C_8  and  C_12
REMARK    5  A    between atoms: C_9  and  N_11
REMARK    6  A    between atoms: C_16  and  C_19
REMARK    7  A    between atoms: C_19  and  N_53
REMARK                            x       y       z     vdW  Elec       q    Type
REMARK                         _______ _______ _______ _____ _____    ______ ____
ROOT
ATOM      1  C   UNL     1      -7.655   1.321   4.559  0.00  0.00    +0.012 C 
ATOM      2  C   UNL     1      -7.226   2.662   3.960  0.00  0.00    -0.021 C 
ATOM      3  C   UNL     1      -6.108   3.269   4.809  0.00  0.00    +0.081 C 
ATOM      4  C   UNL     1      -4.913   2.344   4.813  0.00  0.00    +0.115 C 
ATOM      5  C   UNL     1      -4.643   1.567   3.747  0.00  0.00    +0.046 C 
ATOM      6  C   UNL     1      -3.442   0.653   3.748  0.00  0.00    +0.108 C 
ATOM      7  C   UNL     1      -2.966   0.428   5.156  0.00  0.00    +0.099 C 
ATOM      8  C   UNL     1      -3.338   1.272   6.149  0.00  0.00    +0.198 C 
ATOM      9  O   UNL     1      -4.130   2.328   5.908  0.00  0.00    -0.445 OA
ATOM     10  C   UNL     1      -5.468   1.579   2.606  0.00  0.00    +0.164 C 
ATOM     11  O   UNL     1      -5.183   0.875   1.658  0.00  0.00    -0.292 OA
ATOM     12  C   UNL     1      -6.695   2.446   2.539  0.00  0.00    +0.086 C 
ATOM     13  C   UNL     1      -8.422   3.616   3.927  0.00  0.00    +0.012 C 
ENDROOT
BRANCH   6  14
ATOM     14  C   UNL     1      -2.335   1.282   2.941  0.00  0.00    +0.003 A 
ATOM     15  C   UNL     1      -1.721   0.816   1.826  0.00  0.00    +0.014 A 
ATOM     16  C   UNL     1      -0.718   1.572   1.248  0.00  0.00    -0.057 A 
ATOM     17  C   UNL     1      -0.375   2.754   1.816  0.00  0.00    +0.047 A 
ATOM     18  S   UNL     1      -1.493   2.834   3.206  0.00  0.00    -0.100 S 
BRANCH  16  19
ATOM     19  C   UNL     1      -0.013   1.086   0.008  0.00  0.00    -0.042 C 
BRANCH  19  25
ATOM     20  C   UNL     1      -2.057   0.963  -1.285  0.00  0.00    -0.050 C 
ATOM     21  C   UNL     1      -2.784   1.541  -2.502  0.00  0.00    +0.141 C 
ATOM     22  O   UNL     1      -1.994   1.317  -3.674  0.00  0.00    -0.383 OA
ATOM     23  C   UNL     1      -0.689   1.897  -3.608  0.00  0.00    +0.141 C 
ATOM     24  C   UNL     1       0.059   1.323  -2.401  0.00  0.00    -0.050 C 
ATOM     25  N   UNL     1      -0.727   1.599  -1.181  0.00  0.00    +0.385 N 
ATOM     26  H   UNL     1      -0.849   2.614  -1.084  0.00  0.00    -0.081 HD
ENDBRANCH  19  25
ENDBRANCH  16  19
ENDBRANCH   6  14
BRANCH   8  27
ATOM     27  N   UNL     1      -2.895   1.042   7.427  0.00  0.00    -0.328 N 
ATOM     28  H   UNL     1      -2.322   0.282   7.613  0.00  0.00    +0.145 HD
ATOM     29  H   UNL     1      -3.155   1.640   8.146  0.00  0.00    +0.145 HD
ENDBRANCH   8  27
BRANCH   7  30
ATOM     30  C   UNL     1      -2.114  -0.685   5.450  0.00  0.00    +0.101 C 
ATOM     31  N   UNL     1      -1.439  -1.568   5.683  0.00  0.00    -0.191 NA
ENDBRANCH   7  30
TORSDOF 5
