REMARK  Name = ZINC57303693
REMARK  9 active torsions:
REMARK  status: ('A' for Active; 'I' for Inactive)
REMARK    1  A    between atoms: C_1  and  C_2
REMARK    2  A    between atoms: C_2  and  C_3
REMARK    3  A    between atoms: C_2  and  C_4
REMARK    4  A    between atoms: C_4  and  C_6
REMARK    5  A    between atoms: C_4  and  N_17
REMARK    6  A    between atoms: N_17  and  C_18
REMARK    7  A    between atoms: C_18  and  C_19
REMARK    8  A    between atoms: N_21  and  C_22
REMARK    9  A    between atoms: C_23  and  C_31
REMARK                            x       y       z     vdW  Elec       q    Type
REMARK                         _______ _______ _______ _____ _____    ______ ____
ROOT
ATOM      1  C   UNL     1      -2.618   1.113  -1.198  0.00  0.00    +0.178 C 
ENDROOT
BRANCH   1   2
ATOM      2  C   UNL     1      -3.183   1.526  -2.533  0.00  0.00    +0.231 C 
ATOM      3  O   UNL     1      -3.123   0.768  -3.478  0.00  0.00    -0.274 OA
ATOM      4  N   UNL     1      -3.753   2.739  -2.676  0.00  0.00    -0.278 N 
ATOM      5  H   UNL     1      -3.800   3.345  -1.921  0.00  0.00    +0.155 HD
BRANCH   4   6
ATOM      6  C   UNL     1      -4.272   3.120  -3.904  0.00  0.00    +0.084 A 
ATOM      7  C   UNL     1      -4.885   4.318  -4.236  0.00  0.00    +0.068 A 
ATOM      8  C   UNL     1      -5.347   4.472  -5.604  0.00  0.00    -0.023 A 
ATOM      9  C   UNL     1      -5.113   3.398  -6.390  0.00  0.00    -0.004 A 
ATOM     10  S   UNL     1      -4.298   2.238  -5.333  0.00  0.00    -0.077 S 
ATOM     11  C   UNL     1      -5.469   3.248  -7.837  0.00  0.00    +0.043 C 
ATOM     12  C   UNL     1      -6.478   4.347  -8.202  0.00  0.00    +0.005 C 
ATOM     13  C   UNL     1      -5.961   5.689  -7.676  0.00  0.00    +0.005 C 
ATOM     14  C   UNL     1      -6.038   5.714  -6.147  0.00  0.00    +0.037 C 
BRANCH   7  15
ATOM     15  C   UNL     1      -5.059   5.386  -3.247  0.00  0.00    +0.244 C 
ATOM     16  O   UNL     1      -4.195   6.233  -3.107  0.00  0.00    -0.270 OA
ATOM     17  N   UNL     1      -6.174   5.431  -2.492  0.00  0.00    -0.325 N 
ATOM     18  H   UNL     1      -6.862   4.756  -2.603  0.00  0.00    +0.145 HD
ATOM     19  H   UNL     1      -6.290   6.138  -1.837  0.00  0.00    +0.145 HD
ENDBRANCH   7  15
ENDBRANCH   4   6
ENDBRANCH   1   2
BRANCH   1  20
ATOM     20  N   UNL     1      -2.057  -0.241  -1.302  0.00  0.00    -0.301 NA
ATOM     21  H   UNL     1      -1.305  -0.270  -1.974  0.00  0.00    +0.123 HD
BRANCH  20  22
ATOM     22  C   UNL     1      -1.611  -0.728   0.010  0.00  0.00    +0.087 C 
BRANCH  22  23
ATOM     23  C   UNL     1      -1.665  -2.234   0.032  0.00  0.00    -0.027 A 
ATOM     24  C   UNL     1      -1.267  -2.954  -1.080  0.00  0.00    +0.009 A 
ATOM     25  C   UNL     1      -1.313  -4.337  -1.067  0.00  0.00    +0.050 A 
ATOM     26  C   UNL     1      -1.760  -4.998   0.065  0.00  0.00    +0.162 A 
ATOM     27  C   UNL     1      -2.160  -4.275   1.180  0.00  0.00    +0.162 A 
ATOM     28  C   UNL     1      -2.108  -2.892   1.165  0.00  0.00    +0.054 A 
ATOM     29  O   UNL     1      -2.598  -4.937   2.290  0.00  0.00    -0.488 OA
ATOM     30  C   UNL     1      -3.845  -5.623   2.158  0.00  0.00    +0.232 C 
ATOM     31  C   UNL     1      -3.639  -7.003   1.553  0.00  0.00    +0.082 C 
ATOM     32  C   UNL     1      -3.117  -6.938   0.127  0.00  0.00    +0.232 C 
ATOM     33  O   UNL     1      -1.810  -6.361   0.091  0.00  0.00    -0.488 OA
ENDBRANCH  22  23
BRANCH  22  35
ATOM     34  C   UNL     1       0.247  -0.663   1.680  0.00  0.00    +0.009 C 
ATOM     35  C   UNL     1      -0.174  -0.266   0.264  0.00  0.00    +0.004 C 
ATOM     36  C   UNL     1       0.761  -0.927  -0.751  0.00  0.00    +0.009 C 
ENDBRANCH  22  35
ENDBRANCH  20  22
ENDBRANCH   1  20
TORSDOF 7
