REMARK  Name = ZINC63270278
REMARK  11 active torsions:
REMARK  status: ('A' for Active; 'I' for Inactive)
REMARK    1  A    between atoms: C_1  and  C_2
REMARK    2  A    between atoms: C_4  and  O_31
REMARK    3  A    between atoms: C_11  and  O_15
REMARK    4  A    between atoms: O_15  and  C_16
REMARK    5  A    between atoms: C_16  and  C_17
REMARK    6  A    between atoms: N_19  and  C_20
REMARK    7  A    between atoms: C_20  and  C_21
REMARK    8  A    between atoms: C_21  and  C_22
REMARK    9  A    between atoms: O_31  and  C_32
REMARK   10  A    between atoms: C_35  and  O_38
REMARK   11  A    between atoms: O_38  and  C_39
REMARK                            x       y       z     vdW  Elec       q    Type
REMARK                         _______ _______ _______ _____ _____    ______ ____
ROOT
ATOM      1  C   UNL     1       0.249   1.304   0.272  0.00  0.00    +0.056 C 
ATOM      2  C   UNL     1       0.061  -0.207   0.123  0.00  0.00    +0.219 C 
ATOM      3  C   UNL     1      -1.437  -0.528   0.012  0.00  0.00    +0.284 C 
ATOM      4  C   UNL     1      -1.565  -2.037  -0.099  0.00  0.00    +0.210 C 
ATOM      5  O   UNL     1      -2.364  -2.556  -0.850  0.00  0.00    -0.288 OA
ATOM      6  C   UNL     1      -0.670  -2.837   0.750  0.00  0.00    +0.063 A 
ATOM      7  C   UNL     1      -0.876  -4.211   0.910  0.00  0.00    +0.019 A 
ATOM      8  C   UNL     1      -0.030  -4.937   1.698  0.00  0.00    +0.046 A 
ATOM      9  C   UNL     1       1.037  -4.315   2.342  0.00  0.00    +0.125 A 
ATOM     10  C   UNL     1       1.252  -2.953   2.195  0.00  0.00    +0.092 A 
ATOM     11  C   UNL     1       0.402  -2.200   1.401  0.00  0.00    +0.135 A 
ATOM     12  O   UNL     1       0.604  -0.869   1.265  0.00  0.00    -0.484 OA
ENDROOT
BRANCH   9  13
ATOM     13  O   UNL     1       1.872  -5.048   3.120  0.00  0.00    -0.483 OA
BRANCH  13  14
ATOM     14  C   UNL     1       1.596  -6.446   3.231  0.00  0.00    +0.324 C 
BRANCH  14  15
ATOM     15  C   UNL     1       2.621  -7.091   4.128  0.00  0.00    +0.251 C 
ATOM     16  O   UNL     1       3.501  -6.419   4.624  0.00  0.00    -0.272 OA
ATOM     17  N   UNL     1       2.559  -8.413   4.380  0.00  0.00    -0.312 N 
ATOM     18  H   UNL     1       1.855  -8.950   3.984  0.00  0.00    +0.149 HD
BRANCH  17  19
ATOM     19  C   UNL     1       3.555  -9.040   5.253  0.00  0.00    +0.108 C 
BRANCH  19  20
ATOM     20  C   UNL     1       3.260 -10.537   5.371  0.00  0.00    +0.052 C 
BRANCH  20  21
ATOM     21  C   UNL     1       4.285 -11.181   6.269  0.00  0.00    -0.040 C 
ATOM     22  C   UNL     1       4.166 -11.426   7.594  0.00  0.00    -0.001 A 
ATOM     23  C   UNL     1       3.090 -11.174   8.559  0.00  0.00    +0.010 A 
ATOM     24  C   UNL     1       3.267 -11.538   9.849  0.00  0.00    +0.001 A 
ATOM     25  C   UNL     1       4.450 -12.149  10.287  0.00  0.00    +0.002 A 
ATOM     26  C   UNL     1       5.484 -12.413   9.459  0.00  0.00    +0.026 A 
ATOM     27  C   UNL     1       5.406 -12.073   8.081  0.00  0.00    +0.043 A 
ATOM     28  N   UNL     1       6.257 -12.222   7.095  0.00  0.00    -0.380 N 
ATOM     29  C   UNL     1       5.651 -11.692   5.869  0.00  0.00    +0.144 C 
ATOM     30  H   UNL     1       7.139 -12.620   7.164  0.00  0.00    +0.160 HD
ENDBRANCH  20  21
ENDBRANCH  19  20
ENDBRANCH  17  19
ENDBRANCH  14  15
ENDBRANCH  13  14
ENDBRANCH   9  13
BRANCH   3  31
ATOM     31  O   UNL     1      -2.121  -0.065   1.178  0.00  0.00    -0.477 OA
BRANCH  31  32
ATOM     32  C   UNL     1      -3.445   0.216   1.045  0.00  0.00    +0.122 A 
ATOM     33  C   UNL     1      -4.144   0.780   2.103  0.00  0.00    +0.049 A 
ATOM     34  C   UNL     1      -5.489   1.065   1.968  0.00  0.00    +0.049 A 
ATOM     35  C   UNL     1      -6.140   0.788   0.775  0.00  0.00    +0.120 A 
ATOM     36  C   UNL     1      -5.441   0.225  -0.282  0.00  0.00    +0.049 A 
ATOM     37  C   UNL     1      -4.096  -0.056  -0.149  0.00  0.00    +0.049 A 
BRANCH  35  38
ATOM     38  O   UNL     1      -7.464   1.068   0.643  0.00  0.00    -0.495 OA
ATOM     39  C   UNL     1      -8.071   0.757  -0.613  0.00  0.00    +0.277 C 
ENDBRANCH  35  38
ENDBRANCH  31  32
ENDBRANCH   3  31
TORSDOF 9
