REMARK  Name = ZINC08757755
REMARK  12 active torsions:
REMARK  status: ('A' for Active; 'I' for Inactive)
REMARK    1  A    between atoms: C_1  and  C_2
REMARK    2  A    between atoms: C_8  and  C_12
REMARK    3  A    between atoms: C_12  and  C_13
REMARK    4  A    between atoms: C_13  and  N_14
REMARK    5  A    between atoms: C_15  and  C_17
REMARK    6  A    between atoms: C_17  and  N_34
REMARK    7  A    between atoms: C_18  and  C_19
REMARK    8  A    between atoms: N_21  and  S_28
REMARK    9  A    between atoms: S_28  and  N_31
REMARK   10  A    between atoms: N_31  and  C_32
REMARK   11  A    between atoms: N_31  and  C_33
REMARK   12  A    between atoms: C_35  and  C_37
REMARK                            x       y       z     vdW  Elec       q    Type
REMARK                         _______ _______ _______ _____ _____    ______ ____
ROOT
ATOM      1  C   UNL     1       9.085   1.160  -2.837  0.00  0.00    +0.097 C 
ATOM      2  C   UNL     1       9.727   1.492  -3.986  0.00  0.00    +0.038 C 
ENDROOT
BRANCH   2   3
ATOM      3  C   UNL     1      11.144   1.863  -3.953  0.00  0.00    +0.004 A 
ATOM      4  C   UNL     1      11.947   1.927  -2.850  0.00  0.00    +0.122 A 
ATOM      5  N   UNL     1      13.199   2.307  -3.216  0.00  0.00    -0.208 N 
ATOM      6  C   UNL     1      13.261   2.506  -4.580  0.00  0.00    +0.074 A 
ATOM      7  C   UNL     1      11.987   2.233  -5.105  0.00  0.00    +0.009 A 
ATOM      8  C   UNL     1      11.754   2.360  -6.471  0.00  0.00    +0.010 A 
ATOM      9  C   UNL     1      12.781   2.743  -7.306  0.00  0.00    +0.001 A 
ATOM     10  C   UNL     1      14.041   3.007  -6.790  0.00  0.00    +0.002 A 
ATOM     11  C   UNL     1      14.285   2.891  -5.439  0.00  0.00    +0.028 A 
BRANCH   5  12
ATOM     12  S   UNL     1      14.470   2.502  -2.173  0.00  0.00    +0.123 S 
ATOM     13  O   UNL     1      13.993   2.155  -0.881  0.00  0.00    -0.136 OA
ATOM     14  O   UNL     1      15.588   1.859  -2.771  0.00  0.00    -0.136 OA
BRANCH  12  15
ATOM     15  N   UNL     1      14.823   4.120  -2.129  0.00  0.00    -0.168 NA
ATOM     16  C   UNL     1      14.220   4.973  -1.102  0.00  0.00    +0.133 C 
ATOM     17  C   UNL     1      15.738   4.697  -3.116  0.00  0.00    +0.133 C 
ENDBRANCH  12  15
ENDBRANCH   5  12
ENDBRANCH   2   3
BRANCH   1  19
ATOM     18  N   UNL     1       7.011   0.554  -1.714  0.00  0.00    -0.310 N 
ATOM     19  C   UNL     1       7.645   0.897  -2.852  0.00  0.00    +0.258 C 
ATOM     20  O   UNL     1       7.021   0.988  -3.894  0.00  0.00    -0.269 OA
ATOM     21  H   UNL     1       7.517   0.418  -0.898  0.00  0.00    +0.149 HD
BRANCH  18  22
ATOM     22  C   UNL     1       5.556   0.385  -1.709  0.00  0.00    +0.109 C 
BRANCH  22  23
ATOM     23  C   UNL     1       5.092  -0.003  -0.304  0.00  0.00    +0.056 C 
BRANCH  23  31
ATOM     24  C   UNL     1       2.686  -4.972  -1.829  0.00  0.00    +0.044 C 
ATOM     25  C   UNL     1       2.277  -3.598  -1.364  0.00  0.00    -0.050 A 
ATOM     26  C   UNL     1       0.931  -3.295  -1.209  0.00  0.00    +0.005 A 
ATOM     27  C   UNL     1       0.536  -2.046  -0.784  0.00  0.00    +0.026 A 
ATOM     28  C   UNL     1       1.494  -1.076  -0.506  0.00  0.00    +0.047 A 
ATOM     29  C   UNL     1       2.857  -1.388  -0.665  0.00  0.00    +0.003 A 
ATOM     30  C   UNL     1       3.235  -2.661  -1.097  0.00  0.00    +0.013 A 
ATOM     31  C   UNL     1       3.595  -0.177  -0.299  0.00  0.00    -0.021 A 
ATOM     32  C   UNL     1       2.684   0.749   0.042  0.00  0.00    +0.087 A 
ATOM     33  N   UNL     1       1.424   0.230  -0.076  0.00  0.00    -0.360 N 
ATOM     34  H   UNL     1       0.603   0.710   0.116  0.00  0.00    +0.165 HD
ENDBRANCH  23  31
ENDBRANCH  22  23
ENDBRANCH  18  22
ENDBRANCH   1  19
BRANCH   1  35
ATOM     35  N   UNL     1       9.802   1.070  -1.634  0.00  0.00    -0.277 N 
ATOM     36  C   UNL     1       9.473   1.859  -0.593  0.00  0.00    +0.248 C 
ATOM     37  O   UNL     1       8.507   2.594  -0.668  0.00  0.00    -0.270 OA
ATOM     38  H   UNL     1      10.534   0.439  -1.553  0.00  0.00    +0.155 HD
BRANCH  36  39
ATOM     39  C   UNL     1      10.285   1.831   0.642  0.00  0.00    +0.037 A 
ATOM     40  C   UNL     1      11.391   0.983   0.734  0.00  0.00    +0.013 A 
ATOM     41  C   UNL     1      12.149   0.966   1.887  0.00  0.00    +0.001 A 
ATOM     42  C   UNL     1      11.808   1.778   2.954  0.00  0.00    +0.000 A 
ATOM     43  C   UNL     1      10.710   2.615   2.872  0.00  0.00    +0.001 A 
ATOM     44  C   UNL     1       9.947   2.647   1.723  0.00  0.00    +0.013 A 
ENDBRANCH  36  39
ENDBRANCH   1  35
TORSDOF 9
