REMARK  Name = ZINC67185603
REMARK  10 active torsions:
REMARK  status: ('A' for Active; 'I' for Inactive)
REMARK    1  A    between atoms: C_1  and  C_2
REMARK    2  A    between atoms: C_2  and  C_3
REMARK    3  A    between atoms: C_2  and  O_4
REMARK    4  A    between atoms: O_4  and  C_5
REMARK    5  A    between atoms: C_5  and  C_6
REMARK    6  A    between atoms: C_11  and  C_12
REMARK    7  A    between atoms: C_12  and  N_13
REMARK    8  A    between atoms: N_13  and  C_14
REMARK    9  A    between atoms: C_14  and  C_15
REMARK   10  A    between atoms: C_20  and  C_21
REMARK                            x       y       z     vdW  Elec       q    Type
REMARK                         _______ _______ _______ _____ _____    ______ ____
ROOT
ATOM      1  C   UNL     1      -0.601  -5.879  -1.518  0.00  0.00    -0.042 C 
ENDROOT
BRANCH   1   2
ATOM      2  C   UNL     1       0.167  -6.671  -0.492  0.00  0.00    -0.016 A 
ATOM      3  C   UNL     1       1.399  -6.380  -0.021  0.00  0.00    +0.107 A 
ATOM      4  N   UNL     1       1.736  -7.327   0.881  0.00  0.00    -0.284 N 
ATOM      5  H   UNL     1       2.568  -7.369   1.379  0.00  0.00    +0.188 HD
ATOM      6  N   UNL     1       0.677  -8.239   0.974  0.00  0.00    -0.171 NA
ATOM      7  C   UNL     1      -0.275  -7.845   0.152  0.00  0.00    +0.129 A 
BRANCH   7   8
ATOM      8  C   UNL     1      -1.575  -8.517  -0.059  0.00  0.00    +0.156 A 
ATOM      9  C   UNL     1      -1.774  -9.856  -0.021  0.00  0.00    +0.060 A 
ATOM     10  C   UNL     1      -3.201 -10.062  -0.284  0.00  0.00    +0.021 A 
ATOM     11  C   UNL     1      -4.021 -11.188  -0.378  0.00  0.00    +0.011 A 
ATOM     12  C   UNL     1      -5.353 -11.035  -0.643  0.00  0.00    +0.001 A 
ATOM     13  C   UNL     1      -5.894  -9.770  -0.819  0.00  0.00    +0.004 A 
ATOM     14  C   UNL     1      -5.100  -8.646  -0.731  0.00  0.00    +0.047 A 
ATOM     15  C   UNL     1      -3.744  -8.777  -0.461  0.00  0.00    +0.136 A 
ATOM     16  O   UNL     1      -2.740  -7.889  -0.314  0.00  0.00    -0.453 OA
ENDBRANCH   7   8
ENDBRANCH   1   2
BRANCH   1  17
ATOM     17  N   UNL     1      -1.585  -5.024  -0.841  0.00  0.00    +0.384 N 
ATOM     18  H   UNL     1      -1.107  -4.391  -0.216  0.00  0.00    -0.085 HD
ATOM     19  H   UNL     1      -2.224  -5.599  -0.313  0.00  0.00    -0.085 HD
BRANCH  17  20
ATOM     20  C   UNL     1      -2.333  -4.251  -1.841  0.00  0.00    -0.046 C 
BRANCH  20  26
ATOM     21  C   UNL     1      -2.943  -2.181  -0.575  0.00  0.00    -0.021 A 
ATOM     22  C   UNL     1      -3.870  -1.373   0.058  0.00  0.00    +0.006 A 
ATOM     23  C   UNL     1      -5.195  -1.762   0.123  0.00  0.00    +0.000 A 
ATOM     24  C   UNL     1      -5.593  -2.958  -0.445  0.00  0.00    +0.000 A 
ATOM     25  C   UNL     1      -4.667  -3.765  -1.078  0.00  0.00    +0.002 A 
ATOM     26  C   UNL     1      -3.342  -3.374  -1.147  0.00  0.00    -0.059 A 
BRANCH  21  27
ATOM     27  C   UNL     1      -1.499  -1.757  -0.646  0.00  0.00    +0.195 C 
BRANCH  27  28
ATOM     28  O   UNL     1      -1.339  -0.499   0.012  0.00  0.00    -0.373 OA
BRANCH  28  30
ATOM     29  C   UNL     1      -0.019   1.526   0.010  0.00  0.00    +0.037 C 
ATOM     30  C   UNL     1       0.002  -0.004   0.002  0.00  0.00    +0.113 C 
ATOM     31  C   UNL     1       0.742  -0.511   1.242  0.00  0.00    +0.037 C 
ENDBRANCH  28  30
ENDBRANCH  27  28
ENDBRANCH  21  27
ENDBRANCH  20  26
ENDBRANCH  17  20
ENDBRANCH   1  17
TORSDOF 8
