REMARK  Name = ZINC59461104
REMARK  6 active torsions:
REMARK  status: ('A' for Active; 'I' for Inactive)
REMARK    1  A    between atoms: C_1  and  O_2
REMARK    2  A    between atoms: O_2  and  C_3
REMARK    3  A    between atoms: C_6  and  C_13
REMARK    4  A    between atoms: N_14  and  C_15
REMARK    5  A    between atoms: C_18  and  S_21
REMARK    6  A    between atoms: S_21  and  N_24
REMARK                            x       y       z     vdW  Elec       q    Type
REMARK                         _______ _______ _______ _____ _____    ______ ____
ROOT
ATOM      1  C   UNL     1       3.304  -4.261  -5.574  0.00  0.00    +0.064 A 
ATOM      2  C   UNL     1       2.975  -3.845  -6.866  0.00  0.00    +0.029 A 
ATOM      3  C   UNL     1       3.601  -4.419  -7.953  0.00  0.00    +0.031 A 
ATOM      4  C   UNL     1       4.552  -5.406  -7.765  0.00  0.00    +0.113 A 
ATOM      5  C   UNL     1       4.883  -5.824  -6.488  0.00  0.00    +0.031 A 
ATOM      6  C   UNL     1       4.270  -5.254  -5.392  0.00  0.00    +0.029 A 
ENDROOT
BRANCH   4   7
ATOM      7  S   UNL     1       5.346  -6.135  -9.159  0.00  0.00    +0.102 S 
ATOM      8  O   UNL     1       5.801  -7.415  -8.744  0.00  0.00    -0.146 OA
ATOM      9  O   UNL     1       4.470  -5.958 -10.264  0.00  0.00    -0.146 OA
BRANCH   7  10
ATOM     10  N   UNL     1       6.699  -5.233  -9.479  0.00  0.00    -0.093 NA
ATOM     11  C   UNL     1       7.478  -5.557 -10.472  0.00  0.00    +0.212 C 
ATOM     12  N   UNL     1       7.178  -6.647 -11.254  0.00  0.00    -0.369 N 
ATOM     13  N   UNL     1       8.601  -4.809 -10.737  0.00  0.00    -0.369 N 
ATOM     14  H   UNL     1       6.386  -7.175 -11.067  0.00  0.00    +0.159 HD
ATOM     15  H   UNL     1       8.812  -4.040 -10.185  0.00  0.00    +0.159 HD
ATOM     16  H   UNL     1       9.181  -5.050 -11.476  0.00  0.00    +0.159 HD
ATOM     17  H   UNL     1       7.758  -6.888 -11.993  0.00  0.00    +0.159 HD
ENDBRANCH   7  10
ENDBRANCH   4   7
BRANCH   1  19
ATOM     18  C   UNL     1       2.532  -2.401  -4.431  0.00  0.00    +0.120 C 
ATOM     19  N   UNL     1       2.687  -3.696  -4.492  0.00  0.00    -0.255 NA
BRANCH  18  23
ATOM     20  C   UNL     1       0.605  -0.606  -1.053  0.00  0.00    +0.128 A 
ATOM     21  C   UNL     1       1.174   0.163  -2.046  0.00  0.00    +0.047 A 
ATOM     22  C   UNL     1       1.798  -0.410  -3.141  0.00  0.00    +0.013 A 
ATOM     23  C   UNL     1       1.871  -1.795  -3.272  0.00  0.00    +0.001 A 
ATOM     24  C   UNL     1       1.275  -2.635  -2.232  0.00  0.00    -0.006 A 
ATOM     25  C   UNL     1       0.649  -2.014  -1.125  0.00  0.00    +0.024 A 
ATOM     26  C   UNL     1       0.080  -2.814  -0.121  0.00  0.00    +0.012 A 
ATOM     27  C   UNL     1       0.142  -4.171  -0.224  0.00  0.00    +0.001 A 
ATOM     28  C   UNL     1       0.763  -4.779  -1.312  0.00  0.00    +0.001 A 
ATOM     29  C   UNL     1       1.316  -4.031  -2.310  0.00  0.00    +0.009 A 
BRANCH  20  31
ATOM     30  C   UNL     1      -0.009   1.425   0.015  0.00  0.00    +0.277 C 
ATOM     31  O   UNL     1       0.003  -0.004   0.002  0.00  0.00    -0.495 OA
ENDBRANCH  20  31
ENDBRANCH  18  23
ENDBRANCH   1  19
TORSDOF 5
