REMARK  Name = ZINC39665278
REMARK  9 active torsions:
REMARK  status: ('A' for Active; 'I' for Inactive)
REMARK    1  A    between atoms: C_1  and  C_2
REMARK    2  A    between atoms: C_2  and  C_4
REMARK    3  A    between atoms: C_2  and  O_30
REMARK    4  A    between atoms: C_4  and  N_5
REMARK    5  A    between atoms: C_6  and  C_8
REMARK    6  A    between atoms: C_19  and  C_21
REMARK    7  A    between atoms: C_23  and  O_28
REMARK    8  A    between atoms: O_28  and  C_29
REMARK    9  A    between atoms: O_30  and  C_31
REMARK                            x       y       z     vdW  Elec       q    Type
REMARK                         _______ _______ _______ _____ _____    ______ ____
ROOT
ATOM      1  C   UNL     1       1.633  -4.314  -3.435  0.00  0.00    +0.100 C 
ATOM      2  C   UNL     1       0.231  -4.956  -3.335  0.00  0.00    +0.121 C 
ATOM      3  N   UNL     1      -0.207  -5.119  -4.742  0.00  0.00    -0.296 N 
ATOM      4  C   UNL     1       1.017  -5.541  -5.463  0.00  0.00    +0.115 C 
ATOM      5  C   UNL     1       2.147  -4.704  -4.831  0.00  0.00    -0.004 C 
ATOM      6  C   UNL     1       3.419  -5.537  -4.712  0.00  0.00    -0.010 C 
ATOM      7  C   UNL     1       3.944  -5.863  -6.113  0.00  0.00    -0.082 C 
ATOM      8  N   UNL     1       4.218  -4.616  -6.837  0.00  0.00    +0.379 N 
ATOM      9  C   UNL     1       2.973  -3.864  -7.029  0.00  0.00    -0.082 C 
ATOM     10  C   UNL     1       2.407  -3.454  -5.666  0.00  0.00    -0.010 C 
ATOM     11  C   UNL     1      -1.440  -4.926  -5.250  0.00  0.00    +0.248 C 
ATOM     12  O   UNL     1      -1.665  -5.189  -6.416  0.00  0.00    -0.270 OA
ATOM     13  H   UNL     1       4.869  -4.057  -6.306  0.00  0.00    -0.086 HD
ATOM     14  H   UNL     1       4.621  -4.832  -7.736  0.00  0.00    -0.086 HD
ENDROOT
BRANCH  11  15
ATOM     15  C   UNL     1      -2.520  -4.396  -4.391  0.00  0.00    +0.054 A 
ATOM     16  C   UNL     1      -2.669  -4.864  -3.085  0.00  0.00    +0.059 A 
ATOM     17  C   UNL     1      -3.682  -4.363  -2.286  0.00  0.00    +0.121 A 
ATOM     18  C   UNL     1      -4.547  -3.397  -2.784  0.00  0.00    +0.047 A 
ATOM     19  C   UNL     1      -4.401  -2.931  -4.077  0.00  0.00    +0.019 A 
ATOM     20  C   UNL     1      -3.391  -3.420  -4.881  0.00  0.00    +0.030 A 
ATOM     21 BR   UNL     1      -3.191  -2.775  -6.648  0.00  0.00    -0.050 Br
BRANCH  17  22
ATOM     22  O   UNL     1      -3.831  -4.817  -1.014  0.00  0.00    -0.495 OA
ATOM     23  C   UNL     1      -4.897  -4.256  -0.245  0.00  0.00    +0.277 C 
ENDBRANCH  17  22
ENDBRANCH  11  15
BRANCH   1  25
ATOM     24  N   UNL     1       2.605  -2.100  -2.915  0.00  0.00    -0.312 N 
ATOM     25  C   UNL     1       1.534  -2.816  -3.311  0.00  0.00    +0.218 C 
ATOM     26  O   UNL     1       0.490  -2.253  -3.569  0.00  0.00    -0.275 OA
ATOM     27  H   UNL     1       3.439  -2.550  -2.709  0.00  0.00    +0.149 HD
BRANCH  24  28
ATOM     28  C   UNL     1       2.509  -0.643  -2.795  0.00  0.00    +0.148 C 
BRANCH  28  30
ATOM     29  C   UNL     1       3.719   1.424  -2.086  0.00  0.00    +0.053 C 
ATOM     30  C   UNL     1       3.854  -0.080  -2.331  0.00  0.00    +0.187 C 
BRANCH  30  31
ATOM     31  O   UNL     1       4.840  -0.312  -3.338  0.00  0.00    -0.488 OA
BRANCH  31  32
ATOM     32  C   UNL     1       6.137  -0.352  -2.934  0.00  0.00    +0.121 A 
ATOM     33  C   UNL     1       6.450  -0.223  -1.589  0.00  0.00    +0.045 A 
ATOM     34  C   UNL     1       7.769  -0.265  -1.181  0.00  0.00    +0.004 A 
ATOM     35  C   UNL     1       8.777  -0.435  -2.112  0.00  0.00    +0.000 A 
ATOM     36  C   UNL     1       8.468  -0.564  -3.453  0.00  0.00    +0.004 A 
ATOM     37  C   UNL     1       7.150  -0.529  -3.866  0.00  0.00    +0.045 A 
ENDBRANCH  31  32
ENDBRANCH  30  31
ENDBRANCH  28  30
ENDBRANCH  24  28
ENDBRANCH   1  25
TORSDOF 7
