REMARK  Name = ZINC39933368
REMARK  9 active torsions:
REMARK  status: ('A' for Active; 'I' for Inactive)
REMARK    1  A    between atoms: C_1  and  C_2
REMARK    2  A    between atoms: C_2  and  C_4
REMARK    3  A    between atoms: C_2  and  N_14
REMARK    4  A    between atoms: C_7  and  S_10
REMARK    5  A    between atoms: S_10  and  N_13
REMARK    6  A    between atoms: C_15  and  C_17
REMARK    7  A    between atoms: C_17  and  S_18
REMARK    8  A    between atoms: S_18  and  C_19
REMARK    9  A    between atoms: C_23  and  C_25
REMARK                            x       y       z     vdW  Elec       q    Type
REMARK                         _______ _______ _______ _____ _____    ______ ____
ROOT
ATOM      1  N   UNL     1       0.688  -0.476  -1.203  0.00  0.00    -0.308 N 
ATOM      2  C   UNL     1       2.031  -0.587  -1.215  0.00  0.00    +0.223 C 
ATOM      3  O   UNL     1       2.672  -0.295  -0.228  0.00  0.00    -0.275 OA
ATOM      4  H   UNL     1       0.175  -0.710  -1.993  0.00  0.00    +0.149 HD
ENDROOT
BRANCH   1   6
ATOM      5  C   UNL     1      -0.019   1.526   0.010  0.00  0.00    +0.033 C 
ATOM      6  C   UNL     1       0.002  -0.004   0.002  0.00  0.00    +0.100 C 
BRANCH   6   7
ATOM      7  C   UNL     1      -1.412  -0.526   0.013  0.00  0.00    -0.027 A 
ATOM      8  C   UNL     1      -2.141  -0.569  -1.161  0.00  0.00    +0.007 A 
ATOM      9  C   UNL     1      -3.438  -1.047  -1.151  0.00  0.00    +0.029 A 
ATOM     10  C   UNL     1      -4.005  -1.483   0.032  0.00  0.00    +0.105 A 
ATOM     11  C   UNL     1      -3.275  -1.441   1.205  0.00  0.00    +0.029 A 
ATOM     12  C   UNL     1      -1.977  -0.966   1.195  0.00  0.00    +0.007 A 
BRANCH  10  13
ATOM     13  S   UNL     1      -5.659  -2.092   0.045  0.00  0.00    +0.056 S 
ATOM     14  O   UNL     1      -6.142  -1.928   1.371  0.00  0.00    -0.153 OA
ATOM     15  O   UNL     1      -6.311  -1.518  -1.080  0.00  0.00    -0.153 OA
BRANCH  13  16
ATOM     16  N   UNL     1      -5.582  -3.723  -0.233  0.00  0.00    -0.204 NA
ATOM     17  H   UNL     1      -6.256  -4.311   0.142  0.00  0.00    +0.144 HD
ATOM     18  H   UNL     1      -4.863  -4.090  -0.771  0.00  0.00    +0.144 HD
ENDBRANCH  13  16
ENDBRANCH  10  13
ENDBRANCH   6   7
ENDBRANCH   1   6
BRANCH   2  19
ATOM     19  C   UNL     1       2.736  -1.073  -2.455  0.00  0.00    +0.170 C 
BRANCH  19  20
ATOM     20  S   UNL     1       4.525  -1.111  -2.157  0.00  0.00    -0.087 S 
BRANCH  20  21
ATOM     21  C   UNL     1       5.218  -1.710  -3.723  0.00  0.00    +0.339 C 
ATOM     22  N   UNL     1       4.659  -3.029  -4.062  0.00  0.00    -0.219 N 
ATOM     23  N   UNL     1       3.991  -2.852  -5.282  0.00  0.00    -0.145 NA
ATOM     24  C   UNL     1       4.098  -1.611  -5.678  0.00  0.00    +0.238 C 
ATOM     25  O   UNL     1       4.817  -0.858  -4.806  0.00  0.00    -0.443 OA
ATOM     26  H   UNL     1       4.736  -3.849  -3.549  0.00  0.00    +0.173 HD
BRANCH  24  27
ATOM     27  C   UNL     1       3.538  -1.115  -6.863  0.00  0.00    +0.043 C 
ATOM     28  C   UNL     1       2.786  -1.823  -7.802  0.00  0.00    +0.008 A 
ATOM     29  C   UNL     1       2.370  -3.170  -7.870  0.00  0.00    +0.010 A 
ATOM     30  C   UNL     1       1.629  -3.593  -8.926  0.00  0.00    +0.001 A 
ATOM     31  C   UNL     1       1.263  -2.726  -9.957  0.00  0.00    +0.002 A 
ATOM     32  C   UNL     1       1.628  -1.420  -9.957  0.00  0.00    +0.026 A 
ATOM     33  C   UNL     1       2.403  -0.905  -8.886  0.00  0.00    +0.043 A 
ATOM     34  N   UNL     1       2.877   0.304  -8.655  0.00  0.00    -0.380 N 
ATOM     35  C   UNL     1       3.616   0.301  -7.389  0.00  0.00    +0.154 C 
ATOM     36  H   UNL     1       2.753   1.075  -9.231  0.00  0.00    +0.160 HD
ENDBRANCH  24  27
ENDBRANCH  20  21
ENDBRANCH  19  20
ENDBRANCH   2  19
TORSDOF 8
