REMARK  Name = ZINC19799843
REMARK  7 active torsions:
REMARK  status: ('A' for Active; 'I' for Inactive)
REMARK    1  A    between atoms: C_1  and  C_2
REMARK    2  A    between atoms: C_3  and  C_9
REMARK    3  A    between atoms: C_4  and  O_8
REMARK    4  A    between atoms: C_9  and  C_10
REMARK    5  A    between atoms: C_9  and  C_17
REMARK    6  A    between atoms: C_18  and  C_24
REMARK    7  A    between atoms: C_22  and  O_23
REMARK                            x       y       z     vdW  Elec       q    Type
REMARK                         _______ _______ _______ _____ _____    ______ ____
ROOT
ATOM      1  C   UNL     1      -0.120  -0.321  -2.553  0.00  0.00    +0.093 C 
ENDROOT
BRANCH   1   4
ATOM      2  C   UNL     1       2.597  -1.254  -1.217  0.00  0.00    +0.068 C 
ATOM      3  C   UNL     1       1.215  -1.696  -0.811  0.00  0.00    +0.068 A 
ATOM      4  C   UNL     1       0.017  -1.284  -1.402  0.00  0.00    +0.048 A 
ATOM      5  C   UNL     1      -1.003  -1.906  -0.753  0.00  0.00    +0.213 A 
ATOM      6  N   UNL     1      -0.461  -2.682   0.212  0.00  0.00    -0.247 N 
ATOM      7  H   UNL     1      -0.949  -3.243   0.834  0.00  0.00    +0.192 HD
ATOM      8  N   UNL     1       0.931  -2.537   0.150  0.00  0.00    -0.176 NA
BRANCH   5   9
ATOM      9  O   UNL     1      -2.326  -1.772  -1.024  0.00  0.00    -0.492 OA
ATOM     10  H   UNL     1      -2.680  -2.459  -1.605  0.00  0.00    +0.294 HD
ENDBRANCH   5   9
ENDBRANCH   1   4
BRANCH   1  11
ATOM     11  C   UNL     1       1.033  -0.509  -3.505  0.00  0.00    -0.035 A 
ATOM     12  C   UNL     1       1.356  -1.774  -3.957  0.00  0.00    +0.005 A 
ATOM     13  C   UNL     1       2.413  -1.947  -4.831  0.00  0.00    +0.015 A 
ATOM     14  C   UNL     1       3.147  -0.853  -5.253  0.00  0.00    +0.018 A 
ATOM     15  C   UNL     1       2.823   0.413  -4.800  0.00  0.00    +0.015 A 
ATOM     16  C   UNL     1       1.763   0.585  -3.930  0.00  0.00    +0.005 A 
ATOM     17 BR   UNL     1       4.594  -1.089  -6.447  0.00  0.00    -0.050 Br
ENDBRANCH   1  11
BRANCH   1  18
ATOM     18  C   UNL     1      -1.417  -0.583  -3.276  0.00  0.00    +0.048 A 
ATOM     19  C   UNL     1      -2.382   0.328  -3.534  0.00  0.00    +0.041 A 
ATOM     20  N   UNL     1      -3.376  -0.299  -4.197  0.00  0.00    -0.278 N 
ATOM     21  N   UNL     1      -3.012  -1.643  -4.353  0.00  0.00    -0.136 NA
ATOM     22  H   UNL     1      -4.199   0.108  -4.510  0.00  0.00    +0.189 HD
ATOM     23  C   UNL     1      -1.833  -1.813  -3.805  0.00  0.00    +0.236 A 
ATOM     24  C   UNL     1      -2.354   1.785  -3.149  0.00  0.00    +0.065 C 
BRANCH  23  25
ATOM     25  O   UNL     1      -1.136  -2.980  -3.756  0.00  0.00    -0.491 OA
ATOM     26  H   UNL     1      -1.380  -3.553  -3.017  0.00  0.00    +0.294 HD
ENDBRANCH  23  25
ENDBRANCH   1  18
TORSDOF 5
