REMARK  Name = ZINC20907098
REMARK  11 active torsions:
REMARK  status: ('A' for Active; 'I' for Inactive)
REMARK    1  A    between atoms: C_1  and  C_2
REMARK    2  A    between atoms: C_2  and  C_3
REMARK    3  A    between atoms: C_3  and  C_5
REMARK    4  A    between atoms: C_3  and  C_6
REMARK    5  A    between atoms: C_9  and  N_12
REMARK    6  A    between atoms: C_13  and  C_15
REMARK    7  A    between atoms: C_15  and  S_16
REMARK    8  A    between atoms: S_16  and  C_17
REMARK    9  A    between atoms: N_22  and  N_23
REMARK   10  A    between atoms: C_24  and  C_25
REMARK   11  A    between atoms: C_34  and  O_35
REMARK                            x       y       z     vdW  Elec       q    Type
REMARK                         _______ _______ _______ _____ _____    ______ ____
ROOT
ATOM      1  C   UNL     1      -3.233  11.553   0.107  0.00  0.00    +0.211 A 
ATOM      2  N   UNL     1      -3.664  10.256   0.104  0.00  0.00    -0.186 NA
ATOM      3  C   UNL     1      -2.563   9.445   0.099  0.00  0.00    +0.232 A 
ATOM      4  N   UNL     1      -1.497  10.209   0.104  0.00  0.00    -0.245 N 
ATOM      5  N   UNL     1      -1.921  11.544   0.105  0.00  0.00    -0.144 NA
ATOM      6  N   UNL     1      -2.571   8.059   0.095  0.00  0.00    -0.205 N 
ATOM      7  H   UNL     1      -3.528   7.515   0.096  0.00  0.00    +0.177 HD
ATOM      8  H   UNL     1      -0.495   9.755   0.108  0.00  0.00    +0.192 HD
ENDROOT
BRANCH   6   9
ATOM      9  N   UNL     1      -1.363   7.350   0.090  0.00  0.00    -0.187 NA
ATOM     10  C   UNL     1      -1.371   6.050   0.087  0.00  0.00    +0.142 C 
BRANCH  10  11
ATOM     11  C   UNL     1      -0.103   5.307   0.082  0.00  0.00    +0.044 A 
ATOM     12  C   UNL     1      -0.094   3.845   0.078  0.00  0.00    -0.006 A 
ATOM     13  C   UNL     1      -1.284   3.107   0.078  0.00  0.00    +0.009 A 
ATOM     14  C   UNL     1      -1.232   1.745   0.069  0.00  0.00    +0.001 A 
ATOM     15  C   UNL     1      -0.011   1.076   0.070  0.00  0.00    +0.001 A 
ATOM     16  C   UNL     1       1.165   1.762   0.069  0.00  0.00    +0.008 A 
ATOM     17  C   UNL     1       1.150   3.168   0.073  0.00  0.00    -0.017 A 
ATOM     18  C   UNL     1       2.343   3.911   0.071  0.00  0.00    +0.012 A 
ATOM     19  C   UNL     1       2.317   5.270   0.075  0.00  0.00    +0.046 A 
ATOM     20  C   UNL     1       1.118   5.981   0.081  0.00  0.00    +0.126 A 
BRANCH  20  21
ATOM     21  O   UNL     1       1.139   7.339   0.085  0.00  0.00    -0.506 OA
ATOM     22  H   UNL     1       2.099   7.874   0.084  0.00  0.00    +0.292 HD
ENDBRANCH  20  21
ENDBRANCH  10  11
ENDBRANCH   6   9
BRANCH   1  23
ATOM     23  S   UNL     1      -4.260  12.985   0.113  0.00  0.00    -0.075 S 
BRANCH  23  24
ATOM     24  C   UNL     1      -3.085  14.367   0.116  0.00  0.00    +0.173 C 
BRANCH  24  26
ATOM     25  N   UNL     1      -3.171  16.839   0.124  0.00  0.00    -0.285 N 
ATOM     26  C   UNL     1      -3.842  15.670   0.121  0.00  0.00    +0.227 C 
ATOM     27  O   UNL     1      -5.055  15.666   0.123  0.00  0.00    -0.275 OA
ATOM     28  H   UNL     1      -2.074  16.843   0.199  0.00  0.00    +0.155 HD
BRANCH  25  32
ATOM     29  C   UNL     1      -5.255  20.436  -0.152  0.00  0.00    -0.044 A 
ATOM     30  C   UNL     1      -5.804  19.372   0.540  0.00  0.00    +0.006 A 
ATOM     31  C   UNL     1      -5.115  18.178   0.634  0.00  0.00    +0.023 A 
ATOM     32  C   UNL     1      -3.871  18.047   0.031  0.00  0.00    +0.033 A 
ATOM     33  C   UNL     1      -3.321  19.119  -0.659  0.00  0.00    +0.023 A 
ATOM     34  C   UNL     1      -4.016  20.308  -0.753  0.00  0.00    +0.006 A 
BRANCH  29  35
ATOM     35  C   UNL     1      -6.009  21.737  -0.252  0.00  0.00    +0.016 C 
ATOM     36  C   UNL     1      -6.276  22.060  -1.724  0.00  0.00    +0.012 C 
BRANCH  35  38
ATOM     37  C   UNL     1      -5.991  24.153   0.384  0.00  0.00    +0.004 C 
ATOM     38  C   UNL     1      -5.176  22.858   0.373  0.00  0.00    +0.004 C 
ENDBRANCH  35  38
ENDBRANCH  29  35
ENDBRANCH  25  32
ENDBRANCH  24  26
ENDBRANCH  23  24
ENDBRANCH   1  23
TORSDOF 9
