REMARK  Name = ZINC09812974
REMARK  6 active torsions:
REMARK  status: ('A' for Active; 'I' for Inactive)
REMARK    1  A    between atoms: C_4  and  S_26
REMARK    2  A    between atoms: C_5  and  C_7
REMARK    3  A    between atoms: C_7  and  O_9
REMARK    4  A    between atoms: O_9  and  C_10
REMARK    5  A    between atoms: C_10  and  C_11
REMARK    6  A    between atoms: S_26  and  C_27
REMARK                            x       y       z     vdW  Elec       q    Type
REMARK                         _______ _______ _______ _____ _____    ______ ____
ROOT
ATOM      1  O   UNL     1       2.450  -0.261   0.223  0.00  0.00    -0.453 OA
ENDROOT
BRANCH   1   2
ATOM      2  C   UNL     1       2.442   1.086   0.168  0.00  0.00    +0.341 C 
ATOM      3  O   UNL     1       3.473   1.691  -0.052  0.00  0.00    -0.245 OA
BRANCH   2   8
ATOM      4  C   UNL     1      -1.177   1.829   0.812  0.00  0.00    +0.001 A 
ATOM      5  C   UNL     1      -1.185   3.215   0.762  0.00  0.00    +0.001 A 
ATOM      6  C   UNL     1      -0.022   3.913   0.513  0.00  0.00    +0.015 A 
ATOM      7  C   UNL     1       1.172   3.228   0.317  0.00  0.00    +0.022 A 
ATOM      8  C   UNL     1       1.185   1.824   0.373  0.00  0.00    +0.072 A 
ATOM      9  C   UNL     1      -0.004   1.133   0.626  0.00  0.00    +0.016 A 
BRANCH   7  10
ATOM     10  S   UNL     1       2.661   4.116  -0.001  0.00  0.00    -0.119 S 
BRANCH  10  11
ATOM     11  C   UNL     1       2.001   5.795  -0.140  0.00  0.00    +0.074 C 
ATOM     12  C   UNL     1       1.212   5.936  -1.452  0.00  0.00    +0.039 C 
ATOM     13  C   UNL     1       0.921   7.430  -1.736  0.00  0.00    +0.167 C 
ATOM     14  S   UNL     1       2.326   8.279  -0.908  0.00  0.00    -0.030 S 
ATOM     15  O   UNL     1       1.820   9.099   0.137  0.00  0.00    -0.174 OA
ATOM     16  O   UNL     1       3.171   8.850  -1.898  0.00  0.00    -0.174 OA
ATOM     17  C   UNL     1       3.172   6.819  -0.167  0.00  0.00    +0.180 C 
ENDBRANCH  10  11
ENDBRANCH   7  10
ENDBRANCH   2   8
ENDBRANCH   1   2
BRANCH   1  18
ATOM     18  C   UNL     1       3.725  -0.922   0.011  0.00  0.00    +0.306 C 
BRANCH  18  19
ATOM     19  C   UNL     1       3.539  -2.414   0.109  0.00  0.00    +0.150 A 
ATOM     20  N   UNL     1       2.310  -2.906   0.367  0.00  0.00    -0.335 N 
ATOM     21  H   UNL     1       1.462  -2.220   0.507  0.00  0.00    +0.168 HD
ATOM     22  C   UNL     1       2.112  -4.246   0.456  0.00  0.00    +0.092 A 
ATOM     23  C   UNL     1       3.168  -5.148   0.295  0.00  0.00    +0.075 A 
ATOM     24  C   UNL     1       2.827  -6.564   0.420  0.00  0.00    -0.023 A 
ATOM     25  C   UNL     1       1.536  -6.862   0.675  0.00  0.00    -0.004 A 
ATOM     26  S   UNL     1       0.715  -5.293   0.763  0.00  0.00    -0.075 S 
ATOM     27  C   UNL     1       0.934  -8.223   0.846  0.00  0.00    +0.043 C 
ATOM     28  C   UNL     1       1.935  -9.264   0.323  0.00  0.00    +0.005 C 
ATOM     29  C   UNL     1       3.317  -8.952   0.903  0.00  0.00    +0.005 C 
ATOM     30  C   UNL     1       3.867  -7.671   0.273  0.00  0.00    +0.037 C 
ATOM     31  C   UNL     1       4.485  -4.530   0.020  0.00  0.00    +0.282 A 
ATOM     32  O   UNL     1       5.476  -5.226  -0.137  0.00  0.00    -0.265 OA
ATOM     33  N   UNL     1       4.572  -3.193  -0.053  0.00  0.00    -0.192 NA
ENDBRANCH  18  19
ENDBRANCH   1  18
TORSDOF 6
