REMARK  Name = ZINC35665254
REMARK  12 active torsions:
REMARK  status: ('A' for Active; 'I' for Inactive)
REMARK    1  A    between atoms: C_1  and  C_2
REMARK    2  A    between atoms: C_2  and  O_3
REMARK    3  A    between atoms: O_3  and  C_4
REMARK    4  A    between atoms: C_4  and  C_6
REMARK    5  A    between atoms: C_7  and  C_25
REMARK    6  A    between atoms: N_8  and  C_22
REMARK    7  A    between atoms: C_12  and  C_14
REMARK    8  A    between atoms: C_17  and  O_20
REMARK    9  A    between atoms: O_20  and  C_21
REMARK   10  A    between atoms: C_22  and  C_23
REMARK   11  A    between atoms: C_25  and  N_26
REMARK   12  A    between atoms: C_32  and  C_34
REMARK                            x       y       z     vdW  Elec       q    Type
REMARK                         _______ _______ _______ _____ _____    ______ ____
ROOT
ATOM      1  C   UNL     1       0.995  -2.950  -2.155  0.00  0.00    +0.080 C 
ATOM      2  C   UNL     1       1.443  -4.224  -2.134  0.00  0.00    +0.041 C 
ATOM      3  N   UNL     1       2.030  -4.784  -3.232  0.00  0.00    -0.254 N 
ATOM      4  C   UNL     1       2.207  -4.136  -4.391  0.00  0.00    +0.307 C 
ATOM      5  O   UNL     1       2.740  -4.718  -5.315  0.00  0.00    -0.252 OA
ATOM      6  N   UNL     1       1.812  -2.859  -4.566  0.00  0.00    -0.288 N 
ATOM      7  C   UNL     1       1.160  -2.166  -3.442  0.00  0.00    +0.144 C 
ATOM      8  H   UNL     1       1.949  -2.409  -5.414  0.00  0.00    +0.151 HD
ENDROOT
BRANCH   7   9
ATOM      9  C   UNL     1      -0.206  -1.720  -3.893  0.00  0.00    -0.022 A 
ATOM     10  C   UNL     1      -1.039  -2.607  -4.551  0.00  0.00    +0.009 A 
ATOM     11  C   UNL     1      -2.292  -2.200  -4.966  0.00  0.00    +0.046 A 
ATOM     12  C   UNL     1      -2.716  -0.902  -4.722  0.00  0.00    +0.120 A 
ATOM     13  C   UNL     1      -1.879  -0.015  -4.061  0.00  0.00    +0.046 A 
ATOM     14  C   UNL     1      -0.628  -0.428  -3.643  0.00  0.00    +0.009 A 
BRANCH  12  15
ATOM     15  O   UNL     1      -3.948  -0.499  -5.130  0.00  0.00    -0.495 OA
ATOM     16  C   UNL     1      -4.317   0.851  -4.844  0.00  0.00    +0.277 C 
ENDBRANCH  12  15
ENDBRANCH   7   9
BRANCH   1  17
ATOM     17  C   UNL     1       0.386  -2.370  -1.018  0.00  0.00    +0.339 C 
ATOM     18  O   UNL     1       0.169  -3.048  -0.031  0.00  0.00    -0.245 OA
BRANCH  17  19
ATOM     19  O   UNL     1       0.046  -1.064  -1.028  0.00  0.00    -0.462 OA
BRANCH  19  21
ATOM     20  C   UNL     1      -0.877   0.941  -0.043  0.00  0.00    +0.048 C 
ATOM     21  C   UNL     1      -0.565  -0.544   0.155  0.00  0.00    +0.229 C 
ENDBRANCH  19  21
ENDBRANCH  17  19
ENDBRANCH   1  17
BRANCH   3  22
ATOM     22  C   UNL     1       2.494  -6.170  -3.138  0.00  0.00    +0.141 C 
BRANCH  22  23
ATOM     23  C   UNL     1       1.422  -7.094  -3.657  0.00  0.00    -0.015 C 
ATOM     24  C   UNL     1       1.687  -7.915  -4.643  0.00  0.00    +0.005 C 
ENDBRANCH  22  23
ENDBRANCH   3  22
BRANCH   2  25
ATOM     25  C   UNL     1       1.294  -5.041  -0.876  0.00  0.00    +0.136 C 
BRANCH  25  26
ATOM     26  N   UNL     1       2.509  -4.913  -0.061  0.00  0.00    -0.294 NA
ATOM     27  C   UNL     1       2.615  -3.567   0.518  0.00  0.00    +0.104 C 
ATOM     28  C   UNL     1       3.976  -3.416   1.206  0.00  0.00    +0.123 C 
ATOM     29  N   UNL     1       4.140  -4.520   2.164  0.00  0.00    -0.293 N 
ATOM     30  C   UNL     1       3.914  -5.894   1.688  0.00  0.00    +0.123 C 
ATOM     31  C   UNL     1       2.556  -5.947   0.981  0.00  0.00    +0.104 C 
ATOM     32  C   UNL     1       4.488  -4.280   3.443  0.00  0.00    +0.282 C 
ATOM     33  O   UNL     1       4.556  -3.135   3.851  0.00  0.00    -0.267 OA
BRANCH  32  34
ATOM     34  C   UNL     1       4.785  -5.398   4.345  0.00  0.00    +0.189 A 
ATOM     35  C   UNL     1       5.011  -5.307   5.689  0.00  0.00    +0.054 A 
ATOM     36  C   UNL     1       5.252  -6.612   6.146  0.00  0.00    +0.042 A 
ATOM     37  C   UNL     1       5.164  -7.432   5.076  0.00  0.00    +0.196 A 
ATOM     38  O   UNL     1       4.878  -6.697   3.993  0.00  0.00    -0.458 OA
ENDBRANCH  32  34
ENDBRANCH  25  26
ENDBRANCH   2  25
TORSDOF 10
