REMARK  Name = ZINC04026336
REMARK  4 active torsions:
REMARK  status: ('A' for Active; 'I' for Inactive)
REMARK    1  A    between atoms: C_1  and  C_2
REMARK    2  A    between atoms: C_13  and  O_15
REMARK    3  A    between atoms: C_19  and  C_26
REMARK    4  A    between atoms: C_22  and  O_25
REMARK                            x       y       z     vdW  Elec       q    Type
REMARK                         _______ _______ _______ _____ _____    ______ ____
ROOT
ATOM      1  C   UNL     1      -0.013   1.086   0.008  0.00  0.00    +0.014 C 
ATOM      2  C   UNL     1      -0.729   1.579   1.267  0.00  0.00    -0.003 C 
ATOM      3  C   UNL     1      -0.021   1.116   2.543  0.00  0.00    +0.010 C 
ATOM      4  C   UNL     1      -0.209  -0.385   2.743  0.00  0.00    +0.005 C 
ATOM      5  C   UNL     1      -1.703  -0.677   2.928  0.00  0.00    +0.003 C 
ATOM      6  C   UNL     1      -2.440  -0.279   1.652  0.00  0.00    +0.000 C 
ATOM      7  C   UNL     1      -2.208   1.158   1.289  0.00  0.00    +0.001 C 
ATOM      8  C   UNL     1      -2.842   2.123   2.308  0.00  0.00    +0.007 C 
ATOM      9  C   UNL     1      -2.141   3.469   2.012  0.00  0.00    +0.032 C 
ATOM     10  C   UNL     1      -0.792   3.129   1.332  0.00  0.00    +0.121 C 
ATOM     11  C   UNL     1      -3.952  -0.522   1.884  0.00  0.00    +0.031 C 
ATOM     12  C   UNL     1      -4.165  -1.953   2.281  0.00  0.00    -0.027 C 
ATOM     13  C   UNL     1      -3.255  -2.666   2.876  0.00  0.00    -0.065 C 
ATOM     14  C   UNL     1      -1.889  -2.157   3.225  0.00  0.00    -0.008 C 
ATOM     15  C   UNL     1      -1.621  -2.432   4.707  0.00  0.00    +0.014 C 
ATOM     16  C   UNL     1      -1.808  -3.924   4.987  0.00  0.00    +0.032 C 
ATOM     17  C   UNL     1      -3.267  -4.304   4.730  0.00  0.00    +0.119 C 
ATOM     18  C   UNL     1      -3.593  -4.101   3.247  0.00  0.00    +0.062 C 
ATOM     19  C   UNL     1      -0.863  -2.941   2.403  0.00  0.00    +0.016 C 
ENDROOT
BRANCH  10  20
ATOM     20  O   UNL     1      -0.760   3.677   0.012  0.00  0.00    -0.391 OA
ATOM     21  H   UNL     1      -0.797   4.643  -0.013  0.00  0.00    +0.210 HD
ENDBRANCH  10  20
BRANCH  17  22
ATOM     22  O   UNL     1      -3.471  -5.675   5.078  0.00  0.00    -0.391 OA
ATOM     23  H   UNL     1      -4.376  -5.986   4.940  0.00  0.00    +0.210 HD
ENDBRANCH  17  22
TORSDOF 2
