REMARK  Name = ZINC65108177
REMARK  6 active torsions:
REMARK  status: ('A' for Active; 'I' for Inactive)
REMARK    1  A    between atoms: C_1  and  C_2
REMARK    2  A    between atoms: C_2  and  N_3
REMARK    3  A    between atoms: C_4  and  C_6
REMARK    4  A    between atoms: C_6  and  N_12
REMARK    5  A    between atoms: C_13  and  C_15
REMARK    6  A    between atoms: C_17  and  C_21
REMARK                            x       y       z     vdW  Elec       q    Type
REMARK                         _______ _______ _______ _____ _____    ______ ____
ROOT
ATOM      1  N   UNL     1       1.254  -1.503  -3.796  0.00  0.00    -0.296 N 
ATOM      2  C   UNL     1       1.785  -0.265  -3.809  0.00  0.00    +0.264 C 
ATOM      3  O   UNL     1       2.377   0.154  -2.832  0.00  0.00    -0.268 OA
ATOM      4  H   UNL     1       0.722  -1.811  -4.546  0.00  0.00    +0.150 HD
ENDROOT
BRANCH   2   5
ATOM      5  C   UNL     1       1.649   0.581  -5.005  0.00  0.00    +0.134 A 
ATOM      6  C   UNL     1       2.140   1.865  -5.176  0.00  0.00    +0.071 A 
ATOM      7  C   UNL     1       1.757   2.238  -6.467  0.00  0.00    +0.081 A 
ATOM      8  N   UNL     1       1.095   1.240  -6.994  0.00  0.00    -0.177 NA
ATOM      9  N   UNL     1       1.018   0.255  -6.173  0.00  0.00    -0.271 N 
ATOM     10  H   UNL     1       0.577  -0.590  -6.353  0.00  0.00    +0.189 HD
ATOM     11 BR   UNL     1       3.121   2.893  -3.928  0.00  0.00    -0.046 Br
BRANCH   7  12
ATOM     12  C   UNL     1       2.053   3.556  -7.134  0.00  0.00    +0.041 C 
ATOM     13  C   UNL     1       1.371   3.839  -8.474  0.00  0.00    +0.010 C 
ATOM     14  C   UNL     1       2.868   3.526  -8.429  0.00  0.00    +0.010 C 
ENDBRANCH   7  12
ENDBRANCH   2   5
BRANCH   1  15
ATOM     15  C   UNL     1       1.480  -2.385  -2.647  0.00  0.00    +0.111 C 
ATOM     16  C   UNL     1       2.980  -2.642  -2.490  0.00  0.00    +0.035 C 
ATOM     17  C   UNL     1       3.519  -3.308  -3.757  0.00  0.00    +0.003 C 
ATOM     18  C   UNL     1       2.794  -4.636  -3.984  0.00  0.00    +0.000 C 
ATOM     19  C   UNL     1       1.294  -4.378  -4.141  0.00  0.00    +0.003 C 
ATOM     20  C   UNL     1       0.755  -3.713  -2.874  0.00  0.00    +0.035 C 
BRANCH  15  22
ATOM     21  N   UNL     1      -0.167  -0.976  -1.456  0.00  0.00    -0.314 N 
ATOM     22  C   UNL     1       0.949  -1.729  -1.399  0.00  0.00    +0.237 C 
ATOM     23  O   UNL     1       1.526  -1.879  -0.343  0.00  0.00    -0.273 OA
ATOM     24  H   UNL     1      -0.590  -0.799  -2.311  0.00  0.00    +0.149 HD
BRANCH  21  26
ATOM     25  C   UNL     1      -1.995   0.386  -0.568  0.00  0.00    +0.024 C 
ATOM     26  C   UNL     1      -0.742  -0.423  -0.226  0.00  0.00    +0.101 C 
ENDBRANCH  21  26
ENDBRANCH  15  22
ENDBRANCH   1  15
TORSDOF 5
