REMARK  Name = ZINC40467053
REMARK  9 active torsions:
REMARK  status: ('A' for Active; 'I' for Inactive)
REMARK    1  A    between atoms: C_3  and  S_27
REMARK    2  A    between atoms: C_6  and  N_7
REMARK    3  A    between atoms: C_8  and  C_10
REMARK    4  A    between atoms: C_10  and  S_11
REMARK    5  A    between atoms: S_11  and  C_12
REMARK    6  A    between atoms: S_27  and  N_30
REMARK    7  A    between atoms: N_30  and  C_31
REMARK    8  A    between atoms: C_31  and  C_32
REMARK    9  A    between atoms: C_32  and  O_33
REMARK                            x       y       z     vdW  Elec       q    Type
REMARK                         _______ _______ _______ _____ _____    ______ ____
ROOT
ATOM      1  N   UNL     1      -1.199  -0.722   0.010  0.00  0.00    -0.285 N 
ATOM      2  C   UNL     1      -1.183  -2.065  -0.099  0.00  0.00    +0.227 C 
ATOM      3  O   UNL     1      -0.125  -2.659  -0.113  0.00  0.00    -0.275 OA
ATOM      4  H   UNL     1      -2.044  -0.253   0.098  0.00  0.00    +0.155 HD
ENDROOT
BRANCH   1  10
ATOM      5  C   UNL     1       1.072  -0.453  -0.766  0.00  0.00    +0.025 A 
ATOM      6  C   UNL     1       2.256   0.259  -0.778  0.00  0.00    +0.030 A 
ATOM      7  C   UNL     1       2.376   1.416  -0.032  0.00  0.00    +0.105 A 
ATOM      8  C   UNL     1       1.312   1.866   0.729  0.00  0.00    +0.030 A 
ATOM      9  C   UNL     1       0.126   1.160   0.744  0.00  0.00    +0.025 A 
ATOM     10  C   UNL     1       0.002  -0.004  -0.004  0.00  0.00    +0.034 A 
BRANCH   7  11
ATOM     11  S   UNL     1       3.889   2.320  -0.048  0.00  0.00    +0.058 S 
ATOM     12  O   UNL     1       3.928   3.069   1.159  0.00  0.00    -0.153 OA
ATOM     13  O   UNL     1       4.909   1.398  -0.406  0.00  0.00    -0.153 OA
BRANCH  11  14
ATOM     14  N   UNL     1       3.789   3.419  -1.284  0.00  0.00    -0.188 NA
ATOM     15  H   UNL     1       4.385   3.347  -2.046  0.00  0.00    +0.148 HD
BRANCH  14  16
ATOM     16  C   UNL     1       2.800   4.498  -1.226  0.00  0.00    +0.133 C 
BRANCH  16  17
ATOM     17  C   UNL     1       3.150   5.566  -2.264  0.00  0.00    +0.172 C 
BRANCH  17  18
ATOM     18  O   UNL     1       3.030   5.013  -3.576  0.00  0.00    -0.394 OA
ATOM     19  H   UNL     1       3.237   5.636  -4.286  0.00  0.00    +0.209 HD
ENDBRANCH  17  18
ENDBRANCH  16  17
ENDBRANCH  14  16
ENDBRANCH  11  14
ENDBRANCH   7  11
ENDBRANCH   1  10
BRANCH   2  20
ATOM     20  C   UNL     1      -2.478  -2.828  -0.204  0.00  0.00    +0.173 C 
BRANCH  20  21
ATOM     21  S   UNL     1      -2.124  -4.603  -0.337  0.00  0.00    -0.078 S 
BRANCH  21  22
ATOM     22  C   UNL     1      -3.717  -5.347  -0.450  0.00  0.00    +0.170 A 
ATOM     23  N   UNL     1      -3.820  -6.704  -0.558  0.00  0.00    -0.301 N 
ATOM     24  H   UNL     1      -3.014  -7.243  -0.572  0.00  0.00    +0.171 HD
ATOM     25  C   UNL     1      -5.019  -7.308  -0.647  0.00  0.00    +0.261 A 
ATOM     26  O   UNL     1      -5.094  -8.521  -0.743  0.00  0.00    -0.267 OA
ATOM     27  C   UNL     1      -6.205  -6.508  -0.626  0.00  0.00    +0.075 A 
ATOM     28  C   UNL     1      -7.599  -6.948  -0.711  0.00  0.00    -0.023 A 
ATOM     29  C   UNL     1      -8.547  -5.990  -0.670  0.00  0.00    -0.004 A 
ATOM     30  S   UNL     1      -7.655  -4.466  -0.518  0.00  0.00    -0.073 S 
ATOM     31  C   UNL     1      -6.006  -5.122  -0.512  0.00  0.00    +0.117 A 
ATOM     32  N   UNL     1      -4.793  -4.587  -0.423  0.00  0.00    -0.216 NA
ATOM     33  C   UNL     1     -10.032  -6.179  -0.738  0.00  0.00    +0.043 C 
ATOM     34  C   UNL     1     -10.316  -7.602  -1.238  0.00  0.00    +0.005 C 
ATOM     35  C   UNL     1      -9.450  -8.584  -0.443  0.00  0.00    +0.005 C 
ATOM     36  C   UNL     1      -7.982  -8.420  -0.840  0.00  0.00    +0.037 C 
ENDBRANCH  21  22
ENDBRANCH  20  21
ENDBRANCH   2  20
TORSDOF 9
