REMARK  Name = ZINC08791477
REMARK  8 active torsions:
REMARK  status: ('A' for Active; 'I' for Inactive)
REMARK    1  A    between atoms: C_1  and  C_2
REMARK    2  A    between atoms: C_4  and  C_38
REMARK    3  A    between atoms: C_13  and  C_15
REMARK    4  A    between atoms: C_15  and  C_16
REMARK    5  A    between atoms: N_28  and  C_31
REMARK    6  A    between atoms: C_31  and  C_32
REMARK    7  A    between atoms: C_32  and  O_33
REMARK    8  A    between atoms: O_33  and  C_34
REMARK                            x       y       z     vdW  Elec       q    Type
REMARK                         _______ _______ _______ _____ _____    ______ ____
ROOT
ATOM      1  C   UNL     1      -6.621   5.166  -4.852  0.00  0.00    +0.044 C 
ATOM      2  C   UNL     1      -5.265   4.918  -4.243  0.00  0.00    -0.050 A 
ATOM      3  C   UNL     1      -4.564   5.960  -3.666  0.00  0.00    +0.008 A 
ATOM      4  C   UNL     1      -3.323   5.739  -3.106  0.00  0.00    -0.029 A 
ATOM      5  C   UNL     1      -2.766   4.462  -3.118  0.00  0.00    +0.039 A 
ATOM      6  C   UNL     1      -3.481   3.421  -3.702  0.00  0.00    -0.027 A 
ATOM      7  C   UNL     1      -4.720   3.647  -4.260  0.00  0.00    +0.008 A 
ATOM      8  C   UNL     1      -2.621   2.198  -3.553  0.00  0.00    +0.050 C 
ATOM      9  C   UNL     1      -3.353   1.088  -2.759  0.00  0.00    +0.088 C 
ATOM     10  C   UNL     1      -2.870  -0.229  -3.428  0.00  0.00    +0.073 C 
ATOM     11  C   UNL     1      -1.897   0.209  -4.543  0.00  0.00    -0.053 C 
ATOM     12  C   UNL     1      -2.089  -0.913  -2.329  0.00  0.00    +0.224 C 
ATOM     13  O   UNL     1      -1.535  -1.986  -2.426  0.00  0.00    -0.275 OA
ATOM     14  N   UNL     1      -2.105  -0.148  -1.230  0.00  0.00    -0.240 N 
ATOM     15  C   UNL     1      -2.790   0.994  -1.359  0.00  0.00    +0.225 C 
ATOM     16  O   UNL     1      -2.934   1.826  -0.489  0.00  0.00    -0.275 OA
ATOM     17  C   UNL     1      -1.387   2.673  -2.837  0.00  0.00    +0.211 C 
ATOM     18  O   UNL     1      -0.431   1.998  -2.515  0.00  0.00    -0.277 OA
ATOM     19  N   UNL     1      -1.548   3.993  -2.623  0.00  0.00    -0.286 N 
ATOM     20  C   UNL     1      -2.567   6.882  -2.479  0.00  0.00    +0.045 C 
ATOM     21  H   UNL     1      -0.893   4.553  -2.176  0.00  0.00    +0.155 HD
ATOM     22  N   UNL     1      -2.288   1.591  -4.830  0.00  0.00    +0.394 N 
ATOM     23  H   UNL     1      -1.510   2.096  -5.271  0.00  0.00    -0.083 HD
ATOM     24  H   UNL     1      -3.103   1.607  -5.454  0.00  0.00    -0.083 HD
ENDROOT
BRANCH  11  25
ATOM     25  C   UNL     1      -2.059  -0.685  -5.774  0.00  0.00    +0.022 C 
BRANCH  25  26
ATOM     26  C   UNL     1      -1.018  -0.320  -6.801  0.00  0.00    -0.024 A 
ATOM     27  C   UNL     1      -1.177   0.524  -7.833  0.00  0.00    +0.087 A 
ATOM     28  N   UNL     1      -0.014   0.607  -8.550  0.00  0.00    -0.360 N 
ATOM     29  H   UNL     1       0.115   1.154  -9.340  0.00  0.00    +0.165 HD
ATOM     30  C   UNL     1       0.945  -0.201  -7.982  0.00  0.00    +0.047 A 
ATOM     31  C   UNL     1       0.360  -0.813  -6.858  0.00  0.00    +0.003 A 
ATOM     32  C   UNL     1       1.105  -1.702  -6.082  0.00  0.00    +0.010 A 
ATOM     33  C   UNL     1       2.405  -1.965  -6.412  0.00  0.00    +0.001 A 
ATOM     34  C   UNL     1       2.989  -1.360  -7.516  0.00  0.00    +0.002 A 
ATOM     35  C   UNL     1       2.269  -0.484  -8.300  0.00  0.00    +0.026 A 
ENDBRANCH  25  26
ENDBRANCH  11  25
BRANCH  14  36
ATOM     36  C   UNL     1      -1.433  -0.534   0.013  0.00  0.00    +0.144 C 
BRANCH  36  37
ATOM     37  C   UNL     1       0.002  -0.004   0.002  0.00  0.00    +0.179 C 
BRANCH  37  38
ATOM     38  O   UNL     1      -0.017   1.425   0.010  0.00  0.00    -0.381 OA
ATOM     39  C   UNL     1       1.280   2.024   0.001  0.00  0.00    +0.194 C 
ENDBRANCH  37  38
ENDBRANCH  36  37
ENDBRANCH  14  36
TORSDOF 5
