REMARK  Name = ZINC33028283
REMARK  7 active torsions:
REMARK  status: ('A' for Active; 'I' for Inactive)
REMARK    1  A    between atoms: C_1  and  C_2
REMARK    2  A    between atoms: C_2  and  C_4
REMARK    3  A    between atoms: C_2  and  N_14
REMARK    4  A    between atoms: C_15  and  C_17
REMARK    5  A    between atoms: C_17  and  C_19
REMARK    6  A    between atoms: C_17  and  N_26
REMARK    7  A    between atoms: C_19  and  C_20
REMARK                            x       y       z     vdW  Elec       q    Type
REMARK                         _______ _______ _______ _____ _____    ______ ____
ROOT
ATOM      1  N   UNL     1      -2.591   2.986  -1.633  0.00  0.00    -0.311 N 
ATOM      2  C   UNL     1      -1.387   2.553  -1.208  0.00  0.00    +0.234 C 
ATOM      3  O   UNL     1      -0.382   2.865  -1.812  0.00  0.00    -0.274 OA
ATOM      4  H   UNL     1      -3.502   2.703  -1.086  0.00  0.00    +0.149 HD
ENDROOT
BRANCH   1   6
ATOM      5  C   UNL     1      -2.463   5.295  -2.429  0.00  0.00    +0.028 C 
ATOM      6  C   UNL     1      -2.685   3.833  -2.824  0.00  0.00    +0.076 C 
BRANCH   6   7
ATOM      7  C   UNL     1      -4.073   3.680  -3.450  0.00  0.00    -0.010 C 
ATOM      8  C   UNL     1      -5.139   4.102  -2.438  0.00  0.00    +0.012 C 
ATOM      9  C   UNL     1      -6.526   3.949  -3.064  0.00  0.00    -0.010 C 
ATOM     10  C   UNL     1      -6.625   4.834  -4.308  0.00  0.00    +0.007 C 
ATOM     11  C   UNL     1      -5.559   4.411  -5.321  0.00  0.00    -0.010 C 
ATOM     12  C   UNL     1      -4.172   4.565  -4.694  0.00  0.00    +0.012 C 
ATOM     13  C   UNL     1      -5.782   2.950  -5.716  0.00  0.00    +0.007 C 
ATOM     14  C   UNL     1      -5.683   2.065  -4.472  0.00  0.00    -0.010 C 
ATOM     15  C   UNL     1      -6.749   2.487  -3.459  0.00  0.00    +0.007 C 
ATOM     16  C   UNL     1      -4.295   2.218  -3.845  0.00  0.00    +0.012 C 
ENDBRANCH   6   7
ENDBRANCH   1   6
BRANCH   2  17
ATOM     17  C   UNL     1      -1.290   1.681   0.017  0.00  0.00    +0.165 C 
BRANCH  17  18
ATOM     18  N   UNL     1      -0.011   0.966   0.007  0.00  0.00    -0.288 N 
ATOM     19  C   UNL     1       1.147   1.655   0.000  0.00  0.00    +0.298 C 
ATOM     20  O   UNL     1       1.130   2.871   0.007  0.00  0.00    -0.253 OA
ATOM     21  N   UNL     1       2.323   0.998  -0.015  0.00  0.00    -0.313 N 
ATOM     22  H   UNL     1       0.004  -0.134   0.006  0.00  0.00    +0.151 HD
ATOM     23  H   UNL     1       3.268   1.560  -0.021  0.00  0.00    +0.146 HD
ATOM     24  H   UNL     1       2.338  -0.102  -0.021  0.00  0.00    +0.146 HD
ENDBRANCH  17  18
BRANCH  17  25
ATOM     25  C   UNL     1      -1.377   2.553   1.272  0.00  0.00    +0.067 C 
BRANCH  25  26
ATOM     26  C   UNL     1      -1.403   1.672   2.494  0.00  0.00    -0.045 A 
ATOM     27  C   UNL     1      -2.610   1.232   3.004  0.00  0.00    +0.004 A 
ATOM     28  C   UNL     1      -2.634   0.421   4.122  0.00  0.00    +0.000 A 
ATOM     29  C   UNL     1      -1.451   0.057   4.738  0.00  0.00    +0.000 A 
ATOM     30  C   UNL     1      -0.244   0.501   4.232  0.00  0.00    +0.000 A 
ATOM     31  C   UNL     1      -0.220   1.309   3.110  0.00  0.00    +0.004 A 
ENDBRANCH  25  26
ENDBRANCH  17  25
ENDBRANCH   2  17
TORSDOF 6
