REMARK  Name = ZINC59016957
REMARK  9 active torsions:
REMARK  status: ('A' for Active; 'I' for Inactive)
REMARK    1  A    between atoms: C_1  and  C_2
REMARK    2  A    between atoms: C_5  and  N_9
REMARK    3  A    between atoms: C_7  and  C_8
REMARK    4  A    between atoms: C_10  and  C_12
REMARK    5  A    between atoms: C_12  and  S_13
REMARK    6  A    between atoms: S_13  and  C_14
REMARK    7  A    between atoms: N_19  and  N_20
REMARK    8  A    between atoms: C_21  and  C_22
REMARK    9  A    between atoms: C_27  and  O_28
REMARK                            x       y       z     vdW  Elec       q    Type
REMARK                         _______ _______ _______ _____ _____    ______ ____
ROOT
ATOM      1  C   UNL     1      -0.356  -8.692  -2.728  0.00  0.00    +0.211 A 
ATOM      2  N   UNL     1      -0.455  -9.564  -3.736  0.00  0.00    -0.186 NA
ATOM      3  C   UNL     1      -0.508 -10.790  -3.258  0.00  0.00    +0.232 A 
ATOM      4  N   UNL     1      -0.444 -10.715  -1.912  0.00  0.00    -0.245 N 
ATOM      5  N   UNL     1      -0.341  -9.351  -1.594  0.00  0.00    -0.144 NA
ATOM      6  N   UNL     1      -0.613 -11.950  -4.004  0.00  0.00    -0.205 N 
ATOM      7  H   UNL     1      -0.647 -12.811  -3.559  0.00  0.00    +0.177 HD
ATOM      8  H   UNL     1      -0.462 -11.457  -1.287  0.00  0.00    +0.192 HD
ENDROOT
BRANCH   6   9
ATOM      9  N   UNL     1      -0.671 -11.881  -5.402  0.00  0.00    -0.187 NA
ATOM     10  C   UNL     1      -0.770 -12.970  -6.102  0.00  0.00    +0.142 C 
BRANCH  10  11
ATOM     11  C   UNL     1      -0.831 -12.897  -7.572  0.00  0.00    +0.037 A 
ATOM     12  C   UNL     1      -0.943 -14.066  -8.329  0.00  0.00    +0.028 A 
ATOM     13  C   UNL     1      -1.000 -13.991  -9.706  0.00  0.00    +0.019 A 
ATOM     14  C   UNL     1      -0.947 -12.761 -10.341  0.00  0.00    +0.019 A 
ATOM     15  C   UNL     1      -0.835 -11.598  -9.602  0.00  0.00    +0.047 A 
ATOM     16  C   UNL     1      -0.783 -11.655  -8.219  0.00  0.00    +0.126 A 
ATOM     17 BR   UNL     1      -1.150 -15.574 -10.730  0.00  0.00    -0.050 Br
BRANCH  16  18
ATOM     18  O   UNL     1      -0.679 -10.512  -7.493  0.00  0.00    -0.506 OA
ATOM     19  H   UNL     1       0.232 -10.235  -7.322  0.00  0.00    +0.292 HD
ENDBRANCH  16  18
ENDBRANCH  10  11
ENDBRANCH   6   9
BRANCH   1  20
ATOM     20  S   UNL     1      -0.255  -6.941  -2.895  0.00  0.00    -0.075 S 
BRANCH  20  21
ATOM     21  C   UNL     1      -0.134  -6.343  -1.187  0.00  0.00    +0.173 C 
BRANCH  21  23
ATOM     22  N   UNL     1       0.059  -4.170  -0.021  0.00  0.00    -0.285 N 
ATOM     23  C   UNL     1      -0.040  -4.839  -1.187  0.00  0.00    +0.227 C 
ATOM     24  O   UNL     1      -0.054  -4.230  -2.236  0.00  0.00    -0.275 OA
ATOM     25  H   UNL     1       0.147  -4.658   0.812  0.00  0.00    +0.155 HD
BRANCH  22  30
ATOM     26  C   UNL     1      -0.041   1.502   0.014  0.00  0.00    +0.044 C 
ATOM     27  C   UNL     1      -0.015  -0.004   0.004  0.00  0.00    -0.047 A 
ATOM     28  C   UNL     1      -0.752  -0.702  -0.935  0.00  0.00    +0.005 A 
ATOM     29  C   UNL     1      -0.730  -2.082  -0.946  0.00  0.00    +0.023 A 
ATOM     30  C   UNL     1       0.034  -2.771  -0.013  0.00  0.00    +0.034 A 
ATOM     31  C   UNL     1       0.773  -2.068   0.929  0.00  0.00    +0.027 A 
ATOM     32  C   UNL     1       0.751  -0.686   0.932  0.00  0.00    -0.046 A 
ATOM     33  C   UNL     1       1.557   0.078   1.950  0.00  0.00    +0.044 C 
ENDBRANCH  22  30
ENDBRANCH  21  23
ENDBRANCH  20  21
ENDBRANCH   1  20
TORSDOF 7
