REMARK  Name = ZINC48701582
REMARK  5 active torsions:
REMARK  status: ('A' for Active; 'I' for Inactive)
REMARK    1  A    between atoms: C_4  and  N_8
REMARK    2  A    between atoms: C_9  and  C_11
REMARK    3  A    between atoms: N_13  and  C_14
REMARK    4  A    between atoms: C_14  and  C_15
REMARK    5  A    between atoms: C_15  and  C_16
REMARK                            x       y       z     vdW  Elec       q    Type
REMARK                         _______ _______ _______ _____ _____    ______ ____
ROOT
ATOM      1  C   UNL     1       5.003  -2.633   0.445  0.00  0.00    +0.299 C 
ATOM      2  O   UNL     1       6.022  -2.036   0.166  0.00  0.00    -0.265 OA
ATOM      3  N   UNL     1       5.062  -3.921   0.837  0.00  0.00    -0.308 N 
ATOM      4  H   UNL     1       4.247  -4.397   1.061  0.00  0.00    +0.149 HD
ENDROOT
BRANCH   1   6
ATOM      5  N   UNL     1       3.625  -0.651  -0.036  0.00  0.00    -0.273 N 
ATOM      6  C   UNL     1       3.684  -1.939   0.355  0.00  0.00    +0.303 C 
ATOM      7  O   UNL     1       2.664  -2.535   0.635  0.00  0.00    -0.265 OA
ATOM      8  H   UNL     1       4.430  -0.196  -0.331  0.00  0.00    +0.155 HD
BRANCH   5  12
ATOM      9  C   UNL     1      -0.015   1.381   0.017  0.00  0.00    +0.006 A 
ATOM     10  C   UNL     1       0.781   1.363   1.148  0.00  0.00    +0.040 A 
ATOM     11  C   UNL     1       1.989   0.690   1.134  0.00  0.00    +0.147 A 
ATOM     12  C   UNL     1       2.403   0.031  -0.018  0.00  0.00    +0.105 A 
ATOM     13  C   UNL     1       1.600   0.052  -1.153  0.00  0.00    +0.147 A 
ATOM     14  C   UNL     1       0.393   0.728  -1.131  0.00  0.00    +0.040 A 
ATOM     15  F   UNL     1       1.997  -0.586  -2.276  0.00  0.00    -0.203 F 
ATOM     16  F   UNL     1       2.767   0.673   2.239  0.00  0.00    -0.203 F 
ENDBRANCH   5  12
ENDBRANCH   1   6
BRANCH   3  17
ATOM     17  C   UNL     1       6.356  -4.601   0.925  0.00  0.00    +0.105 C 
BRANCH  17  18
ATOM     18  C   UNL     1       6.144  -6.043   1.390  0.00  0.00    +0.025 C 
BRANCH  18  19
ATOM     19  C   UNL     1       7.495  -6.754   1.482  0.00  0.00    -0.027 C 
ATOM     20  C   UNL     1       8.166  -6.755   0.107  0.00  0.00    +0.010 C 
ATOM     21  C   UNL     1       9.518  -7.466   0.199  0.00  0.00    -0.010 C 
ATOM     22  C   UNL     1       9.305  -8.908   0.664  0.00  0.00    +0.007 C 
ATOM     23  C   UNL     1       8.634  -8.907   2.039  0.00  0.00    -0.010 C 
ATOM     24  C   UNL     1       7.283  -8.196   1.947  0.00  0.00    +0.010 C 
ATOM     25  C   UNL     1       9.528  -8.175   3.042  0.00  0.00    +0.007 C 
ATOM     26  C   UNL     1       9.741  -6.733   2.577  0.00  0.00    -0.010 C 
ATOM     27  C   UNL     1      10.412  -6.734   1.202  0.00  0.00    +0.007 C 
ATOM     28  C   UNL     1       8.389  -6.022   2.485  0.00  0.00    +0.010 C 
ENDBRANCH  18  19
ENDBRANCH  17  18
ENDBRANCH   3  17
TORSDOF 5
