REMARK  Name = ZINC38575973
REMARK  2 active torsions:
REMARK  status: ('A' for Active; 'I' for Inactive)
REMARK    1  A    between atoms: C_1  and  C_2
REMARK    2  A    between atoms: C_4  and  C_24
REMARK                            x       y       z     vdW  Elec       q    Type
REMARK                         _______ _______ _______ _____ _____    ______ ____
ROOT
ATOM      1  C   UNL     1      -0.022   1.504  -0.008  0.00  0.00    +0.062 C 
ATOM      2  C   UNL     1      -0.001  -0.002  -0.015  0.00  0.00    +0.022 C 
ATOM      3  C   UNL     1      -1.061  -0.752   0.087  0.00  0.00    -0.004 C 
ATOM      4  C   UNL     1      -2.496  -0.389   0.386  0.00  0.00    +0.059 C 
ATOM      5  C   UNL     1      -2.857  -1.101   1.698  0.00  0.00    +0.108 C 
ATOM      6  C   UNL     1      -2.245  -2.462   1.776  0.00  0.00    +0.216 C 
ATOM      7  O   UNL     1      -2.755  -3.235   2.560  0.00  0.00    -0.276 OA
ATOM      8  N   UNL     1      -1.204  -2.925   1.084  0.00  0.00    -0.292 N 
ATOM      9  C   UNL     1      -0.622  -2.201  -0.039  0.00  0.00    +0.210 C 
ATOM     10  N   UNL     1       0.840  -2.131   0.013  0.00  0.00    -0.213 N 
ATOM     11  N   UNL     1       1.150  -0.767  -0.138  0.00  0.00    -0.265 N 
ATOM     12  C   UNL     1       1.704  -3.155   0.168  0.00  0.00    +0.150 C 
ATOM     13  N   UNL     1       1.277  -4.400   0.290  0.00  0.00    -0.221 NA
ATOM     14  C   UNL     1       2.078  -5.438   0.508  0.00  0.00    +0.225 C 
ATOM     15  N   UNL     1       3.326  -5.297   0.939  0.00  0.00    -0.218 NA
ATOM     16  C   UNL     1       3.757  -4.047   1.076  0.00  0.00    +0.164 C 
ATOM     17  N   UNL     1       4.593  -3.456   1.876  0.00  0.00    -0.219 NA
ATOM     18  C   UNL     1       4.425  -2.127   1.860  0.00  0.00    +0.218 C 
ATOM     19  N   UNL     1       3.595  -1.726   0.938  0.00  0.00    -0.253 NA
ATOM     20  C   UNL     1       3.191  -2.925   0.202  0.00  0.00    +0.239 C 
ATOM     21  H   UNL     1      -0.819  -3.778   1.338  0.00  0.00    +0.151 HD
ATOM     22  H   UNL     1       2.038  -0.412  -0.302  0.00  0.00    +0.170 HD
ENDROOT
BRANCH   4  23
ATOM     23  C   UNL     1      -2.629   1.103   0.551  0.00  0.00    -0.039 A 
ATOM     24  C   UNL     1      -3.005   1.887  -0.525  0.00  0.00    +0.004 A 
ATOM     25  C   UNL     1      -3.127   3.256  -0.374  0.00  0.00    +0.001 A 
ATOM     26  C   UNL     1      -2.873   3.841   0.852  0.00  0.00    +0.015 A 
ATOM     27  C   UNL     1      -2.497   3.058   1.928  0.00  0.00    +0.018 A 
ATOM     28  C   UNL     1      -2.381   1.687   1.778  0.00  0.00    +0.019 A 
ATOM     29 BR   UNL     1      -2.150   3.859   3.606  0.00  0.00    -0.050 Br
ENDBRANCH   4  23
TORSDOF 1
