REMARK  Name = ZINC13638551
REMARK  4 active torsions:
REMARK  status: ('A' for Active; 'I' for Inactive)
REMARK    1  A    between atoms: C_11  and  S_14
REMARK    2  A    between atoms: S_14  and  C_15
REMARK    3  A    between atoms: C_15  and  C_16
REMARK    4  A    between atoms: N_22  and  C_23
REMARK                            x       y       z     vdW  Elec       q    Type
REMARK                         _______ _______ _______ _____ _____    ______ ____
ROOT
ATOM      1  C   UNL     1      -7.538   2.703   0.091  0.00  0.00    +0.146 A 
ATOM      2  N   UNL     1      -8.025   2.252  -1.052  0.00  0.00    -0.199 NA
ATOM      3  C   UNL     1      -8.983   1.328  -1.051  0.00  0.00    +0.217 A 
ATOM      4  N   UNL     1      -9.456   0.865   0.101  0.00  0.00    -0.181 NA
ATOM      5  C   UNL     1      -8.967   1.324   1.248  0.00  0.00    +0.224 A 
ATOM      6  N   UNL     1      -8.006   2.245   1.239  0.00  0.00    -0.198 NA
ATOM      7  N   UNL     1      -9.456   0.846   2.448  0.00  0.00    -0.282 N 
ATOM      8  N   UNL     1      -9.487   0.854  -2.245  0.00  0.00    -0.327 N 
ATOM      9  H   UNL     1      -9.041   1.117   3.283  0.00  0.00    +0.155 HD
ATOM     10  H   UNL     1     -10.187   0.183  -2.244  0.00  0.00    +0.145 HD
ATOM     11  H   UNL     1      -9.141   1.192  -3.086  0.00  0.00    +0.145 HD
ENDROOT
BRANCH   7  12
ATOM     12  C   UNL     1     -10.547  -0.028   2.461  0.00  0.00    +0.052 A 
ATOM     13  C   UNL     1     -11.451  -0.028   1.407  0.00  0.00    +0.025 A 
ATOM     14  C   UNL     1     -12.525  -0.896   1.419  0.00  0.00    +0.002 A 
ATOM     15  C   UNL     1     -12.707  -1.758   2.485  0.00  0.00    +0.002 A 
ATOM     16  C   UNL     1     -11.813  -1.758   3.539  0.00  0.00    +0.022 A 
ATOM     17  C   UNL     1     -10.733  -0.896   3.530  0.00  0.00    +0.062 A 
ATOM     18 CL   UNL     1      -9.610  -0.896   4.854  0.00  0.00    -0.082 Cl
ENDBRANCH   7  12
BRANCH   1  19
ATOM     19  C   UNL     1      -6.450   3.746   0.085  0.00  0.00    +0.153 C 
BRANCH  19  20
ATOM     20  S   UNL     1      -4.830   2.930   0.073  0.00  0.00    -0.078 S 
BRANCH  20  31
ATOM     21  C   UNL     1       1.173   1.916   0.033  0.00  0.00    +0.002 A 
ATOM     22  C   UNL     1      -0.008   1.194   0.039  0.00  0.00    +0.002 A 
ATOM     23  C   UNL     1      -1.224   1.849   0.042  0.00  0.00    +0.028 A 
ATOM     24  C   UNL     1      -1.262   3.236   0.050  0.00  0.00    +0.075 A 
ATOM     25  C   UNL     1      -0.072   3.964   0.044  0.00  0.00    +0.066 A 
ATOM     26  C   UNL     1       1.146   3.296   0.035  0.00  0.00    +0.028 A 
ATOM     27  N   UNL     1      -0.408   5.314   0.048  0.00  0.00    -0.322 N 
ATOM     28  H   UNL     1       0.217   6.056   0.045  0.00  0.00    +0.169 HD
ATOM     29  C   UNL     1      -1.788   5.413   0.057  0.00  0.00    +0.235 A 
ATOM     30  N   UNL     1      -2.317   4.153   0.059  0.00  0.00    -0.255 N 
ATOM     31  C   UNL     1      -3.681   4.266   0.068  0.00  0.00    +0.198 A 
ATOM     32  N   UNL     1      -3.982   5.542   0.072  0.00  0.00    -0.120 NA
ATOM     33  N   UNL     1      -2.785   6.269   0.065  0.00  0.00    -0.110 NA
ENDBRANCH  20  31
ENDBRANCH  19  20
ENDBRANCH   1  19
TORSDOF 4
