REMARK  Name = ZINC49320572
REMARK  4 active torsions:
REMARK  status: ('A' for Active; 'I' for Inactive)
REMARK    1  A    between atoms: C_3  and  C_9
REMARK    2  A    between atoms: C_9  and  N_10
REMARK    3  A    between atoms: N_10  and  C_11
REMARK    4  A    between atoms: C_14  and  N_16
REMARK                            x       y       z     vdW  Elec       q    Type
REMARK                         _______ _______ _______ _____ _____    ______ ____
ROOT
ATOM      1  N   UNL     1       4.287   2.122   1.305  0.00  0.00    -0.334 N 
ATOM      2  H   UNL     1       3.851   1.631   2.019  0.00  0.00    +0.147 HD
ENDROOT
BRANCH   1   3
ATOM      3  C   UNL     1       5.503   2.767   1.542  0.00  0.00    +0.068 A 
ATOM      4  C   UNL     1       6.234   2.824   2.690  0.00  0.00    +0.033 A 
ATOM      5  C   UNL     1       7.423   3.533   2.688  0.00  0.00    +0.042 A 
ATOM      6  C   UNL     1       7.821   4.146   1.549  0.00  0.00    +0.165 A 
ATOM      7  S   UNL     1       6.505   3.726   0.419  0.00  0.00    -0.050 S 
BRANCH   6   8
ATOM      8  N   UNL     1       9.039   4.953   1.302  0.00  0.00    +0.063 N 
ATOM      9  O   UNL     1       9.835   5.134   2.194  0.00  0.00    -0.126 OA
ATOM     10  O   UNL     1       9.236   5.432   0.209  0.00  0.00    -0.126 OA
ENDBRANCH   6   8
ENDBRANCH   1   3
BRANCH   1  11
ATOM     11  C   UNL     1       3.671   2.185  -0.023  0.00  0.00    +0.138 C 
BRANCH  11  14
ATOM     12  C   UNL     1      -0.017   1.379   0.010  0.00  0.00    +0.016 A 
ATOM     13  C   UNL     1       1.171   2.087   0.002  0.00  0.00    +0.008 A 
ATOM     14  C   UNL     1       2.377   1.413  -0.013  0.00  0.00    -0.012 A 
ATOM     15  C   UNL     1       2.397   0.029  -0.021  0.00  0.00    +0.047 A 
ATOM     16  C   UNL     1       1.209  -0.679  -0.013  0.00  0.00    +0.035 A 
ATOM     17  C   UNL     1       0.002  -0.004   0.002  0.00  0.00    +0.019 A 
ATOM     18 BR   UNL     1      -1.623  -0.972   0.013  0.00  0.00    -0.050 Br
ATOM     19 CL   UNL     1       3.913  -0.817  -0.041  0.00  0.00    -0.083 Cl
ENDBRANCH  11  14
ENDBRANCH   1  11
TORSDOF 4
