REMARK  Name = ZINC02051450
REMARK  10 active torsions:
REMARK  status: ('A' for Active; 'I' for Inactive)
REMARK    1  A    between atoms: C_1  and  C_2
REMARK    2  A    between atoms: C_2  and  C_3
REMARK    3  A    between atoms: C_3  and  C_4
REMARK    4  A    between atoms: C_4  and  O_5
REMARK    5  A    between atoms: O_5  and  C_6
REMARK    6  A    between atoms: C_9  and  C_14
REMARK    7  A    between atoms: C_11  and  O_12
REMARK    8  A    between atoms: O_12  and  C_13
REMARK    9  A    between atoms: C_28  and  N_32
REMARK   10  A    between atoms: C_29  and  C_30
REMARK                            x       y       z     vdW  Elec       q    Type
REMARK                         _______ _______ _______ _____ _____    ______ ____
ROOT
ATOM      1  C   UNL     1       1.218   3.632   0.013  0.00  0.00    +0.105 C 
ATOM      2  C   UNL     1       1.175   2.128   0.002  0.00  0.00    +0.092 A 
ATOM      3  C   UNL     1      -0.018   1.467   0.010  0.00  0.00    +0.152 A 
ATOM      4  C   UNL     1       0.002  -0.004   0.002  0.00  0.00    +0.060 A 
ATOM      5  C   UNL     1      -1.184  -0.741   0.011  0.00  0.00    +0.015 A 
ATOM      6  C   UNL     1      -1.129  -2.118   0.004  0.00  0.00    +0.001 A 
ATOM      7  C   UNL     1       0.095  -2.770  -0.013  0.00  0.00    +0.004 A 
ATOM      8  C   UNL     1       1.273  -2.054  -0.022  0.00  0.00    +0.047 A 
ATOM      9  C   UNL     1       1.241  -0.665  -0.015  0.00  0.00    +0.143 A 
ATOM     10  O   UNL     1       2.384   0.053  -0.023  0.00  0.00    -0.422 OA
ATOM     11  C   UNL     1       2.374   1.395  -0.015  0.00  0.00    +0.345 A 
ATOM     12  O   UNL     1       3.435   1.995  -0.024  0.00  0.00    -0.245 OA
ATOM     13  O   UNL     1      -1.190   2.129   0.019  0.00  0.00    -0.440 OA
ATOM     14  C   UNL     1      -1.237   3.422  -0.344  0.00  0.00    +0.199 C 
ATOM     15  C   UNL     1      -0.123   4.192  -0.371  0.00  0.00    +0.098 C 
ENDROOT
BRANCH   1  19
ATOM     16  C   UNL     1       2.234   4.989   3.940  0.00  0.00    +0.162 A 
ATOM     17  C   UNL     1       1.094   4.227   3.740  0.00  0.00    +0.050 A 
ATOM     18  C   UNL     1       0.765   3.794   2.469  0.00  0.00    +0.008 A 
ATOM     19  C   UNL     1       1.577   4.111   1.396  0.00  0.00    -0.031 A 
ATOM     20  C   UNL     1       2.716   4.871   1.588  0.00  0.00    +0.054 A 
ATOM     21  C   UNL     1       3.048   5.313   2.859  0.00  0.00    +0.162 A 
BRANCH  21  22
ATOM     22  O   UNL     1       4.168   6.061   3.049  0.00  0.00    -0.491 OA
ATOM     23  C   UNL     1       4.956   6.355   1.894  0.00  0.00    +0.277 C 
ENDBRANCH  21  22
BRANCH  16  24
ATOM     24  O   UNL     1       2.555   5.420   5.189  0.00  0.00    -0.488 OA
BRANCH  24  25
ATOM     25  C   UNL     1       1.673   5.050   6.250  0.00  0.00    +0.229 C 
BRANCH  25  26
ATOM     26  C   UNL     1       2.195   5.621   7.570  0.00  0.00    +0.041 C 
BRANCH  26  28
ATOM     27  C   UNL     1       1.772   5.796  10.026  0.00  0.00    +0.004 C 
ATOM     28  C   UNL     1       1.250   5.225   8.706  0.00  0.00    -0.000 C 
ENDBRANCH  26  28
ENDBRANCH  25  26
ENDBRANCH  24  25
ENDBRANCH  16  24
ENDBRANCH   1  19
BRANCH  14  29
ATOM     29  N   UNL     1      -2.442   3.973  -0.702  0.00  0.00    -0.328 N 
ATOM     30  H   UNL     1      -2.489   4.904  -0.970  0.00  0.00    +0.145 HD
ATOM     31  H   UNL     1      -3.247   3.432  -0.687  0.00  0.00    +0.145 HD
ENDBRANCH  14  29
BRANCH  15  32
ATOM     32  C   UNL     1      -0.225   5.563  -0.773  0.00  0.00    +0.101 C 
ATOM     33  N   UNL     1      -0.306   6.651  -1.091  0.00  0.00    -0.191 NA
ENDBRANCH  15  32
TORSDOF 8
