REMARK  Name = ZINC01201796
REMARK  6 active torsions:
REMARK  status: ('A' for Active; 'I' for Inactive)
REMARK    1  A    between atoms: C_1  and  C_2
REMARK    2  A    between atoms: C_3  and  C_28
REMARK    3  A    between atoms: C_4  and  C_21
REMARK    4  A    between atoms: C_10  and  C_15
REMARK    5  A    between atoms: C_28  and  O_30
REMARK    6  A    between atoms: O_30  and  C_31
REMARK                            x       y       z     vdW  Elec       q    Type
REMARK                         _______ _______ _______ _____ _____    ______ ____
ROOT
ATOM      1  C   UNL     1      -5.253   2.904   2.326  0.00  0.00    +0.061 C 
ATOM      2  C   UNL     1      -4.418   2.505   1.137  0.00  0.00    +0.016 C 
ATOM      3  C   UNL     1      -3.372   1.677   1.304  0.00  0.00    +0.065 C 
ATOM      4  C   UNL     1      -2.514   1.263   0.145  0.00  0.00    +0.095 C 
ATOM      5  C   UNL     1      -3.215   1.520  -1.166  0.00  0.00    +0.024 C 
ATOM      6  C   UNL     1      -4.269   2.361  -1.231  0.00  0.00    +0.016 C 
ATOM      7  N   UNL     1      -4.729   2.986  -0.103  0.00  0.00    -0.321 N 
ATOM      8  C   UNL     1      -4.963   2.637  -2.542  0.00  0.00    +0.059 C 
ATOM      9  C   UNL     1      -4.874   1.402  -3.441  0.00  0.00    +0.032 C 
ATOM     10  C   UNL     1      -3.395   1.060  -3.653  0.00  0.00    +0.088 C 
ATOM     11  C   UNL     1      -2.741   0.859  -2.313  0.00  0.00    +0.162 C 
ATOM     12  O   UNL     1      -1.786   0.114  -2.221  0.00  0.00    -0.292 OA
ATOM     13  H   UNL     1      -5.355   3.885  -0.203  0.00  0.00    +0.152 HD
ENDROOT
BRANCH   4  14
ATOM     14  C   UNL     1      -1.226   2.044   0.179  0.00  0.00    -0.000 A 
ATOM     15  C   UNL     1      -1.252   3.425   0.110  0.00  0.00    +0.007 A 
ATOM     16  C   UNL     1      -0.071   4.141   0.136  0.00  0.00    +0.000 A 
ATOM     17  C   UNL     1       1.139   3.479   0.236  0.00  0.00    +0.003 A 
ATOM     18  C   UNL     1       1.167   2.100   0.310  0.00  0.00    +0.038 A 
ATOM     19  C   UNL     1      -0.016   1.380   0.284  0.00  0.00    +0.127 A 
ATOM     20  F   UNL     1       0.011   0.032   0.357  0.00  0.00    -0.205 F 
ENDBRANCH   4  14
BRANCH   9  21
ATOM     21  C   UNL     1      -5.521   1.695  -4.769  0.00  0.00    -0.044 A 
ATOM     22  C   UNL     1      -5.054   2.735  -5.552  0.00  0.00    +0.004 A 
ATOM     23  C   UNL     1      -5.646   3.001  -6.772  0.00  0.00    +0.000 A 
ATOM     24  C   UNL     1      -6.710   2.233  -7.206  0.00  0.00    +0.000 A 
ATOM     25  C   UNL     1      -7.181   1.197  -6.422  0.00  0.00    +0.000 A 
ATOM     26  C   UNL     1      -6.587   0.928  -5.203  0.00  0.00    +0.004 A 
ENDBRANCH   9  21
BRANCH   3  27
ATOM     27  C   UNL     1      -3.075   1.186   2.597  0.00  0.00    +0.337 C 
ATOM     28  O   UNL     1      -3.695   1.596   3.561  0.00  0.00    -0.245 OA
BRANCH  27  29
ATOM     29  O   UNL     1      -2.103   0.264   2.762  0.00  0.00    -0.465 OA
ATOM     30  C   UNL     1      -1.857  -0.187   4.096  0.00  0.00    +0.280 C 
ENDBRANCH  27  29
ENDBRANCH   3  27
TORSDOF 4
