REMARK  Name = ZINC20782308
REMARK  5 active torsions:
REMARK  status: ('A' for Active; 'I' for Inactive)
REMARK    1  A    between atoms: N_10  and  C_13
REMARK    2  A    between atoms: N_16  and  C_21
REMARK    3  A    between atoms: C_18  and  O_20
REMARK    4  A    between atoms: C_21  and  C_22
REMARK    5  A    between atoms: C_26  and  C_28
REMARK                            x       y       z     vdW  Elec       q    Type
REMARK                         _______ _______ _______ _____ _____    ______ ____
ROOT
ATOM      1  C   UNL     1       0.002  -0.004   0.002  0.00  0.00    +0.067 C 
ATOM      2  C   UNL     1       1.498  -0.385  -0.014  0.00  0.00    -0.057 C 
ATOM      3  N   UNL     1       2.191   0.794   0.567  0.00  0.00    +0.385 N 
ATOM      4  C   UNL     1       1.466   1.960  -0.001  0.00  0.00    -0.045 C 
ATOM      5  C   UNL     1      -0.019   1.538   0.011  0.00  0.00    +0.113 C 
ATOM      6  H   UNL     1       2.191   0.788   1.667  0.00  0.00    -0.081 HD
ENDROOT
BRANCH   1  16
ATOM      7  C   UNL     1      -5.230  -2.564  -5.168  0.00  0.00    +0.005 A 
ATOM      8  C   UNL     1      -4.513  -3.416  -5.998  0.00  0.00    +0.018 A 
ATOM      9  C   UNL     1      -3.214  -3.746  -5.669  0.00  0.00    +0.084 A 
ATOM     10  N   UNL     1      -2.647  -3.259  -4.581  0.00  0.00    -0.350 N 
ATOM     11  C   UNL     1      -3.299  -2.449  -3.762  0.00  0.00    +0.099 A 
ATOM     12  C   UNL     1      -4.611  -2.074  -4.033  0.00  0.00    +0.042 A 
ATOM     13  N   UNL     1      -2.665  -1.963  -2.624  0.00  0.00    -0.314 N 
ATOM     14  C   UNL     1      -1.292  -2.478  -2.526  0.00  0.00    +0.122 C 
ATOM     15  C   UNL     1      -0.657  -1.986  -1.224  0.00  0.00    +0.103 C 
ATOM     16  N   UNL     1      -0.668  -0.517  -1.200  0.00  0.00    -0.296 NA
ATOM     17  C   UNL     1      -2.041  -0.002  -1.298  0.00  0.00    +0.103 C 
ATOM     18  C   UNL     1      -2.676  -0.494  -2.601  0.00  0.00    +0.122 C 
ATOM     19  H   UNL     1      -1.608  -3.524  -4.337  0.00  0.00    +0.166 HD
ENDBRANCH   1  16
BRANCH   5  20
ATOM     20  O   UNL     1      -0.662   2.019   1.192  0.00  0.00    -0.392 OA
ATOM     21  H   UNL     1      -0.764   3.102   1.361  0.00  0.00    +0.210 HD
ENDBRANCH   5  20
BRANCH   3  22
ATOM     22  C   UNL     1       3.608   0.815   0.180  0.00  0.00    -0.043 C 
BRANCH  22  23
ATOM     23  C   UNL     1       4.330   1.872   0.976  0.00  0.00    -0.063 A 
ATOM     24  C   UNL     1       4.421   3.163   0.487  0.00  0.00    +0.002 A 
ATOM     25  C   UNL     1       5.077   4.140   1.214  0.00  0.00    +0.001 A 
ATOM     26  C   UNL     1       5.655   3.830   2.428  0.00  0.00    +0.011 A 
ATOM     27  C   UNL     1       5.572   2.529   2.924  0.00  0.00    +0.017 A 
ATOM     28  C   UNL     1       4.903   1.548   2.188  0.00  0.00    +0.013 A 
BRANCH  27  29
ATOM     29  C   UNL     1       6.188   2.189   4.224  0.00  0.00    +0.135 A 
ATOM     30  C   UNL     1       6.868   3.045   5.032  0.00  0.00    +0.050 A 
ATOM     31  C   UNL     1       7.274   2.303   6.159  0.00  0.00    +0.042 A 
ATOM     32  C   UNL     1       6.834   1.042   5.981  0.00  0.00    +0.196 A 
ATOM     33  O   UNL     1       6.178   0.977   4.811  0.00  0.00    -0.463 OA
ENDBRANCH  27  29
ENDBRANCH  22  23
ENDBRANCH   3  22
TORSDOF 5
