REMARK  Name = ZINC57414276
REMARK  7 active torsions:
REMARK  status: ('A' for Active; 'I' for Inactive)
REMARK    1  A    between atoms: C_1  and  O_2
REMARK    2  A    between atoms: O_2  and  C_3
REMARK    3  A    between atoms: C_3  and  C_5
REMARK    4  A    between atoms: C_6  and  C_19
REMARK    5  A    between atoms: C_11  and  C_13
REMARK    6  A    between atoms: C_19  and  N_20
REMARK    7  A    between atoms: N_23  and  C_26
REMARK                            x       y       z     vdW  Elec       q    Type
REMARK                         _______ _______ _______ _____ _____    ______ ____
ROOT
ATOM      1  C   UNL     1      -1.375  -2.195  -0.670  0.00  0.00    +0.079 C 
ATOM      2  C   UNL     1      -2.395  -2.653   0.087  0.00  0.00    +0.038 C 
ATOM      3  N   UNL     1      -2.304  -3.846   0.745  0.00  0.00    -0.271 N 
ATOM      4  C   UNL     1      -1.228  -4.641   0.696  0.00  0.00    +0.304 C 
ATOM      5  O   UNL     1      -1.240  -5.686   1.316  0.00  0.00    -0.252 OA
ATOM      6  N   UNL     1      -0.131  -4.319  -0.018  0.00  0.00    -0.288 N 
ATOM      7  C   UNL     1      -0.130  -3.052  -0.769  0.00  0.00    +0.144 C 
ATOM      8  H   UNL     1      -3.062  -4.135   1.277  0.00  0.00    +0.156 HD
ATOM      9  H   UNL     1       0.639  -4.909  -0.038  0.00  0.00    +0.151 HD
ENDROOT
BRANCH   7  10
ATOM     10  C   UNL     1       0.100  -3.370  -2.224  0.00  0.00    -0.023 A 
ATOM     11  C   UNL     1      -0.628  -4.373  -2.836  0.00  0.00    +0.006 A 
ATOM     12  C   UNL     1      -0.416  -4.665  -4.171  0.00  0.00    +0.000 A 
ATOM     13  C   UNL     1       0.522  -3.953  -4.894  0.00  0.00    +0.000 A 
ATOM     14  C   UNL     1       1.250  -2.949  -4.282  0.00  0.00    +0.000 A 
ATOM     15  C   UNL     1       1.035  -2.654  -2.948  0.00  0.00    +0.006 A 
ENDBRANCH   7  10
BRANCH   1  16
ATOM     16  C   UNL     1      -1.468  -0.959  -1.351  0.00  0.00    +0.339 C 
ATOM     17  O   UNL     1      -2.519  -0.346  -1.360  0.00  0.00    -0.245 OA
BRANCH  16  19
ATOM     18  C   UNL     1      -0.556   0.794  -2.659  0.00  0.00    +0.280 C 
ATOM     19  O   UNL     1      -0.391  -0.459  -1.992  0.00  0.00    -0.465 OA
ENDBRANCH  16  19
ENDBRANCH   1  16
BRANCH   2  20
ATOM     20  C   UNL     1      -3.654  -1.833   0.209  0.00  0.00    +0.136 C 
BRANCH  20  21
ATOM     21  N   UNL     1      -4.545  -2.133  -0.920  0.00  0.00    -0.294 NA
ATOM     22  C   UNL     1      -5.122  -3.478  -0.792  0.00  0.00    +0.103 C 
ATOM     23  C   UNL     1      -5.895  -3.822  -2.070  0.00  0.00    +0.120 C 
ATOM     24  N   UNL     1      -6.868  -2.749  -2.330  0.00  0.00    -0.325 N 
ATOM     25  C   UNL     1      -6.387  -1.360  -2.336  0.00  0.00    +0.120 C 
ATOM     26  C   UNL     1      -5.594  -1.113  -1.048  0.00  0.00    +0.103 C 
BRANCH  24  27
ATOM     27  C   UNL     1      -8.215  -3.044  -2.565  0.00  0.00    +0.065 A 
ATOM     28  C   UNL     1      -9.110  -3.102  -1.505  0.00  0.00    +0.026 A 
ATOM     29  C   UNL     1     -10.440  -3.392  -1.740  0.00  0.00    +0.002 A 
ATOM     30  C   UNL     1     -10.881  -3.626  -3.029  0.00  0.00    +0.003 A 
ATOM     31  C   UNL     1      -9.994  -3.569  -4.088  0.00  0.00    +0.040 A 
ATOM     32  C   UNL     1      -8.662  -3.273  -3.861  0.00  0.00    +0.144 A 
ATOM     33  F   UNL     1      -7.797  -3.212  -4.897  0.00  0.00    -0.204 F 
ENDBRANCH  24  27
ENDBRANCH  20  21
ENDBRANCH   2  20
TORSDOF 6
