REMARK  Name = ZINC59367593
REMARK  6 active torsions:
REMARK  status: ('A' for Active; 'I' for Inactive)
REMARK    1  A    between atoms: C_1  and  N_2
REMARK    2  A    between atoms: N_5  and  C_26
REMARK    3  A    between atoms: C_6  and  C_20
REMARK    4  A    between atoms: C_7  and  C_14
REMARK    5  A    between atoms: C_10  and  S_12
REMARK    6  A    between atoms: S_12  and  C_13
REMARK                            x       y       z     vdW  Elec       q    Type
REMARK                         _______ _______ _______ _____ _____    ______ ____
ROOT
ATOM      1  C   UNL     1      -0.018   1.461   0.010  0.00  0.00    +0.136 C 
ATOM      2  N   UNL     1       0.002  -0.004   0.002  0.00  0.00    -0.261 N 
ATOM      3  C   UNL     1       0.008  -0.789  -1.089  0.00  0.00    +0.308 C 
ATOM      4  O   UNL     1       0.135  -0.359  -2.219  0.00  0.00    -0.252 OA
ATOM      5  N   UNL     1      -0.139  -2.095  -0.811  0.00  0.00    -0.258 N 
ATOM      6  C   UNL     1      -0.459  -2.225   0.628  0.00  0.00    +0.178 C 
ATOM      7  C   UNL     1       0.025  -0.877   1.188  0.00  0.00    +0.175 C 
ATOM      8  N   UNL     1      -0.869  -0.365   2.223  0.00  0.00    -0.210 NA
ATOM      9  N   UNL     1      -2.165  -0.341   1.777  0.00  0.00    -0.259 N 
ATOM     10  C   UNL     1      -2.685  -1.528   1.301  0.00  0.00    +0.143 C 
ATOM     11  N   UNL     1      -1.895  -2.410   0.770  0.00  0.00    -0.339 N 
ATOM     12  C   UNL     1      -0.006  -3.199  -1.766  0.00  0.00    +0.136 C 
ATOM     13  H   UNL     1      -0.788  -0.907   3.071  0.00  0.00    +0.147 HD
ATOM     14  H   UNL     1      -2.692   0.473   1.794  0.00  0.00    +0.168 HD
ATOM     15  H   UNL     1      -2.279  -3.245   0.460  0.00  0.00    +0.164 HD
ENDROOT
BRANCH   7  16
ATOM     16  C   UNL     1       1.431  -1.003   1.716  0.00  0.00    -0.004 A 
ATOM     17  C   UNL     1       2.506  -0.878   0.855  0.00  0.00    +0.007 A 
ATOM     18  C   UNL     1       3.796  -0.993   1.339  0.00  0.00    +0.000 A 
ATOM     19  C   UNL     1       4.011  -1.233   2.683  0.00  0.00    +0.000 A 
ATOM     20  C   UNL     1       2.936  -1.357   3.544  0.00  0.00    +0.000 A 
ATOM     21  C   UNL     1       1.646  -1.238   3.061  0.00  0.00    +0.007 A 
ENDBRANCH   7  16
BRANCH   6  22
ATOM     22  C   UNL     1       0.293  -3.376   1.246  0.00  0.00    -0.000 A 
ATOM     23  C   UNL     1      -0.242  -4.050   2.328  0.00  0.00    +0.008 A 
ATOM     24  C   UNL     1       0.448  -5.105   2.895  0.00  0.00    +0.000 A 
ATOM     25  C   UNL     1       1.673  -5.486   2.380  0.00  0.00    +0.000 A 
ATOM     26  C   UNL     1       2.208  -4.813   1.298  0.00  0.00    +0.000 A 
ATOM     27  C   UNL     1       1.516  -3.760   0.728  0.00  0.00    +0.008 A 
ENDBRANCH   6  22
BRANCH  10  28
ATOM     28  S   UNL     1      -4.416  -1.842   1.402  0.00  0.00    -0.095 S 
ATOM     29  C   UNL     1      -5.087  -0.351   2.188  0.00  0.00    +0.093 C 
ENDBRANCH  10  28
TORSDOF 3
