REMARK  Name = ZINC35636910
REMARK  10 active torsions:
REMARK  status: ('A' for Active; 'I' for Inactive)
REMARK    1  A    between atoms: C_1  and  C_2
REMARK    2  A    between atoms: C_2  and  N_3
REMARK    3  A    between atoms: C_9  and  C_11
REMARK    4  A    between atoms: C_11  and  C_13
REMARK    5  A    between atoms: C_11  and  N_19
REMARK    6  A    between atoms: C_25  and  C_34
REMARK    7  A    between atoms: N_30  and  C_31
REMARK    8  A    between atoms: C_31  and  C_32
REMARK    9  A    between atoms: C_37  and  C_41
REMARK   10  A    between atoms: C_39  and  C_40
REMARK                            x       y       z     vdW  Elec       q    Type
REMARK                         _______ _______ _______ _____ _____    ______ ____
ROOT
ATOM      1  N   UNL     1       0.935  -4.970   5.731  0.00  0.00    -0.277 N 
ATOM      2  C   UNL     1      -0.139  -5.961   5.895  0.00  0.00    +0.160 C 
ATOM      3  C   UNL     1      -0.119  -6.315   7.365  0.00  0.00    +0.043 C 
ATOM      4  C   UNL     1       0.868  -5.582   7.919  0.00  0.00    +0.058 C 
ATOM      5  C   UNL     1       1.497  -4.786   6.939  0.00  0.00    +0.247 C 
ATOM      6  O   UNL     1       2.425  -4.029   7.159  0.00  0.00    -0.270 OA
ATOM      7  C   UNL     1       1.114  -5.740   9.406  0.00  0.00    +0.142 C 
ATOM      8  N   UNL     1       0.248  -6.687  10.128  0.00  0.00    -0.288 N 
ATOM      9  C   UNL     1      -0.699  -7.348   9.434  0.00  0.00    +0.307 C 
ATOM     10  O   UNL     1      -1.419  -8.132  10.021  0.00  0.00    -0.252 OA
ATOM     11  N   UNL     1      -0.873  -7.170   8.118  0.00  0.00    -0.253 N 
ATOM     12  H   UNL     1       0.356  -6.831  11.081  0.00  0.00    +0.151 HD
ENDROOT
BRANCH   7  13
ATOM     13  C   UNL     1       0.958  -4.386  10.049  0.00  0.00    -0.020 A 
ATOM     14  C   UNL     1       0.264  -3.385   9.394  0.00  0.00    +0.006 A 
ATOM     15  C   UNL     1       0.121  -2.143   9.983  0.00  0.00    +0.004 A 
ATOM     16  C   UNL     1       0.672  -1.902  11.228  0.00  0.00    -0.050 A 
ATOM     17  C   UNL     1       1.366  -2.902  11.883  0.00  0.00    +0.007 A 
ATOM     18  C   UNL     1       1.505  -4.146  11.295  0.00  0.00    -0.045 A 
ATOM     19  C   UNL     1       2.256  -5.238  12.012  0.00  0.00    +0.044 C 
ATOM     20  C   UNL     1       0.517  -0.547  11.871  0.00  0.00    +0.044 C 
ENDBRANCH   7  13
BRANCH   1  21
ATOM     21  C   UNL     1       1.326  -4.311   4.482  0.00  0.00    +0.193 C 
BRANCH  21  28
ATOM     22  N   UNL     1      -0.468  -0.953   1.308  0.00  0.00    -0.300 NA
ATOM     23  C   UNL     1      -0.758  -0.467   2.664  0.00  0.00    +0.103 C 
ATOM     24  C   UNL     1       0.470  -0.686   3.555  0.00  0.00    +0.123 C 
ATOM     25  N   UNL     1       0.860  -2.102   3.472  0.00  0.00    -0.297 N 
ATOM     26  C   UNL     1       1.035  -2.698   2.139  0.00  0.00    +0.123 C 
ATOM     27  C   UNL     1      -0.214  -2.400   1.304  0.00  0.00    +0.103 C 
ATOM     28  C   UNL     1       1.053  -2.833   4.587  0.00  0.00    +0.241 C 
ATOM     29  O   UNL     1       1.007  -2.301   5.676  0.00  0.00    -0.273 OA
BRANCH  22  31
ATOM     30  C   UNL     1      -1.624   0.915   0.225  0.00  0.00    +0.020 C 
ATOM     31  C   UNL     1      -1.554  -0.606   0.382  0.00  0.00    +0.081 C 
ENDBRANCH  22  31
ENDBRANCH  21  28
BRANCH  21  32
ATOM     32  C   UNL     1       2.795  -4.535   4.234  0.00  0.00    -0.018 A 
ATOM     33  C   UNL     1       3.731  -3.718   4.842  0.00  0.00    +0.006 A 
ATOM     34  C   UNL     1       5.079  -3.923   4.614  0.00  0.00    +0.000 A 
ATOM     35  C   UNL     1       5.491  -4.944   3.779  0.00  0.00    +0.000 A 
ATOM     36  C   UNL     1       4.556  -5.762   3.172  0.00  0.00    +0.000 A 
ATOM     37  C   UNL     1       3.208  -5.559   3.403  0.00  0.00    +0.006 A 
ENDBRANCH  21  32
ENDBRANCH   1  21
BRANCH  11  38
ATOM     38  C   UNL     1      -1.929  -7.934   7.449  0.00  0.00    +0.141 C 
BRANCH  38  39
ATOM     39  C   UNL     1      -1.367  -9.242   6.955  0.00  0.00    -0.015 C 
ATOM     40  C   UNL     1      -1.929 -10.371   7.309  0.00  0.00    +0.005 C 
ENDBRANCH  38  39
ENDBRANCH  11  38
TORSDOF 7
