REMARK  Name = ZINC33028281
REMARK  7 active torsions:
REMARK  status: ('A' for Active; 'I' for Inactive)
REMARK    1  A    between atoms: C_1  and  C_2
REMARK    2  A    between atoms: C_2  and  C_4
REMARK    3  A    between atoms: C_2  and  N_14
REMARK    4  A    between atoms: C_15  and  C_17
REMARK    5  A    between atoms: C_17  and  C_19
REMARK    6  A    between atoms: C_17  and  N_26
REMARK    7  A    between atoms: C_19  and  C_20
REMARK                            x       y       z     vdW  Elec       q    Type
REMARK                         _______ _______ _______ _____ _____    ______ ____
ROOT
ATOM      1  N   UNL     1       2.890  -1.926  -2.534  0.00  0.00    -0.311 N 
ATOM      2  C   UNL     1       2.989  -2.592  -3.702  0.00  0.00    +0.234 C 
ATOM      3  O   UNL     1       3.063  -1.979  -4.746  0.00  0.00    -0.274 OA
ATOM      4  H   UNL     1       2.823  -2.482  -1.588  0.00  0.00    +0.149 HD
ENDROOT
BRANCH   1   6
ATOM      5  C   UNL     1       4.305   0.068  -2.537  0.00  0.00    +0.028 C 
ATOM      6  C   UNL     1       2.870  -0.461  -2.526  0.00  0.00    +0.076 C 
BRANCH   6   7
ATOM      7  C   UNL     1       2.154   0.032  -1.268  0.00  0.00    -0.010 C 
ATOM      8  C   UNL     1       0.718  -0.497  -1.257  0.00  0.00    +0.012 C 
ATOM      9  C   UNL     1       0.002  -0.004   0.002  0.00  0.00    -0.010 C 
ATOM     10  C   UNL     1      -0.019   1.526   0.010  0.00  0.00    +0.007 C 
ATOM     11  C   UNL     1       1.417   2.055  -0.000  0.00  0.00    -0.010 C 
ATOM     12  C   UNL     1       2.133   1.562  -1.259  0.00  0.00    +0.012 C 
ATOM     13  C   UNL     1       2.157   1.548   1.239  0.00  0.00    +0.007 C 
ATOM     14  C   UNL     1       2.178   0.019   1.231  0.00  0.00    -0.010 C 
ATOM     15  C   UNL     1       0.742  -0.511   1.242  0.00  0.00    +0.007 C 
ATOM     16  C   UNL     1       2.894  -0.475  -0.028  0.00  0.00    +0.012 C 
ENDBRANCH   6   7
ENDBRANCH   1   6
BRANCH   2  17
ATOM     17  C   UNL     1       3.010  -4.099  -3.710  0.00  0.00    +0.165 C 
BRANCH  17  18
ATOM     18  N   UNL     1       3.588  -4.573  -4.970  0.00  0.00    -0.288 N 
ATOM     19  C   UNL     1       3.007  -4.249  -6.142  0.00  0.00    +0.298 C 
ATOM     20  O   UNL     1       2.003  -3.563  -6.154  0.00  0.00    -0.253 OA
ATOM     21  N   UNL     1       3.539  -4.684  -7.301  0.00  0.00    -0.313 N 
ATOM     22  H   UNL     1       4.497  -5.193  -4.960  0.00  0.00    +0.151 HD
ATOM     23  H   UNL     1       3.065  -4.420  -8.258  0.00  0.00    +0.146 HD
ATOM     24  H   UNL     1       4.448  -5.304  -7.291  0.00  0.00    +0.146 HD
ENDBRANCH  17  18
BRANCH  17  25
ATOM     25  C   UNL     1       1.581  -4.629  -3.574  0.00  0.00    +0.067 C 
BRANCH  25  26
ATOM     26  C   UNL     1       1.612  -6.132  -3.458  0.00  0.00    -0.045 A 
ATOM     27  C   UNL     1       1.541  -6.914  -4.596  0.00  0.00    +0.004 A 
ATOM     28  C   UNL     1       1.573  -8.292  -4.491  0.00  0.00    +0.000 A 
ATOM     29  C   UNL     1       1.667  -8.888  -3.247  0.00  0.00    +0.000 A 
ATOM     30  C   UNL     1       1.733  -8.106  -2.109  0.00  0.00    +0.000 A 
ATOM     31  C   UNL     1       1.705  -6.728  -2.215  0.00  0.00    +0.004 A 
ENDBRANCH  25  26
ENDBRANCH  17  25
ENDBRANCH   2  17
TORSDOF 6
