REMARK  Name = ZINC38582618
REMARK  6 active torsions:
REMARK  status: ('A' for Active; 'I' for Inactive)
REMARK    1  A    between atoms: C_1  and  C_2
REMARK    2  A    between atoms: C_4  and  C_16
REMARK    3  A    between atoms: C_6  and  C_14
REMARK    4  A    between atoms: C_7  and  N_13
REMARK    5  A    between atoms: N_18  and  C_31
REMARK    6  A    between atoms: C_20  and  C_21
REMARK                            x       y       z     vdW  Elec       q    Type
REMARK                         _______ _______ _______ _____ _____    ______ ____
ROOT
ATOM      1  C   UNL     1      -2.755   0.867   0.756  0.00  0.00    +0.007 A 
ATOM      2  C   UNL     1      -2.314   1.275   1.968  0.00  0.00    +0.119 A 
ATOM      3  N   UNL     1      -2.717   2.554   2.144  0.00  0.00    -0.239 N 
ATOM      4  N   UNL     1      -3.430   2.941   1.001  0.00  0.00    -0.171 NA
ATOM      5  C   UNL     1      -3.447   1.932   0.168  0.00  0.00    +0.074 A 
ENDROOT
BRANCH   1   9
ATOM      6  C   UNL     1      -0.018   1.503   0.010  0.00  0.00    +0.067 C 
ATOM      7  C   UNL     1       0.002  -0.004   0.002  0.00  0.00    +0.066 C 
ATOM      8  C   UNL     1      -1.064  -0.768   0.003  0.00  0.00    +0.030 C 
ATOM      9  C   UNL     1      -2.536  -0.493   0.145  0.00  0.00    +0.101 C 
ATOM     10  C   UNL     1      -3.065  -1.577   1.066  0.00  0.00    +0.098 C 
ATOM     11  C   UNL     1      -2.303  -2.628   1.436  0.00  0.00    +0.195 C 
ATOM     12  O   UNL     1      -1.023  -2.853   1.091  0.00  0.00    -0.448 OA
ATOM     13  C   UNL     1      -0.529  -2.198  -0.081  0.00  0.00    +0.343 C 
ATOM     14  N   UNL     1       0.921  -1.985  -0.028  0.00  0.00    -0.138 NA
ATOM     15  N   UNL     1       1.127  -0.765  -0.013  0.00  0.00    -0.155 NA
BRANCH  11  16
ATOM     16  N   UNL     1      -2.896  -3.562   2.247  0.00  0.00    -0.329 N 
ATOM     17  H   UNL     1      -3.818  -3.448   2.526  0.00  0.00    +0.145 HD
ATOM     18  H   UNL     1      -2.393  -4.337   2.542  0.00  0.00    +0.145 HD
ENDBRANCH  11  16
BRANCH  10  19
ATOM     19  C   UNL     1      -4.407  -1.482   1.556  0.00  0.00    +0.101 C 
ATOM     20  N   UNL     1      -5.472  -1.407   1.944  0.00  0.00    -0.191 NA
ENDBRANCH  10  19
ENDBRANCH   1   9
BRANCH   5  21
ATOM     21  C   UNL     1      -4.102   1.917  -1.189  0.00  0.00    +0.016 C 
ATOM     22  C   UNL     1      -3.048   1.634  -2.261  0.00  0.00    +0.016 C 
ATOM     23  C   UNL     1      -3.713   1.619  -3.639  0.00  0.00    -0.010 C 
ATOM     24  C   UNL     1      -4.361   2.979  -3.907  0.00  0.00    +0.007 C 
ATOM     25  C   UNL     1      -5.415   3.263  -2.834  0.00  0.00    -0.010 C 
ATOM     26  C   UNL     1      -4.750   3.277  -1.457  0.00  0.00    +0.016 C 
ATOM     27  C   UNL     1      -6.486   2.171  -2.872  0.00  0.00    +0.007 C 
ATOM     28  C   UNL     1      -5.839   0.811  -2.604  0.00  0.00    -0.010 C 
ATOM     29  C   UNL     1      -4.785   0.528  -3.676  0.00  0.00    +0.007 C 
ATOM     30  C   UNL     1      -5.173   0.826  -1.226  0.00  0.00    +0.016 C 
ENDBRANCH   5  21
BRANCH   3  31
ATOM     31  C   UNL     1      -2.468   3.351   3.270  0.00  0.00    +0.065 A 
ATOM     32  C   UNL     1      -1.740   2.840   4.336  0.00  0.00    +0.028 A 
ATOM     33  C   UNL     1      -1.496   3.628   5.444  0.00  0.00    +0.002 A 
ATOM     34  C   UNL     1      -1.976   4.924   5.492  0.00  0.00    +0.000 A 
ATOM     35  C   UNL     1      -2.701   5.435   4.432  0.00  0.00    +0.002 A 
ATOM     36  C   UNL     1      -2.943   4.654   3.318  0.00  0.00    +0.028 A 
ENDBRANCH   3  31
TORSDOF 5
