REMARK  Name = ZINC36548509
REMARK  7 active torsions:
REMARK  status: ('A' for Active; 'I' for Inactive)
REMARK    1  A    between atoms: C_1  and  C_2
REMARK    2  A    between atoms: C_3  and  C_4
REMARK    3  A    between atoms: C_4  and  C_6
REMARK    4  A    between atoms: C_4  and  N_15
REMARK    5  A    between atoms: N_8  and  C_9
REMARK    6  A    between atoms: N_15  and  C_16
REMARK    7  A    between atoms: C_23  and  C_25
REMARK                            x       y       z     vdW  Elec       q    Type
REMARK                         _______ _______ _______ _____ _____    ______ ____
ROOT
ATOM      1  N   UNL     1      -0.101  -2.667   0.175  0.00  0.00    -0.253 N 
ATOM      2  C   UNL     1      -1.399  -2.318   0.274  0.00  0.00    +0.241 C 
ATOM      3  O   UNL     1      -1.952  -1.768  -0.655  0.00  0.00    -0.273 OA
ENDROOT
BRANCH   1   4
ATOM      4  C   UNL     1       0.537  -3.302   1.247  0.00  0.00    +0.056 A 
ATOM      5  C   UNL     1       1.045  -2.551   2.298  0.00  0.00    +0.025 A 
ATOM      6  C   UNL     1       1.674  -3.181   3.354  0.00  0.00    +0.002 A 
ATOM      7  C   UNL     1       1.798  -4.558   3.366  0.00  0.00    +0.002 A 
ATOM      8  C   UNL     1       1.293  -5.310   2.321  0.00  0.00    +0.022 A 
ATOM      9  C   UNL     1       0.658  -4.687   1.264  0.00  0.00    +0.062 A 
ATOM     10 CL   UNL     1       0.017  -5.631  -0.044  0.00  0.00    -0.082 Cl
ENDBRANCH   1   4
BRANCH   2  11
ATOM     11  C   UNL     1      -2.164  -2.612   1.538  0.00  0.00    +0.160 C 
ATOM     12  C   UNL     1      -2.637  -4.083   1.547  0.00  0.00    +0.041 C 
ATOM     13  C   UNL     1      -4.059  -3.961   0.952  0.00  0.00    +0.098 C 
ATOM     14  C   UNL     1      -4.468  -2.537   1.259  0.00  0.00    +0.214 C 
ATOM     15  O   UNL     1      -5.605  -2.116   1.215  0.00  0.00    -0.276 OA
ATOM     16  N   UNL     1      -3.389  -1.805   1.591  0.00  0.00    -0.304 N 
ATOM     17  H   UNL     1      -3.415  -0.866   1.833  0.00  0.00    +0.149 HD
ENDBRANCH   2  11
BRANCH   1  18
ATOM     18  C   UNL     1       0.643  -2.381  -1.055  0.00  0.00    +0.190 C 
BRANCH  18  19
ATOM     19  C   UNL     1      -0.071  -3.000  -2.229  0.00  0.00    +0.238 C 
ATOM     20  O   UNL     1      -1.100  -3.618  -2.056  0.00  0.00    -0.273 OA
ATOM     21  N   UNL     1       0.433  -2.865  -3.471  0.00  0.00    -0.311 N 
ATOM     22  H   UNL     1       1.256  -2.371  -3.610  0.00  0.00    +0.149 HD
BRANCH  21  23
ATOM     23  C   UNL     1      -0.261  -3.466  -4.613  0.00  0.00    +0.073 C 
ATOM     24  C   UNL     1       0.165  -4.929  -4.756  0.00  0.00    +0.022 C 
ATOM     25  C   UNL     1      -0.560  -5.557  -5.949  0.00  0.00    +0.002 C 
ATOM     26  C   UNL     1      -0.200  -4.793  -7.224  0.00  0.00    +0.000 C 
ATOM     27  C   UNL     1      -0.626  -3.330  -7.081  0.00  0.00    +0.002 C 
ATOM     28  C   UNL     1       0.099  -2.703  -5.889  0.00  0.00    +0.022 C 
ENDBRANCH  21  23
ENDBRANCH  18  19
BRANCH  18  31
ATOM     29  C   UNL     1       0.488   1.409  -0.468  0.00  0.00    +0.035 C 
ATOM     30  C   UNL     1       0.302  -0.079  -0.318  0.00  0.00    -0.032 C 
ATOM     31  C   UNL     1       0.734  -0.890  -1.251  0.00  0.00    +0.000 C 
ENDBRANCH  18  31
ENDBRANCH   1  18
TORSDOF 6
