REMARK  Name = ZINC22453900
REMARK  5 active torsions:
REMARK  status: ('A' for Active; 'I' for Inactive)
REMARK    1  A    between atoms: C_1  and  C_2
REMARK    2  A    between atoms: C_3  and  C_20
REMARK    3  A    between atoms: C_11  and  C_19
REMARK    4  A    between atoms: C_16  and  C_18
REMARK    5  A    between atoms: C_20  and  C_21
REMARK                            x       y       z     vdW  Elec       q    Type
REMARK                         _______ _______ _______ _____ _____    ______ ____
ROOT
ATOM      1  C   UNL     1      -3.230   0.683  -3.452  0.00  0.00    +0.066 C 
ATOM      2  C   UNL     1      -2.361   1.604  -2.635  0.00  0.00    +0.050 A 
ATOM      3  C   UNL     1      -2.327   2.938  -2.918  0.00  0.00    +0.042 A 
ATOM      4  C   UNL     1      -1.509   3.778  -2.142  0.00  0.00    +0.256 A 
ATOM      5  O   UNL     1      -1.455   4.976  -2.368  0.00  0.00    -0.267 OA
ATOM      6  N   UNL     1      -0.784   3.233  -1.142  0.00  0.00    -0.295 N 
ATOM      7  H   UNL     1      -0.137   3.870  -0.521  0.00  0.00    +0.172 HD
ATOM      8  C   UNL     1      -0.858   1.895  -0.905  0.00  0.00    +0.199 A 
ATOM      9  N   UNL     1      -1.624   1.114  -1.641  0.00  0.00    -0.221 NA
ATOM     10  N   UNL     1      -0.119   1.350   0.111  0.00  0.00    -0.296 N 
ATOM     11  C   UNL     1      -0.117   2.227   1.288  0.00  0.00    +0.073 C 
ATOM     12  C   UNL     1       0.592   1.524   2.448  0.00  0.00    +0.022 C 
ATOM     13  C   UNL     1       2.028   1.189   2.034  0.00  0.00    +0.004 C 
ATOM     14  C   UNL     1       1.998   0.315   0.778  0.00  0.00    +0.022 C 
ATOM     15  C   UNL     1       1.248   1.053  -0.334  0.00  0.00    +0.073 C 
ATOM     16  C   UNL     1       1.974   2.361  -0.656  0.00  0.00    +0.028 C 
ATOM     17  C   UNL     1      -1.558   2.546   1.690  0.00  0.00    +0.028 C 
ENDROOT
BRANCH   3  18
ATOM     18  C   UNL     1      -3.154   3.503  -4.045  0.00  0.00    +0.077 C 
BRANCH  18  19
ATOM     19  C   UNL     1      -2.319   3.568  -5.297  0.00  0.00    -0.043 A 
ATOM     20  C   UNL     1      -1.503   4.660  -5.528  0.00  0.00    +0.005 A 
ATOM     21  C   UNL     1      -0.733   4.718  -6.675  0.00  0.00    +0.015 A 
ATOM     22  C   UNL     1      -0.787   3.688  -7.596  0.00  0.00    +0.018 A 
ATOM     23  C   UNL     1      -1.607   2.598  -7.367  0.00  0.00    +0.015 A 
ATOM     24  C   UNL     1      -2.373   2.538  -6.218  0.00  0.00    +0.005 A 
ATOM     25 BR   UNL     1       0.261   3.769  -9.168  0.00  0.00    -0.050 Br
ENDBRANCH  18  19
ENDBRANCH   3  18
TORSDOF 2
