REMARK  Name = ZINC34735035
REMARK  12 active torsions:
REMARK  status: ('A' for Active; 'I' for Inactive)
REMARK    1  A    between atoms: C_1  and  C_2
REMARK    2  A    between atoms: C_2  and  N_3
REMARK    3  A    between atoms: N_3  and  C_4
REMARK    4  A    between atoms: C_4  and  C_5
REMARK    5  A    between atoms: C_6  and  C_8
REMARK    6  A    between atoms: C_8  and  N_9
REMARK    7  A    between atoms: C_24  and  C_26
REMARK    8  A    between atoms: C_24  and  C_27
REMARK    9  A    between atoms: N_30  and  C_31
REMARK   10  A    between atoms: C_31  and  C_32
REMARK   11  A    between atoms: N_34  and  C_35
REMARK   12  A    between atoms: N_34  and  C_36
REMARK                            x       y       z     vdW  Elec       q    Type
REMARK                         _______ _______ _______ _____ _____    ______ ____
ROOT
ATOM      1  N   UNL     1      -3.583  -1.196   3.407  0.00  0.00    +0.387 N 
ATOM      2  C   UNL     1      -4.674  -1.396   4.370  0.00  0.00    -0.059 C 
ATOM      3  C   UNL     1      -4.141  -1.197   5.793  0.00  0.00    +0.089 C 
ATOM      4  N   UNL     1      -2.987  -2.089   5.988  0.00  0.00    -0.304 N 
ATOM      5  C   UNL     1      -1.919  -2.071   4.977  0.00  0.00    +0.089 C 
ATOM      6  C   UNL     1      -2.557  -2.229   3.593  0.00  0.00    -0.059 C 
ATOM      7  C   UNL     1      -2.910  -2.914   7.082  0.00  0.00    +0.202 A 
ATOM      8  N   UNL     1      -3.422  -4.126   7.019  0.00  0.00    -0.208 NA
ATOM      9  C   UNL     1      -3.362  -4.945   8.062  0.00  0.00    +0.118 A 
ATOM     10  C   UNL     1      -2.756  -4.569   9.274  0.00  0.00    +0.076 A 
ATOM     11  C   UNL     1      -2.769  -5.579  10.331  0.00  0.00    -0.018 A 
ATOM     12  C   UNL     1      -3.355  -6.762  10.044  0.00  0.00    +0.021 A 
ATOM     13  S   UNL     1      -3.917  -6.604   8.373  0.00  0.00    -0.071 S 
ATOM     14  C   UNL     1      -3.482  -7.934  10.968  0.00  0.00    +0.203 C 
ATOM     15  O   UNL     1      -2.609  -7.711  12.086  0.00  0.00    -0.368 OA
ATOM     16  C   UNL     1      -2.739  -6.409  12.662  0.00  0.00    +0.068 C 
ATOM     17  C   UNL     1      -2.163  -5.353  11.713  0.00  0.00    +0.071 C 
ATOM     18  C   UNL     1      -4.219  -6.111  12.913  0.00  0.00    +0.041 C 
ATOM     19  C   UNL     1      -1.983  -6.363  13.991  0.00  0.00    +0.041 C 
ATOM     20  C   UNL     1      -2.208  -3.248   9.311  0.00  0.00    +0.264 A 
ATOM     21  O   UNL     1      -1.662  -2.834  10.320  0.00  0.00    -0.267 OA
ATOM     22  N   UNL     1      -2.299  -2.471   8.217  0.00  0.00    -0.271 N 
ATOM     23  H   UNL     1      -3.173  -0.286   3.552  0.00  0.00    -0.081 HD
ENDROOT
BRANCH   1  24
ATOM     24  C   UNL     1      -4.118  -1.278   2.041  0.00  0.00    +0.019 C 
BRANCH  24  26
ATOM     25  N   UNL     1      -5.699  -0.016   0.618  0.00  0.00    -0.304 N 
ATOM     26  C   UNL     1      -5.082  -0.143   1.810  0.00  0.00    +0.199 C 
ATOM     27  O   UNL     1      -5.302   0.655   2.695  0.00  0.00    -0.278 OA
BRANCH  25  29
ATOM     28  C   UNL     1      -4.255  -0.492  -1.298  0.00  0.00    +0.024 C 
ATOM     29  C   UNL     1      -5.432  -0.981  -0.452  0.00  0.00    +0.104 C 
ENDBRANCH  25  29
BRANCH  25  30
ATOM     30  C   UNL     1      -6.636   1.087   0.393  0.00  0.00    +0.104 C 
ATOM     31  C   UNL     1      -8.047   0.647   0.788  0.00  0.00    +0.024 C 
ENDBRANCH  25  30
ENDBRANCH  24  26
ENDBRANCH   1  24
BRANCH  22  32
ATOM     32  C   UNL     1      -1.734  -1.119   8.247  0.00  0.00    +0.224 C 
BRANCH  32  33
ATOM     33  C   UNL     1      -2.753  -0.162   8.810  0.00  0.00    +0.235 C 
ATOM     34  O   UNL     1      -3.843  -0.568   9.152  0.00  0.00    -0.274 OA
ATOM     35  N   UNL     1      -2.453   1.146   8.934  0.00  0.00    -0.306 N 
ATOM     36  C   UNL     1      -3.443   2.077   9.481  0.00  0.00    +0.131 C 
ATOM     37  C   UNL     1      -1.136   1.638   8.520  0.00  0.00    +0.131 C 
ENDBRANCH  32  33
ENDBRANCH  22  32
TORSDOF 6
