REMARK  Name = ZINC40709616
REMARK  10 active torsions:
REMARK  status: ('A' for Active; 'I' for Inactive)
REMARK    1  A    between atoms: C_1  and  C_2
REMARK    2  A    between atoms: C_5  and  S_8
REMARK    3  A    between atoms: S_8  and  N_11
REMARK    4  A    between atoms: N_11  and  N_12
REMARK    5  A    between atoms: C_14  and  N_34
REMARK    6  A    between atoms: C_15  and  N_19
REMARK    7  A    between atoms: N_19  and  C_20
REMARK    8  A    between atoms: N_19  and  C_27
REMARK    9  A    between atoms: C_20  and  C_21
REMARK   10  A    between atoms: C_27  and  C_28
REMARK                            x       y       z     vdW  Elec       q    Type
REMARK                         _______ _______ _______ _____ _____    ______ ____
ROOT
ATOM      1  N   UNL     1       2.090  -4.650   1.374  0.00  0.00    -0.244 N 
ATOM      2  C   UNL     1       2.999  -5.577   1.870  0.00  0.00    +0.159 A 
ATOM      3  C   UNL     1       3.841  -5.246   2.933  0.00  0.00    +0.107 A 
ATOM      4  C   UNL     1       4.735  -6.215   3.392  0.00  0.00    +0.148 A 
ATOM      5  N   UNL     1       4.750  -7.409   2.804  0.00  0.00    -0.219 NA
ATOM      6  C   UNL     1       3.938  -7.681   1.803  0.00  0.00    +0.225 A 
ATOM      7  N   UNL     1       3.076  -6.797   1.342  0.00  0.00    -0.218 NA
ATOM      8  H   UNL     1       2.041  -3.763   1.764  0.00  0.00    +0.169 HD
ENDROOT
BRANCH   3   9
ATOM      9  N   UNL     1       3.791  -3.972   3.523  0.00  0.00    -0.353 N 
ATOM     10  H   UNL     1       3.233  -3.280   3.136  0.00  0.00    +0.143 HD
ATOM     11  H   UNL     1       4.314  -3.786   4.318  0.00  0.00    +0.143 HD
ENDBRANCH   3   9
BRANCH   1  12
ATOM     12  N   UNL     1       1.246  -4.996   0.311  0.00  0.00    -0.109 NA
ATOM     13  H   UNL     1       1.623  -5.332  -0.518  0.00  0.00    +0.172 HD
BRANCH  12  14
ATOM     14  S   UNL     1      -0.394  -4.831   0.468  0.00  0.00    +0.074 S 
ATOM     15  O   UNL     1      -0.763  -5.542   1.641  0.00  0.00    -0.152 OA
ATOM     16  O   UNL     1      -0.955  -5.118  -0.805  0.00  0.00    -0.152 OA
BRANCH  14  21
ATOM     17  C   UNL     1      -1.506   0.997   1.566  0.00  0.00    +0.044 C 
ATOM     18  C   UNL     1      -1.228  -0.458   1.292  0.00  0.00    -0.050 A 
ATOM     19  C   UNL     1      -1.192  -0.922  -0.010  0.00  0.00    +0.005 A 
ATOM     20  C   UNL     1      -0.937  -2.257  -0.262  0.00  0.00    +0.029 A 
ATOM     21  C   UNL     1      -0.718  -3.128   0.789  0.00  0.00    +0.107 A 
ATOM     22  C   UNL     1      -0.753  -2.665   2.090  0.00  0.00    +0.029 A 
ATOM     23  C   UNL     1      -1.004  -1.329   2.342  0.00  0.00    +0.005 A 
ENDBRANCH  14  21
ENDBRANCH  12  14
ENDBRANCH   1  12
BRANCH   4  24
ATOM     24  N   UNL     1       5.596  -5.937   4.447  0.00  0.00    -0.305 N 
BRANCH  24  25
ATOM     25  C   UNL     1       5.131  -6.080   5.829  0.00  0.00    +0.142 C 
BRANCH  25  26
ATOM     26  C   UNL     1       5.403  -7.483   6.308  0.00  0.00    -0.030 A 
ATOM     27  C   UNL     1       4.455  -8.472   6.124  0.00  0.00    +0.005 A 
ATOM     28  C   UNL     1       4.705  -9.759   6.563  0.00  0.00    +0.000 A 
ATOM     29  C   UNL     1       5.903 -10.057   7.184  0.00  0.00    +0.000 A 
ATOM     30  C   UNL     1       6.852  -9.069   7.367  0.00  0.00    +0.000 A 
ATOM     31  C   UNL     1       6.604  -7.783   6.924  0.00  0.00    +0.005 A 
ENDBRANCH  25  26
ENDBRANCH  24  25
BRANCH  24  32
ATOM     32  C   UNL     1       6.968  -5.500   4.178  0.00  0.00    +0.142 C 
BRANCH  32  33
ATOM     33  C   UNL     1       7.027  -3.994   4.189  0.00  0.00    -0.030 A 
ATOM     34  C   UNL     1       6.917  -3.289   3.005  0.00  0.00    +0.005 A 
ATOM     35  C   UNL     1       6.972  -1.908   3.016  0.00  0.00    +0.000 A 
ATOM     36  C   UNL     1       7.136  -1.232   4.210  0.00  0.00    +0.000 A 
ATOM     37  C   UNL     1       7.245  -1.937   5.394  0.00  0.00    +0.000 A 
ATOM     38  C   UNL     1       7.186  -3.318   5.384  0.00  0.00    +0.005 A 
ENDBRANCH  32  33
ENDBRANCH  24  32
ENDBRANCH   4  24
TORSDOF 9
