REMARK  Name = ZINC23410614
REMARK  9 active torsions:
REMARK  status: ('A' for Active; 'I' for Inactive)
REMARK    1  A    between atoms: C_1  and  C_2
REMARK    2  A    between atoms: C_5  and  S_8
REMARK    3  A    between atoms: S_8  and  N_11
REMARK    4  A    between atoms: N_11  and  C_12
REMARK    5  A    between atoms: N_11  and  C_25
REMARK    6  A    between atoms: C_12  and  C_13
REMARK    7  A    between atoms: N_15  and  N_16
REMARK    8  A    between atoms: C_17  and  C_18
REMARK    9  A    between atoms: C_22  and  O_24
REMARK                            x       y       z     vdW  Elec       q    Type
REMARK                         _______ _______ _______ _____ _____    ______ ____
ROOT
ATOM      1  N   UNL     1      -0.698   1.558   1.213  0.00  0.00    -0.165 NA
ENDROOT
BRANCH   1   2
ATOM      2  C   UNL     1      -0.401   2.888   1.752  0.00  0.00    +0.080 C 
ATOM      3  C   UNL     1      -0.729   3.949   0.700  0.00  0.00    +0.020 C 
ATOM      4  C   UNL     1      -0.418   5.338   1.262  0.00  0.00    +0.002 C 
ATOM      5  C   UNL     1       1.067   5.420   1.625  0.00  0.00    +0.000 C 
ATOM      6  C   UNL     1       1.394   4.359   2.677  0.00  0.00    +0.002 C 
ATOM      7  C   UNL     1       1.083   2.970   2.115  0.00  0.00    +0.020 C 
ENDBRANCH   1   2
BRANCH   1   8
ATOM      8  S   UNL     1      -1.810   0.590   1.967  0.00  0.00    +0.062 S 
ATOM      9  O   UNL     1      -2.673   1.452   2.696  0.00  0.00    -0.153 OA
ATOM     10  O   UNL     1      -2.292  -0.317   0.984  0.00  0.00    -0.153 OA
BRANCH   8  15
ATOM     11  C   UNL     1       1.173  -2.712   6.042  0.00  0.00    +0.044 C 
ATOM     12  C   UNL     1       0.427  -1.888   5.024  0.00  0.00    -0.050 A 
ATOM     13  C   UNL     1      -0.097  -0.659   5.380  0.00  0.00    +0.005 A 
ATOM     14  C   UNL     1      -0.780   0.097   4.447  0.00  0.00    +0.029 A 
ATOM     15  C   UNL     1      -0.939  -0.375   3.157  0.00  0.00    +0.106 A 
ATOM     16  C   UNL     1      -0.419  -1.606   2.803  0.00  0.00    +0.029 A 
ATOM     17  C   UNL     1       0.268  -2.360   3.735  0.00  0.00    +0.005 A 
ENDBRANCH   8  15
ENDBRANCH   1   8
BRANCH   1  18
ATOM     18  C   UNL     1      -0.013   1.086   0.008  0.00  0.00    +0.207 C 
BRANCH  18  19
ATOM     19  C   UNL     1      -0.742   1.585  -1.213  0.00  0.00    +0.248 C 
ATOM     20  O   UNL     1      -1.736   2.268  -1.088  0.00  0.00    -0.273 OA
ATOM     21  N   UNL     1      -0.288   1.272  -2.443  0.00  0.00    -0.206 N 
ATOM     22  H   UNL     1       0.614   0.653  -2.556  0.00  0.00    +0.177 HD
BRANCH  21  23
ATOM     23  N   UNL     1      -0.966   1.736  -3.578  0.00  0.00    -0.188 NA
ATOM     24  C   UNL     1      -0.530   1.435  -4.762  0.00  0.00    +0.138 C 
BRANCH  24  25
ATOM     25  C   UNL     1      -1.243   1.924  -5.957  0.00  0.00    -0.002 A 
ATOM     26  C   UNL     1      -2.389   2.711  -5.817  0.00  0.00    +0.010 A 
ATOM     27  C   UNL     1      -3.053   3.167  -6.937  0.00  0.00    +0.004 A 
ATOM     28  C   UNL     1      -2.588   2.847  -8.200  0.00  0.00    +0.045 A 
ATOM     29  C   UNL     1      -1.451   2.065  -8.350  0.00  0.00    +0.117 A 
ATOM     30  C   UNL     1      -0.773   1.607  -7.233  0.00  0.00    +0.054 A 
BRANCH  29  31
ATOM     31  O   UNL     1      -0.999   1.755  -9.593  0.00  0.00    -0.507 OA
ATOM     32  H   UNL     1      -0.097   1.136  -9.712  0.00  0.00    +0.292 HD
ENDBRANCH  29  31
ENDBRANCH  24  25
ENDBRANCH  21  23
ENDBRANCH  18  19
ENDBRANCH   1  18
TORSDOF 8
