REMARK  Name = ZINC35930108
REMARK  5 active torsions:
REMARK  status: ('A' for Active; 'I' for Inactive)
REMARK    1  A    between atoms: C_6  and  C_7
REMARK    2  A    between atoms: C_9  and  N_31
REMARK    3  A    between atoms: N_10  and  C_24
REMARK    4  A    between atoms: N_16  and  C_17
REMARK    5  A    between atoms: C_17  and  C_18
REMARK                            x       y       z     vdW  Elec       q    Type
REMARK                         _______ _______ _______ _____ _____    ______ ____
ROOT
ATOM      1  C   UNL     1      -1.354  -0.632  -0.195  0.00  0.00    +0.089 A 
ATOM      2  C   UNL     1      -1.457  -1.874  -0.861  0.00  0.00    +0.086 A 
ATOM      3  C   UNL     1      -0.617  -2.654  -1.646  0.00  0.00    +0.131 A 
ATOM      4  N   UNL     1      -1.303  -3.759  -1.998  0.00  0.00    -0.216 N 
ATOM      5  N   UNL     1      -2.591  -3.715  -1.452  0.00  0.00    -0.144 NA
ATOM      6  C   UNL     1      -2.733  -2.605  -0.761  0.00  0.00    +0.189 A 
ATOM      7  N   UNL     1      -3.725  -2.046  -0.041  0.00  0.00    -0.193 NA
ATOM      8  C   UNL     1      -3.543  -0.882   0.549  0.00  0.00    +0.218 A 
ATOM      9  N   UNL     1      -2.407  -0.195   0.486  0.00  0.00    -0.214 NA
ATOM     10  N   UNL     1      -4.590  -0.348   1.278  0.00  0.00    -0.311 N 
ATOM     11  H   UNL     1      -4.485   0.507   1.723  0.00  0.00    +0.149 HD
ENDROOT
BRANCH   1  17
ATOM     12  C   UNL     1       0.550   0.351  -1.468  0.00  0.00    +0.013 A 
ATOM     13  C   UNL     1       1.714   1.087  -1.513  0.00  0.00    +0.039 A 
ATOM     14  C   UNL     1       2.236   1.636  -0.352  0.00  0.00    +0.123 A 
ATOM     15  C   UNL     1       1.590   1.448   0.860  0.00  0.00    +0.039 A 
ATOM     16  C   UNL     1       0.425   0.713   0.916  0.00  0.00    +0.013 A 
ATOM     17  C   UNL     1      -0.104   0.158  -0.250  0.00  0.00    +0.001 A 
ATOM     18  F   UNL     1       3.378   2.357  -0.402  0.00  0.00    -0.205 F 
ENDBRANCH   1  17
BRANCH   4  19
ATOM     19  C   UNL     1      -0.802  -4.798  -2.794  0.00  0.00    +0.068 A 
ATOM     20  C   UNL     1       0.082  -4.517  -3.828  0.00  0.00    +0.030 A 
ATOM     21  C   UNL     1       0.575  -5.543  -4.610  0.00  0.00    +0.040 A 
ATOM     22  C   UNL     1       0.188  -6.850  -4.366  0.00  0.00    +0.124 A 
ATOM     23  C   UNL     1      -0.694  -7.131  -3.335  0.00  0.00    +0.040 A 
ATOM     24  C   UNL     1      -1.184  -6.110  -2.546  0.00  0.00    +0.030 A 
ATOM     25  F   UNL     1       0.671  -7.851  -5.133  0.00  0.00    -0.205 F 
ENDBRANCH   4  19
BRANCH   3  26
ATOM     26  N   UNL     1       0.684  -2.353  -2.001  0.00  0.00    -0.342 N 
ATOM     27  H   UNL     1       1.145  -1.614  -1.573  0.00  0.00    +0.144 HD
ATOM     28  H   UNL     1       1.137  -2.879  -2.678  0.00  0.00    +0.144 HD
ENDBRANCH   3  26
BRANCH  10  29
ATOM     29  C   UNL     1      -5.859  -1.074   1.377  0.00  0.00    +0.136 C 
BRANCH  29  30
ATOM     30  C   UNL     1      -6.841  -0.271   2.233  0.00  0.00    +0.135 C 
ATOM     31  C   UNL     1      -8.179  -1.038   2.380  0.00  0.00    +0.035 C 
ATOM     32  C   UNL     1      -8.717  -0.441   3.708  0.00  0.00    +0.031 C 
ATOM     33  C   UNL     1      -7.419  -0.200   4.509  0.00  0.00    +0.160 C 
ATOM     34  O   UNL     1      -6.337  -0.131   3.571  0.00  0.00    -0.375 OA
ENDBRANCH  29  30
ENDBRANCH  10  29
TORSDOF 5
