REMARK  Name = ZINC36273502
REMARK  9 active torsions:
REMARK  status: ('A' for Active; 'I' for Inactive)
REMARK    1  A    between atoms: C_1  and  C_2
REMARK    2  A    between atoms: C_2  and  C_3
REMARK    3  A    between atoms: C_3  and  C_4
REMARK    4  A    between atoms: C_4  and  N_5
REMARK    5  A    between atoms: N_5  and  C_6
REMARK    6  A    between atoms: N_5  and  C_7
REMARK    7  A    between atoms: C_7  and  C_8
REMARK    8  A    between atoms: C_9  and  C_18
REMARK    9  A    between atoms: C_14  and  N_17
REMARK                            x       y       z     vdW  Elec       q    Type
REMARK                         _______ _______ _______ _____ _____    ______ ____
ROOT
ATOM      1  C   UNL     1       1.975  -4.207  -3.946  0.00  0.00    +0.035 A 
ATOM      2  C   UNL     1       1.263  -4.705  -4.996  0.00  0.00    +0.091 A 
ATOM      3  N   UNL     1       2.113  -5.338  -5.818  0.00  0.00    -0.228 NA
ATOM      4  C   UNL     1       3.340  -5.256  -5.321  0.00  0.00    +0.138 A 
ATOM      5  N   UNL     1       3.283  -4.547  -4.150  0.00  0.00    -0.303 N 
ATOM      6  C   UNL     1       4.419  -4.309  -3.428  0.00  0.00    +0.115 A 
ATOM      7  C   UNL     1       5.619  -4.767  -3.861  0.00  0.00    +0.041 A 
ATOM      8  C   UNL     1       5.706  -5.495  -5.064  0.00  0.00    +0.028 A 
ATOM      9  C   UNL     1       4.579  -5.744  -5.783  0.00  0.00    +0.048 A 
ENDROOT
BRANCH   2  10
ATOM     10  C   UNL     1      -0.202  -4.570  -5.195  0.00  0.00    +0.006 A 
ATOM     11  C   UNL     1      -0.709  -4.257  -6.455  0.00  0.00    +0.014 A 
ATOM     12  C   UNL     1      -2.070  -4.131  -6.639  0.00  0.00    +0.050 A 
ATOM     13  C   UNL     1      -2.938  -4.316  -5.574  0.00  0.00    +0.166 A 
ATOM     14  C   UNL     1      -2.437  -4.630  -4.312  0.00  0.00    +0.167 A 
ATOM     15  C   UNL     1      -1.072  -4.763  -4.124  0.00  0.00    +0.059 A 
ATOM     16  O   UNL     1      -3.484  -4.760  -3.446  0.00  0.00    -0.453 OA
ATOM     17  C   UNL     1      -4.600  -4.121  -4.094  0.00  0.00    +0.466 C 
ATOM     18  O   UNL     1      -4.300  -4.250  -5.496  0.00  0.00    -0.453 OA
ENDBRANCH   2  10
BRANCH   7  19
ATOM     19  N   UNL     1       6.776  -4.515  -3.111  0.00  0.00    -0.357 N 
ATOM     20  H   UNL     1       6.717  -4.013  -2.283  0.00  0.00    +0.142 HD
ATOM     21  H   UNL     1       7.635  -4.842  -3.420  0.00  0.00    +0.142 HD
ENDBRANCH   7  19
BRANCH   1  22
ATOM     22  C   UNL     1       1.425  -3.424  -2.782  0.00  0.00    -0.022 C 
BRANCH  22  23
ATOM     23  N   UNL     1       1.299  -2.010  -3.159  0.00  0.00    +0.382 N 
ATOM     24  C   UNL     1       2.633  -1.449  -3.409  0.00  0.00    -0.096 C 
ATOM     25  H   UNL     1       0.740  -1.933  -3.995  0.00  0.00    -0.082 HD
BRANCH  23  26
ATOM     26  C   UNL     1       0.652  -1.268  -2.068  0.00  0.00    -0.079 C 
BRANCH  26  27
ATOM     27  C   UNL     1       0.408   0.177  -2.509  0.00  0.00    -0.019 C 
BRANCH  27  29
ATOM     28  C   UNL     1      -0.510   2.394  -1.814  0.00  0.00    +0.004 C 
ATOM     29  C   UNL     1      -0.266   0.950  -1.373  0.00  0.00    -0.005 C 
ENDBRANCH  27  29
ENDBRANCH  26  27
ENDBRANCH  23  26
ENDBRANCH  22  23
ENDBRANCH   1  22
TORSDOF 7
