REMARK  Name = ZINC31163268
REMARK  8 active torsions:
REMARK  status: ('A' for Active; 'I' for Inactive)
REMARK    1  A    between atoms: C_1  and  C_2
REMARK    2  A    between atoms: C_2  and  C_4
REMARK    3  A    between atoms: C_16  and  O_33
REMARK    4  A    between atoms: C_21  and  O_31
REMARK    5  A    between atoms: C_22  and  O_29
REMARK    6  A    between atoms: C_25  and  O_28
REMARK    7  A    between atoms: O_29  and  C_30
REMARK    8  A    between atoms: O_31  and  C_32
REMARK                            x       y       z     vdW  Elec       q    Type
REMARK                         _______ _______ _______ _____ _____    ______ ____
ROOT
ATOM      1  C   UNL     1       0.066   1.827   2.510  0.00  0.00    +0.203 C 
ATOM      2  C   UNL     1       1.105   2.955   2.290  0.00  0.00    +0.091 C 
ATOM      3  C   UNL     1       2.272   2.464   3.104  0.00  0.00    +0.040 A 
ATOM      4  C   UNL     1       2.038   1.113   3.390  0.00  0.00    +0.128 A 
ATOM      5  C   UNL     1       2.957   0.378   4.152  0.00  0.00    +0.047 A 
ATOM      6  C   UNL     1       4.081   1.022   4.597  0.00  0.00    +0.019 A 
ATOM      7  C   UNL     1       4.319   2.367   4.308  0.00  0.00    +0.063 A 
ATOM      8  C   UNL     1       3.405   3.120   3.538  0.00  0.00    +0.139 A 
ATOM      9  O   UNL     1       3.639   4.409   3.235  0.00  0.00    -0.478 OA
ATOM     10  C   UNL     1       4.538   5.177   4.039  0.00  0.00    +0.285 C 
ATOM     11  C   UNL     1       4.881   6.465   3.268  0.00  0.00    +0.350 C 
ATOM     12  O   UNL     1       5.322   6.093   1.962  0.00  0.00    -0.459 OA
ATOM     13  C   UNL     1       6.257   5.112   1.852  0.00  0.00    +0.134 A 
ATOM     14  C   UNL     1       6.925   4.965   0.641  0.00  0.00    +0.095 A 
ATOM     15  C   UNL     1       7.875   3.972   0.485  0.00  0.00    +0.165 A 
ATOM     16  C   UNL     1       8.163   3.117   1.544  0.00  0.00    +0.162 A 
ATOM     17  C   UNL     1       7.500   3.267   2.749  0.00  0.00    +0.060 A 
ATOM     18  C   UNL     1       6.549   4.263   2.906  0.00  0.00    +0.041 A 
ATOM     19  C   UNL     1       5.848   4.402   4.230  0.00  0.00    +0.200 C 
ATOM     20  C   UNL     1       5.529   3.041   4.802  0.00  0.00    +0.206 C 
ATOM     21  O   UNL     1       6.242   2.525   5.637  0.00  0.00    -0.288 OA
ATOM     22  O   UNL     1       0.881   0.686   2.841  0.00  0.00    -0.484 OA
ENDROOT
BRANCH   1  24
ATOM     23  C   UNL     1      -0.013   1.086   0.008  0.00  0.00    +0.042 C 
ATOM     24  C   UNL     1      -0.718   1.572   1.248  0.00  0.00    -0.040 C 
ATOM     25  C   UNL     1      -2.012   1.773   1.229  0.00  0.00    +0.011 C 
ENDBRANCH   1  24
BRANCH  19  26
ATOM     26  O   UNL     1       6.688   5.115   5.139  0.00  0.00    -0.373 OA
ATOM     27  H   UNL     1       7.678   4.714   5.404  0.00  0.00    +0.211 HD
ENDBRANCH  19  26
BRANCH  16  28
ATOM     28  O   UNL     1       9.095   2.137   1.396  0.00  0.00    -0.491 OA
ATOM     29  C   UNL     1       9.339   1.297   2.526  0.00  0.00    +0.277 C 
ENDBRANCH  16  28
BRANCH  15  30
ATOM     30  O   UNL     1       8.525   3.831  -0.701  0.00  0.00    -0.491 OA
ATOM     31  C   UNL     1       8.178   4.744  -1.744  0.00  0.00    +0.277 C 
ENDBRANCH  15  30
BRANCH  11  32
ATOM     32  O   UNL     1       3.719   7.291   3.169  0.00  0.00    -0.355 OA
ATOM     33  H   UNL     1       3.776   8.258   2.648  0.00  0.00    +0.214 HD
ENDBRANCH  11  32
TORSDOF 5
