REMARK  Name = ZINC10042270
REMARK  11 active torsions:
REMARK  status: ('A' for Active; 'I' for Inactive)
REMARK    1  A    between atoms: C_1  and  C_2
REMARK    2  A    between atoms: C_5  and  C_8
REMARK    3  A    between atoms: N_10  and  C_11
REMARK    4  A    between atoms: C_11  and  C_13
REMARK    5  A    between atoms: C_11  and  C_16
REMARK    6  A    between atoms: C_13  and  C_14
REMARK    7  A    between atoms: C_13  and  C_15
REMARK    8  A    between atoms: N_18  and  N_19
REMARK    9  A    between atoms: C_20  and  C_21
REMARK   10  A    between atoms: C_24  and  C_26
REMARK   11  A    between atoms: C_29  and  N_33
REMARK                            x       y       z     vdW  Elec       q    Type
REMARK                         _______ _______ _______ _____ _____    ______ ____
ROOT
ATOM      1  C   UNL     1      -1.786   4.917  -3.512  0.00  0.00    +0.253 C 
ATOM      2  O   UNL     1      -1.616   5.872  -4.233  0.00  0.00    -0.272 OA
ATOM      3  N   UNL     1      -1.875   5.088  -2.178  0.00  0.00    -0.205 N 
ATOM      4  H   UNL     1      -2.101   4.337  -1.607  0.00  0.00    +0.177 HD
ENDROOT
BRANCH   3   5
ATOM      5  N   UNL     1      -1.660   6.249  -1.660  0.00  0.00    -0.185 NA
ATOM      6  C   UNL     1      -1.649   6.396  -0.342  0.00  0.00    +0.176 C 
BRANCH   6   7
ATOM      7  C   UNL     1      -1.715   5.280   0.482  0.00  0.00    +0.148 A 
ATOM      8  C   UNL     1      -1.842   5.296   1.946  0.00  0.00    +0.051 A 
ATOM      9  C   UNL     1      -1.878   4.000   2.348  0.00  0.00    +0.050 A 
ATOM     10  C   UNL     1      -1.764   3.180   1.143  0.00  0.00    +0.137 A 
ATOM     11  O   UNL     1      -1.675   3.994   0.076  0.00  0.00    -0.454 OA
BRANCH  10  12
ATOM     12  C   UNL     1      -1.755   1.765   1.105  0.00  0.00    +0.037 A 
ATOM     13  C   UNL     1      -0.889   1.038   1.945  0.00  0.00    +0.035 A 
ATOM     14  C   UNL     1      -0.886  -0.327   1.901  0.00  0.00    +0.072 A 
ATOM     15  C   UNL     1      -1.733  -1.005   1.032  0.00  0.00    +0.146 A 
ATOM     16  C   UNL     1      -2.591  -0.306   0.198  0.00  0.00    +0.055 A 
ATOM     17  C   UNL     1      -2.612   1.072   0.224  0.00  0.00    +0.054 A 
ATOM     18 CL   UNL     1      -3.681   1.949  -0.825  0.00  0.00    -0.083 Cl
ATOM     19 CL   UNL     1       0.181  -1.221   2.938  0.00  0.00    -0.081 Cl
BRANCH  15  20
ATOM     20  N   UNL     1      -1.717  -2.485   0.997  0.00  0.00    +0.058 N 
ATOM     21  O   UNL     1      -2.517  -3.132   0.175  0.00  0.00    -0.126 OA
ATOM     22  O   UNL     1      -0.903  -3.154   1.787  0.00  0.00    -0.126 OA
ENDBRANCH  15  20
ENDBRANCH  10  12
ENDBRANCH   6   7
ENDBRANCH   3   5
BRANCH   1  23
ATOM     23  C   UNL     1      -1.898   3.536  -4.104  0.00  0.00    +0.163 C 
BRANCH  23  26
ATOM     24  C   UNL     1      -3.194   2.554  -5.919  0.00  0.00    +0.245 C 
ATOM     25  O   UNL     1      -3.256   1.523  -5.278  0.00  0.00    -0.270 OA
ATOM     26  N   UNL     1      -2.537   3.619  -5.420  0.00  0.00    -0.300 N 
ATOM     27  H   UNL     1      -2.488   4.442  -5.932  0.00  0.00    +0.150 HD
BRANCH  24  32
ATOM     28  C   UNL     1      -5.705   2.882 -11.086  0.00  0.00    +0.044 C 
ATOM     29  C   UNL     1      -5.048   2.796  -9.733  0.00  0.00    -0.050 A 
ATOM     30  C   UNL     1      -5.120   1.621  -9.006  0.00  0.00    +0.004 A 
ATOM     31  C   UNL     1      -4.520   1.536  -7.767  0.00  0.00    +0.013 A 
ATOM     32  C   UNL     1      -3.839   2.638  -7.247  0.00  0.00    +0.037 A 
ATOM     33  C   UNL     1      -3.774   3.822  -7.984  0.00  0.00    +0.013 A 
ATOM     34  C   UNL     1      -4.374   3.892  -9.224  0.00  0.00    +0.004 A 
ENDBRANCH  24  32
ENDBRANCH  23  26
BRANCH  23  35
ATOM     35  C   UNL     1      -0.501   2.930  -4.253  0.00  0.00    +0.012 C 
ATOM     36  C   UNL     1       0.144   2.792  -2.873  0.00  0.00    +0.009 C 
ATOM     37  C   UNL     1      -0.611   1.550  -4.906  0.00  0.00    +0.009 C 
ENDBRANCH  23  35
ENDBRANCH   1  23
TORSDOF 8
