REMARK  Name = ZINC08990448
REMARK  2 active torsions:
REMARK  status: ('A' for Active; 'I' for Inactive)
REMARK    1  A    between atoms: C_6  and  C_7
REMARK    2  A    between atoms: C_17  and  C_19
REMARK                            x       y       z     vdW  Elec       q    Type
REMARK                         _______ _______ _______ _____ _____    ______ ____
ROOT
ATOM      1  C   UNL     1      -1.339  -1.178   0.367  0.00  0.00    +0.098 A 
ATOM      2  C   UNL     1      -1.556  -2.189  -0.572  0.00  0.00    +0.028 A 
ATOM      3  C   UNL     1      -2.802  -2.707  -0.353  0.00  0.00    +0.125 A 
ATOM      4  N   UNL     1      -3.351  -2.038   0.680  0.00  0.00    -0.263 N 
ATOM      5  H   UNL     1      -4.234  -2.188   1.052  0.00  0.00    +0.190 HD
ATOM      6  N   UNL     1      -2.416  -1.089   1.125  0.00  0.00    -0.172 NA
ATOM      7  N   UNL     1      -3.309  -3.756  -1.121  0.00  0.00    -0.270 N 
ATOM      8  C   UNL     1      -2.468  -4.393  -1.963  0.00  0.00    +0.219 C 
ATOM      9  O   UNL     1      -2.924  -5.175  -2.769  0.00  0.00    -0.275 OA
ATOM     10  C   UNL     1      -0.983  -4.163  -1.932  0.00  0.00    +0.109 C 
ATOM     11  C   UNL     1      -0.654  -2.689  -1.673  0.00  0.00    +0.066 C 
ATOM     12  H   UNL     1      -4.239  -4.021  -1.051  0.00  0.00    +0.156 HD
ENDROOT
BRANCH  11  13
ATOM     13  C   UNL     1       0.786  -2.557  -1.248  0.00  0.00    -0.004 A 
ATOM     14  C   UNL     1       1.206  -3.104  -0.051  0.00  0.00    +0.010 A 
ATOM     15  C   UNL     1       2.526  -2.984   0.339  0.00  0.00    +0.039 A 
ATOM     16  C   UNL     1       3.430  -2.315  -0.470  0.00  0.00    +0.126 A 
ATOM     17  C   UNL     1       3.010  -1.767  -1.669  0.00  0.00    +0.077 A 
ATOM     18  C   UNL     1       1.688  -1.893  -2.062  0.00  0.00    +0.130 A 
ATOM     19  F   UNL     1       1.278  -1.363  -3.235  0.00  0.00    -0.205 F 
ATOM     20  F   UNL     1       4.720  -2.197  -0.088  0.00  0.00    -0.205 F 
ENDBRANCH  11  13
BRANCH   1  26
ATOM     21  C   UNL     1       0.483   0.195  -0.639  0.00  0.00    +0.011 A 
ATOM     22  C   UNL     1       1.625   0.961  -0.514  0.00  0.00    +0.020 A 
ATOM     23  C   UNL     1       2.180   1.182   0.734  0.00  0.00    +0.041 A 
ATOM     24  C   UNL     1       1.593   0.637   1.864  0.00  0.00    +0.020 A 
ATOM     25  C   UNL     1       0.452  -0.129   1.750  0.00  0.00    +0.011 A 
ATOM     26  C   UNL     1      -0.111  -0.355   0.495  0.00  0.00    +0.003 A 
ATOM     27 CL   UNL     1       3.617   2.144   0.884  0.00  0.00    -0.084 Cl
ENDBRANCH   1  26
TORSDOF 2
