REMARK  Name = ZINC19853923
REMARK  5 active torsions:
REMARK  status: ('A' for Active; 'I' for Inactive)
REMARK    1  A    between atoms: C_1  and  O_2
REMARK    2  A    between atoms: O_2  and  C_3
REMARK    3  A    between atoms: C_5  and  C_10
REMARK    4  A    between atoms: C_8  and  O_9
REMARK    5  A    between atoms: C_20  and  C_22
REMARK                            x       y       z     vdW  Elec       q    Type
REMARK                         _______ _______ _______ _____ _____    ______ ____
ROOT
ATOM      1  C   UNL     1       2.392   0.337  -4.213  0.00  0.00    +0.024 C 
ATOM      2  C   UNL     1       3.091  -0.276  -5.228  0.00  0.00    +0.079 C 
ATOM      3  C   UNL     1       3.815   0.509  -6.268  0.00  0.00    +0.132 C 
ATOM      4  N   UNL     1       4.381   1.663  -6.032  0.00  0.00    -0.385 N 
ATOM      5  N   UNL     1       3.829  -0.117  -7.533  0.00  0.00    -0.153 N 
ATOM      6  C   UNL     1       3.659  -1.484  -7.569  0.00  0.00    +0.181 C 
ATOM      7  N   UNL     1       3.387  -2.281  -6.566  0.00  0.00    -0.152 NA
ATOM      8  C   UNL     1       3.170  -1.753  -5.342  0.00  0.00    +0.273 C 
ATOM      9  O   UNL     1       3.037  -2.467  -4.362  0.00  0.00    -0.268 OA
ATOM     10  S   UNL     1       3.881  -1.845  -9.290  0.00  0.00    -0.033 S 
ATOM     11  C   UNL     1       4.082  -0.163  -9.860  0.00  0.00    +0.131 C 
ATOM     12  N   UNL     1       4.009   0.519  -8.743  0.00  0.00    -0.164 NA
ATOM     13  H   UNL     1       4.343   2.049  -5.143  0.00  0.00    +0.157 HD
ATOM     14  H   UNL     1       4.840   2.133  -6.745  0.00  0.00    +0.157 HD
ENDROOT
BRANCH  11  15
ATOM     15  C   UNL     1       4.281   0.333 -11.240  0.00  0.00    +0.027 A 
ATOM     16  C   UNL     1       4.326  -0.565 -12.307  0.00  0.00    +0.012 A 
ATOM     17  C   UNL     1       4.511  -0.096 -13.592  0.00  0.00    +0.001 A 
ATOM     18  C   UNL     1       4.653   1.260 -13.823  0.00  0.00    +0.001 A 
ATOM     19  C   UNL     1       4.610   2.156 -12.770  0.00  0.00    +0.020 A 
ATOM     20  C   UNL     1       4.419   1.701 -11.480  0.00  0.00    +0.051 A 
ATOM     21 CL   UNL     1       4.357   2.827 -10.160  0.00  0.00    -0.083 Cl
ENDBRANCH  11  15
BRANCH   1  24
ATOM     22  C   UNL     1       0.659  -0.889  -1.125  0.00  0.00    +0.162 A 
ATOM     23  C   UNL     1       1.457  -0.134  -1.959  0.00  0.00    +0.057 A 
ATOM     24  C   UNL     1       1.547  -0.460  -3.320  0.00  0.00    -0.021 A 
ATOM     25  C   UNL     1       0.825  -1.551  -3.824  0.00  0.00    +0.012 A 
ATOM     26  C   UNL     1       0.032  -2.298  -2.983  0.00  0.00    +0.050 A 
ATOM     27  C   UNL     1      -0.052  -1.977  -1.633  0.00  0.00    +0.158 A 
BRANCH  22  29
ATOM     28  C   UNL     1       1.324   0.550   0.648  0.00  0.00    +0.277 C 
ATOM     29  O   UNL     1       0.569  -0.576   0.196  0.00  0.00    -0.491 OA
ENDBRANCH  22  29
BRANCH  27  30
ATOM     30  O   UNL     1      -0.832  -2.721  -0.808  0.00  0.00    -0.503 OA
ATOM     31  H   UNL     1      -1.744  -2.408  -0.741  0.00  0.00    +0.292 HD
ENDBRANCH  27  30
ENDBRANCH   1  24
TORSDOF 4
