REMARK  Name = ZINC23080941
REMARK  6 active torsions:
REMARK  status: ('A' for Active; 'I' for Inactive)
REMARK    1  A    between atoms: C_1  and  C_2
REMARK    2  A    between atoms: C_8  and  C_10
REMARK    3  A    between atoms: C_13  and  C_15
REMARK    4  A    between atoms: C_18  and  C_21
REMARK    5  A    between atoms: C_21  and  C_22
REMARK    6  A    between atoms: C_21  and  C_23
REMARK                            x       y       z     vdW  Elec       q    Type
REMARK                         _______ _______ _______ _____ _____    ______ ____
ROOT
ATOM      1  C   UNL     1      -3.584   4.401   6.274  0.00  0.00    +0.134 A 
ATOM      2  C   UNL     1      -3.998   3.330   7.027  0.00  0.00    +0.080 A 
ATOM      3  S   UNL     1      -3.448   1.994   6.063  0.00  0.00    -0.075 S 
ATOM      4  C   UNL     1      -2.705   2.942   4.744  0.00  0.00    +0.109 A 
ATOM      5  N   UNL     1      -2.941   4.180   5.138  0.00  0.00    -0.234 NA
ENDROOT
BRANCH   1  13
ATOM      6  C   UNL     1      -4.081  12.219   7.009  0.00  0.00    +0.075 C 
ATOM      7  C   UNL     1      -4.008  10.717   6.906  0.00  0.00    +0.101 A 
ATOM      8  N   UNL     1      -4.460   9.788   7.725  0.00  0.00    -0.145 NA
ATOM      9  N   UNL     1      -4.315   8.558   7.490  0.00  0.00    -0.126 NA
ATOM     10  C   UNL     1      -3.696   8.121   6.402  0.00  0.00    +0.188 A 
ATOM     11  S   UNL     1      -3.274   9.685   5.640  0.00  0.00    -0.036 S 
ATOM     12  N   UNL     1      -3.443   6.822   5.978  0.00  0.00    -0.258 N 
ATOM     13  C   UNL     1      -3.853   5.777   6.724  0.00  0.00    +0.269 C 
ATOM     14  O   UNL     1      -4.445   5.971   7.768  0.00  0.00    -0.268 OA
ATOM     15  H   UNL     1      -2.907   6.647   5.033  0.00  0.00    +0.157 HD
ENDBRANCH   1  13
BRANCH   4  16
ATOM     16  C   UNL     1      -2.014   2.465   3.526  0.00  0.00    +0.007 A 
ATOM     17  C   UNL     1      -1.868   1.097   3.294  0.00  0.00    +0.011 A 
ATOM     18  C   UNL     1      -1.222   0.658   2.157  0.00  0.00    +0.004 A 
ATOM     19  C   UNL     1      -0.718   1.572   1.248  0.00  0.00    -0.045 A 
ATOM     20  C   UNL     1      -0.854   2.930   1.475  0.00  0.00    +0.004 A 
ATOM     21  C   UNL     1      -1.504   3.381   2.606  0.00  0.00    +0.011 A 
BRANCH  19  22
ATOM     22  C   UNL     1      -0.013   1.086   0.008  0.00  0.00    +0.013 C 
ATOM     23  C   UNL     1       1.423   1.615  -0.003  0.00  0.00    +0.012 C 
ATOM     24  C   UNL     1      -0.753   1.593  -1.232  0.00  0.00    +0.012 C 
ENDBRANCH  19  22
ENDBRANCH   4  16
TORSDOF 3
