REMARK  Name = ZINC40008111
REMARK  10 active torsions:
REMARK  status: ('A' for Active; 'I' for Inactive)
REMARK    1  A    between atoms: C_1  and  C_2
REMARK    2  A    between atoms: C_2  and  N_3
REMARK    3  A    between atoms: N_3  and  C_4
REMARK    4  A    between atoms: N_3  and  C_6
REMARK    5  A    between atoms: C_4  and  C_5
REMARK    6  A    between atoms: C_6  and  C_7
REMARK    7  A    between atoms: C_7  and  C_8
REMARK    8  A    between atoms: C_8  and  N_9
REMARK    9  A    between atoms: C_10  and  C_26
REMARK   10  A    between atoms: C_17  and  C_25
REMARK                            x       y       z     vdW  Elec       q    Type
REMARK                         _______ _______ _______ _____ _____    ______ ____
ROOT
ATOM      1  N   UNL     1      -2.831  -3.899  -1.943  0.00  0.00    -0.284 N 
ATOM      2  C   UNL     1      -3.734  -4.222  -0.826  0.00  0.00    +0.144 C 
ATOM      3  C   UNL     1      -5.088  -4.394  -1.434  0.00  0.00    +0.072 A 
ATOM      4  C   UNL     1      -6.382  -4.730  -0.831  0.00  0.00    +0.199 A 
ATOM      5  O   UNL     1      -6.570  -4.759   0.372  0.00  0.00    -0.287 OA
ATOM      6  C   UNL     1      -7.441  -5.031  -1.827  0.00  0.00    +0.065 A 
ATOM      7  C   UNL     1      -8.666  -5.559  -1.418  0.00  0.00    +0.018 A 
ATOM      8  C   UNL     1      -9.629  -5.835  -2.348  0.00  0.00    -0.050 A 
ATOM      9  C   UNL     1      -9.391  -5.593  -3.694  0.00  0.00    +0.007 A 
ATOM     10  C   UNL     1      -8.188  -5.072  -4.115  0.00  0.00    +0.047 A 
ATOM     11  C   UNL     1      -7.190  -4.778  -3.186  0.00  0.00    +0.139 A 
ATOM     12  O   UNL     1      -6.020  -4.257  -3.620  0.00  0.00    -0.450 OA
ATOM     13  C   UNL     1      -4.970  -4.183  -2.778  0.00  0.00    +0.199 A 
ATOM     14  C   UNL     1      -3.561  -3.874  -3.077  0.00  0.00    +0.283 C 
ATOM     15  O   UNL     1      -3.120  -3.633  -4.183  0.00  0.00    -0.267 OA
ATOM     16  C   UNL     1     -10.954  -6.405  -1.911  0.00  0.00    +0.044 C 
ENDROOT
BRANCH   2  17
ATOM     17  C   UNL     1      -3.297  -5.499  -0.157  0.00  0.00    -0.022 A 
ATOM     18  C   UNL     1      -2.841  -6.558  -0.919  0.00  0.00    +0.007 A 
ATOM     19  C   UNL     1      -2.439  -7.730  -0.306  0.00  0.00    +0.015 A 
ATOM     20  C   UNL     1      -2.494  -7.842   1.072  0.00  0.00    +0.018 A 
ATOM     21  C   UNL     1      -2.950  -6.782   1.835  0.00  0.00    +0.015 A 
ATOM     22  C   UNL     1      -3.347  -5.609   1.220  0.00  0.00    +0.007 A 
ATOM     23 BR   UNL     1      -1.946  -9.445   1.912  0.00  0.00    -0.050 Br
ENDBRANCH   2  17
BRANCH   1  24
ATOM     24  C   UNL     1      -1.392  -3.644  -1.840  0.00  0.00    +0.107 C 
BRANCH  24  25
ATOM     25  C   UNL     1      -1.155  -2.151  -1.603  0.00  0.00    +0.000 C 
BRANCH  25  26
ATOM     26  C   UNL     1       0.348  -1.884  -1.496  0.00  0.00    -0.077 C 
BRANCH  26  27
ATOM     27  N   UNL     1       0.576  -0.451  -1.269  0.00  0.00    +0.379 N 
ATOM     28  H   UNL     1       0.124   0.081  -1.998  0.00  0.00    -0.082 HD
BRANCH  27  30
ATOM     29  C   UNL     1       0.128   1.449   0.210  0.00  0.00    -0.017 C 
ATOM     30  C   UNL     1       0.019  -0.067   0.035  0.00  0.00    -0.082 C 
ENDBRANCH  27  30
BRANCH  27  31
ATOM     31  C   UNL     1       2.019  -0.176  -1.285  0.00  0.00    -0.082 C 
ATOM     32  C   UNL     1       2.573  -0.440  -2.687  0.00  0.00    -0.017 C 
ENDBRANCH  27  31
ENDBRANCH  26  27
ENDBRANCH  25  26
ENDBRANCH  24  25
ENDBRANCH   1  24
TORSDOF 7
