REMARK  Name = ZINC14993385
REMARK  11 active torsions:
REMARK  status: ('A' for Active; 'I' for Inactive)
REMARK    1  A    between atoms: C_1  and  C_2
REMARK    2  A    between atoms: C_3  and  C_41
REMARK    3  A    between atoms: C_11  and  C_12
REMARK    4  A    between atoms: N_14  and  C_15
REMARK    5  A    between atoms: N_14  and  C_32
REMARK    6  A    between atoms: C_15  and  C_16
REMARK    7  A    between atoms: C_19  and  O_30
REMARK    8  A    between atoms: C_20  and  O_22
REMARK    9  A    between atoms: O_22  and  C_23
REMARK   10  A    between atoms: C_23  and  C_24
REMARK   11  A    between atoms: O_30  and  C_31
REMARK                            x       y       z     vdW  Elec       q    Type
REMARK                         _______ _______ _______ _____ _____    ______ ____
ROOT
ATOM      1  C   UNL     1      -1.575   0.467   0.315  0.00  0.00    +0.250 C 
ATOM      2  O   UNL     1      -1.524   1.663   0.101  0.00  0.00    -0.270 OA
ATOM      3  N   UNL     1      -1.293  -0.010   1.543  0.00  0.00    -0.282 N 
ENDROOT
BRANCH   1  14
ATOM      4  C   UNL     1      -2.086  -0.840  -5.782  0.00  0.00    +0.046 C 
ATOM      5  C   UNL     1      -1.868  -0.292  -4.395  0.00  0.00    -0.022 A 
ATOM      6  C   UNL     1      -1.381   0.919  -4.081  0.00  0.00    +0.017 A 
ATOM      7  N   UNL     1      -1.328   1.061  -2.720  0.00  0.00    -0.357 N 
ATOM      8  H   UNL     1      -1.011   1.851  -2.255  0.00  0.00    +0.166 HD
ATOM      9  C   UNL     1      -1.794  -0.076  -2.112  0.00  0.00    +0.059 A 
ATOM     10  C   UNL     1      -2.149  -0.979  -3.131  0.00  0.00    +0.004 A 
ATOM     11  C   UNL     1      -2.656  -2.237  -2.804  0.00  0.00    +0.010 A 
ATOM     12  C   UNL     1      -2.804  -2.599  -1.482  0.00  0.00    +0.001 A 
ATOM     13  C   UNL     1      -2.454  -1.723  -0.469  0.00  0.00    +0.015 A 
ATOM     14  C   UNL     1      -1.946  -0.461  -0.770  0.00  0.00    +0.061 A 
ATOM     15  C   UNL     1      -0.957   1.966  -5.078  0.00  0.00    +0.063 C 
ENDBRANCH   1  14
BRANCH   3  16
ATOM     16  C   UNL     1      -0.883   0.907   2.609  0.00  0.00    +0.162 C 
ATOM     17  C   UNL     1       0.399   0.395   3.263  0.00  0.00    +0.032 C 
ATOM     18  C   UNL     1       1.294  -0.282   2.241  0.00  0.00    +0.004 C 
ATOM     19  C   UNL     1       1.857   0.667   1.199  0.00  0.00    +0.019 C 
ATOM     20  C   UNL     1       0.745   1.212   0.300  0.00  0.00    +0.104 C 
ATOM     21  N   UNL     1       0.162   2.402   0.942  0.00  0.00    -0.314 N 
ATOM     22  C   UNL     1      -0.608   2.276   2.024  0.00  0.00    +0.234 C 
ATOM     23  O   UNL     1      -1.088   3.263   2.542  0.00  0.00    -0.274 OA
ATOM     24  H   UNL     1       0.337   3.282   0.574  0.00  0.00    +0.149 HD
ENDBRANCH   3  16
BRANCH   3  25
ATOM     25  C   UNL     1      -1.397  -1.446   1.813  0.00  0.00    +0.144 C 
BRANCH  25  26
ATOM     26  C   UNL     1      -2.758  -1.754   2.382  0.00  0.00    -0.026 A 
ATOM     27  C   UNL     1      -3.538  -2.740   1.808  0.00  0.00    +0.009 A 
ATOM     28  C   UNL     1      -4.788  -3.027   2.327  0.00  0.00    +0.050 A 
ATOM     29  C   UNL     1      -5.260  -2.324   3.424  0.00  0.00    +0.162 A 
ATOM     30  C   UNL     1      -4.475  -1.330   4.000  0.00  0.00    +0.163 A 
ATOM     31  C   UNL     1      -3.221  -1.052   3.479  0.00  0.00    +0.054 A 
BRANCH  29  32
ATOM     32  O   UNL     1      -6.488  -2.604   3.935  0.00  0.00    -0.491 OA
ATOM     33  C   UNL     1      -7.239  -3.637   3.293  0.00  0.00    +0.277 C 
ENDBRANCH  29  32
BRANCH  30  34
ATOM     34  O   UNL     1      -4.934  -0.637   5.077  0.00  0.00    -0.484 OA
BRANCH  34  35
ATOM     35  C   UNL     1      -4.074   0.368   5.617  0.00  0.00    +0.266 C 
BRANCH  35  36
ATOM     36  C   UNL     1      -4.746   1.024   6.795  0.00  0.00    +0.008 A 
ATOM     37  C   UNL     1      -5.544   2.144   6.614  0.00  0.00    +0.010 A 
ATOM     38  C   UNL     1      -6.146   2.712   7.726  0.00  0.00    +0.020 A 
ATOM     39  C   UNL     1      -5.924   2.153   8.971  0.00  0.00    +0.111 A 
ATOM     40  N   UNL     1      -5.155   1.090   9.106  0.00  0.00    -0.263 NA
ATOM     41  C   UNL     1      -4.571   0.521   8.070  0.00  0.00    +0.117 A 
ENDBRANCH  35  36
ENDBRANCH  34  35
ENDBRANCH  30  34
ENDBRANCH  25  26
ENDBRANCH   3  25
TORSDOF 8
