REMARK  Name = ZINC43553256
REMARK  12 active torsions:
REMARK  status: ('A' for Active; 'I' for Inactive)
REMARK    1  A    between atoms: C_1  and  C_2
REMARK    2  A    between atoms: C_2  and  C_3
REMARK    3  A    between atoms: C_3  and  C_4
REMARK    4  A    between atoms: C_4  and  N_5
REMARK    5  A    between atoms: C_14  and  C_36
REMARK    6  A    between atoms: C_15  and  C_17
REMARK    7  A    between atoms: C_17  and  C_18
REMARK    8  A    between atoms: N_20  and  C_21
REMARK    9  A    between atoms: C_29  and  O_35
REMARK   10  A    between atoms: C_31  and  C_32
REMARK   11  A    between atoms: C_31  and  C_33
REMARK   12  A    between atoms: C_33  and  O_34
REMARK                            x       y       z     vdW  Elec       q    Type
REMARK                         _______ _______ _______ _____ _____    ______ ____
ROOT
ATOM      1  N   UNL     1      -2.490  -3.456   3.086  0.00  0.00    -0.325 N 
ATOM      2  C   UNL     1      -1.781  -4.645   3.146  0.00  0.00    +0.136 A 
ATOM      3  N   UNL     1      -0.578  -4.854   3.640  0.00  0.00    -0.340 N 
ATOM      4  C   UNL     1      -0.018  -6.057   3.629  0.00  0.00    +0.032 A 
ATOM      5  C   UNL     1      -0.769  -7.040   3.072  0.00  0.00    +0.013 A 
ATOM      6  S   UNL     1      -2.242  -6.172   2.603  0.00  0.00    -0.059 S 
ATOM      7  C   UNL     1      -0.425  -8.475   2.905  0.00  0.00    +0.049 C 
ATOM      8  C   UNL     1       0.999  -8.798   3.397  0.00  0.00    +0.011 C 
ATOM      9  C   UNL     1       1.376  -7.897   4.566  0.00  0.00    -0.020 C 
ATOM     10  C   UNL     1       1.355  -6.420   4.157  0.00  0.00    +0.051 C 
ATOM     11  C   UNL     1       0.438  -8.177   5.734  0.00  0.00    +0.010 C 
ATOM     12  C   UNL     1       0.618  -9.627   6.186  0.00  0.00    +0.032 C 
ATOM     13  C   UNL     1       0.337 -10.608   5.064  0.00  0.00    +0.123 C 
ATOM     14  C   UNL     1       1.023 -10.285   3.748  0.00  0.00    +0.021 C 
ATOM     15  C   UNL     1       2.447 -10.856   3.737  0.00  0.00    +0.016 C 
ATOM     16  C   UNL     1       2.821  -8.147   5.025  0.00  0.00    +0.012 C 
ATOM     17  H   UNL     1      -2.102  -2.641   3.440  0.00  0.00    +0.148 HD
ATOM     18  H   UNL     1      -0.100  -4.095   4.009  0.00  0.00    +0.167 HD
ENDROOT
BRANCH  13  19
ATOM     19  O   UNL     1      -1.077 -10.728   4.868  0.00  0.00    -0.391 OA
ATOM     20  H   UNL     1      -1.556 -11.043   5.647  0.00  0.00    +0.210 HD
ENDBRANCH  13  19
BRANCH   1  21
ATOM     21  C   UNL     1      -3.827  -3.430   2.487  0.00  0.00    +0.103 C 
BRANCH  21  22
ATOM     22  C   UNL     1      -4.385  -2.007   2.547  0.00  0.00    +0.018 C 
BRANCH  22  24
ATOM     23  C   UNL     1      -6.339  -0.556   1.981  0.00  0.00    +0.004 C 
ATOM     24  C   UNL     1      -5.781  -1.980   1.921  0.00  0.00    -0.002 C 
ENDBRANCH  22  24
ENDBRANCH  21  22
ENDBRANCH   1  21
BRANCH  10  25
ATOM     25  C   UNL     1       1.743  -5.537   5.339  0.00  0.00    +0.106 C 
BRANCH  25  26
ATOM     26  C   UNL     1       1.906  -4.114   4.871  0.00  0.00    +0.218 C 
ATOM     27  O   UNL     1       1.852  -3.855   3.688  0.00  0.00    -0.275 OA
ATOM     28  N   UNL     1       2.111  -3.129   5.768  0.00  0.00    -0.285 N 
ATOM     29  H   UNL     1       2.076  -3.323   6.718  0.00  0.00    +0.155 HD
BRANCH  28  30
ATOM     30  C   UNL     1       2.375  -1.827   5.329  0.00  0.00    +0.033 A 
ATOM     31  C   UNL     1       1.935  -0.740   6.073  0.00  0.00    +0.023 A 
ATOM     32  C   UNL     1       2.197   0.544   5.637  0.00  0.00    +0.002 A 
ATOM     33  C   UNL     1       2.897   0.748   4.462  0.00  0.00    +0.000 A 
ATOM     34  C   UNL     1       3.337  -0.333   3.719  0.00  0.00    +0.002 A 
ATOM     35  C   UNL     1       3.083  -1.619   4.153  0.00  0.00    +0.023 A 
ENDBRANCH  28  30
ENDBRANCH  25  26
ENDBRANCH  10  25
BRANCH  14  36
ATOM     36  C   UNL     1       0.267 -11.059   2.636  0.00  0.00    +0.165 C 
BRANCH  36  37
ATOM     37  O   UNL     1       0.274 -12.455   2.939  0.00  0.00    -0.394 OA
ATOM     38  H   UNL     1      -0.183 -13.002   2.285  0.00  0.00    +0.209 HD
ENDBRANCH  36  37
ENDBRANCH  14  36
TORSDOF 9
