REMARK  Name = ZINC36882691
REMARK  5 active torsions:
REMARK  status: ('A' for Active; 'I' for Inactive)
REMARK    1  A    between atoms: C_4  and  N_7
REMARK    2  A    between atoms: N_8  and  C_9
REMARK    3  A    between atoms: C_12  and  N_15
REMARK    4  A    between atoms: C_16  and  C_18
REMARK    5  A    between atoms: C_18  and  N_19
REMARK                            x       y       z     vdW  Elec       q    Type
REMARK                         _______ _______ _______ _____ _____    ______ ____
ROOT
ATOM      1  N   UNL     1       8.456  -4.606  -0.108  0.00  0.00    -0.284 N 
ATOM      2  C   UNL     1       8.481  -5.951  -0.018  0.00  0.00    +0.235 C 
ATOM      3  O   UNL     1       7.443  -6.578  -0.016  0.00  0.00    -0.274 OA
ATOM      4  H   UNL     1       9.286  -4.110  -0.187  0.00  0.00    +0.155 HD
ENDROOT
BRANCH   1   8
ATOM      5  C   UNL     1       4.815  -2.580  -0.041  0.00  0.00    +0.086 A 
ATOM      6  C   UNL     1       4.977  -3.756   0.700  0.00  0.00    +0.031 A 
ATOM      7  C   UNL     1       6.181  -4.422   0.675  0.00  0.00    +0.025 A 
ATOM      8  C   UNL     1       7.236  -3.928  -0.086  0.00  0.00    +0.034 A 
ATOM      9  C   UNL     1       7.079  -2.759  -0.824  0.00  0.00    +0.025 A 
ATOM     10  C   UNL     1       5.876  -2.090  -0.808  0.00  0.00    +0.031 A 
BRANCH   5  12
ATOM     11  N   UNL     1       2.644  -2.371   0.689  0.00  0.00    -0.149 NA
ATOM     12  N   UNL     1       3.622  -1.917  -0.019  0.00  0.00    -0.149 NA
BRANCH  11  16
ATOM     13  C   UNL     1      -0.971  -0.360   0.755  0.00  0.00    +0.000 A 
ATOM     14  C   UNL     1      -0.814  -1.520   1.494  0.00  0.00    +0.002 A 
ATOM     15  C   UNL     1       0.388  -2.196   1.476  0.00  0.00    +0.029 A 
ATOM     16  C   UNL     1       1.449  -1.707   0.710  0.00  0.00    +0.086 A 
ATOM     17  C   UNL     1       1.284  -0.535  -0.033  0.00  0.00    +0.029 A 
ATOM     18  C   UNL     1       0.076   0.130  -0.006  0.00  0.00    +0.002 A 
ENDBRANCH  11  16
ENDBRANCH   5  12
ENDBRANCH   1   8
BRANCH   2  19
ATOM     19  C   UNL     1       9.799  -6.675   0.078  0.00  0.00    +0.214 C 
BRANCH  19  20
ATOM     20  N   UNL     1       9.559  -8.118   0.163  0.00  0.00    -0.215 N 
ATOM     21  C   UNL     1       9.388  -8.790   1.320  0.00  0.00    +0.252 C 
ATOM     22  O   UNL     1       9.405  -8.335   2.444  0.00  0.00    -0.272 OA
ATOM     23  C   UNL     1       9.171 -10.232   0.920  0.00  0.00    +0.144 C 
ATOM     24  C   UNL     1       7.795 -10.708   1.374  0.00  0.00    +0.081 C 
ATOM     25  C   UNL     1       7.845 -10.950   2.889  0.00  0.00    +0.232 C 
ATOM     26  O   UNL     1       8.770 -12.006   3.149  0.00  0.00    -0.492 OA
ATOM     27  C   UNL     1       9.999 -11.936   2.575  0.00  0.00    +0.126 A 
ATOM     28  C   UNL     1      10.251 -11.103   1.496  0.00  0.00    +0.027 A 
ATOM     29  C   UNL     1      11.517 -11.068   0.935  0.00  0.00    +0.010 A 
ATOM     30  C   UNL     1      12.529 -11.856   1.448  0.00  0.00    +0.001 A 
ATOM     31  C   UNL     1      12.282 -12.683   2.528  0.00  0.00    +0.004 A 
ATOM     32  C   UNL     1      11.022 -12.724   3.090  0.00  0.00    +0.046 A 
ATOM     33  N   UNL     1       9.252 -10.212  -0.546  0.00  0.00    -0.281 N 
ATOM     34  C   UNL     1       9.475  -8.931  -0.897  0.00  0.00    +0.310 C 
ATOM     35  O   UNL     1       9.592  -8.556  -2.047  0.00  0.00    -0.252 OA
ATOM     36  H   UNL     1       9.159 -10.970  -1.143  0.00  0.00    +0.152 HD
ENDBRANCH  19  20
ENDBRANCH   2  19
TORSDOF 5
