REMARK  Name = ZINC40812039
REMARK  7 active torsions:
REMARK  status: ('A' for Active; 'I' for Inactive)
REMARK    1  A    between atoms: C_1  and  C_2
REMARK    2  A    between atoms: C_3  and  N_9
REMARK    3  A    between atoms: C_10  and  C_12
REMARK    4  A    between atoms: C_13  and  C_32
REMARK    5  A    between atoms: N_21  and  N_22
REMARK    6  A    between atoms: C_23  and  C_25
REMARK    7  A    between atoms: C_28  and  O_31
REMARK                            x       y       z     vdW  Elec       q    Type
REMARK                         _______ _______ _______ _____ _____    ______ ____
ROOT
ATOM      1  C   UNL     1       0.189   0.090  -4.841  0.00  0.00    +0.193 A 
ATOM      2  C   UNL     1       0.294  -0.462  -6.088  0.00  0.00    +0.009 A 
ATOM      3  C   UNL     1       0.357   0.610  -6.987  0.00  0.00    +0.042 A 
ATOM      4  C   UNL     1       0.289   1.770  -6.251  0.00  0.00    +0.115 A 
ATOM      5  O   UNL     1       0.181   1.436  -4.967  0.00  0.00    -0.454 OA
ATOM      6  C   UNL     1       0.333   3.141  -6.876  0.00  0.00    +0.075 C 
ATOM      7  C   UNL     1       0.959   3.045  -8.270  0.00  0.00    +0.014 C 
ATOM      8  C   UNL     1       0.244   1.984  -9.112  0.00  0.00    +0.058 C 
ATOM      9  C   UNL     1       0.471   0.627  -8.462  0.00  0.00    +0.070 C 
ATOM     10  N   UNL     1       0.746  -0.438  -9.151  0.00  0.00    -0.184 NA
ATOM     11  C   UNL     1       0.335  -1.930  -6.427  0.00  0.00    +0.048 C 
ENDROOT
BRANCH   1  13
ATOM     12  N   UNL     1      -0.010   0.011  -2.413  0.00  0.00    -0.279 N 
ATOM     13  C   UNL     1       0.095  -0.654  -3.580  0.00  0.00    +0.284 C 
ATOM     14  O   UNL     1       0.112  -1.871  -3.589  0.00  0.00    -0.266 OA
ATOM     15  H   UNL     1      -0.104   0.976  -2.411  0.00  0.00    +0.155 HD
BRANCH  12  18
ATOM     16  C   UNL     1      -1.264   1.189  -0.146  0.00  0.00    +0.047 C 
ATOM     17  C   UNL     1      -0.583  -0.153  -0.073  0.00  0.00    -0.011 A 
ATOM     18  C   UNL     1       0.017  -0.692  -1.204  0.00  0.00    +0.038 A 
ATOM     19  C   UNL     1       0.643  -1.929  -1.132  0.00  0.00    +0.023 A 
ATOM     20  C   UNL     1       0.667  -2.621   0.064  0.00  0.00    +0.003 A 
ATOM     21  C   UNL     1       0.069  -2.084   1.188  0.00  0.00    +0.020 A 
ATOM     22  C   UNL     1      -0.551  -0.848   1.122  0.00  0.00    +0.046 A 
ATOM     23 CL   UNL     1      -1.294  -0.173   2.538  0.00  0.00    -0.083 Cl
ENDBRANCH  12  18
ENDBRANCH   1  13
BRANCH  10  24
ATOM     24  N   UNL     1       0.843  -0.363 -10.547  0.00  0.00    -0.203 N 
ATOM     25  C   UNL     1       1.128  -1.469 -11.262  0.00  0.00    +0.263 C 
ATOM     26  O   UNL     1       1.302  -2.532 -10.697  0.00  0.00    -0.268 OA
ATOM     27  H   UNL     1       0.704   0.484 -10.998  0.00  0.00    +0.178 HD
BRANCH  25  28
ATOM     28  C   UNL     1       1.230  -1.391 -12.732  0.00  0.00    +0.039 A 
ATOM     29  C   UNL     1       1.036  -0.170 -13.384  0.00  0.00    +0.016 A 
ATOM     30  C   UNL     1       1.132  -0.100 -14.756  0.00  0.00    +0.046 A 
ATOM     31  C   UNL     1       1.421  -1.243 -15.493  0.00  0.00    +0.117 A 
ATOM     32  C   UNL     1       1.614  -2.459 -14.848  0.00  0.00    +0.046 A 
ATOM     33  C   UNL     1       1.525  -2.536 -13.476  0.00  0.00    +0.016 A 
BRANCH  31  34
ATOM     34  O   UNL     1       1.514  -1.171 -16.845  0.00  0.00    -0.507 OA
ATOM     35  H   UNL     1       2.405  -0.976 -17.168  0.00  0.00    +0.292 HD
ENDBRANCH  31  34
ENDBRANCH  25  28
ENDBRANCH  10  24
TORSDOF 5
