REMARK  Name = ZINC08643456
REMARK  12 active torsions:
REMARK  status: ('A' for Active; 'I' for Inactive)
REMARK    1  A    between atoms: C_1  and  C_2
REMARK    2  A    between atoms: C_5  and  S_8
REMARK    3  A    between atoms: S_8  and  N_11
REMARK    4  A    between atoms: N_11  and  C_12
REMARK    5  A    between atoms: C_12  and  C_13
REMARK    6  A    between atoms: C_15  and  O_35
REMARK    7  A    between atoms: C_17  and  O_34
REMARK    8  A    between atoms: C_19  and  C_22
REMARK    9  A    between atoms: C_22  and  C_23
REMARK   10  A    between atoms: N_25  and  C_26
REMARK   11  A    between atoms: N_25  and  C_27
REMARK   12  A    between atoms: C_27  and  C_28
REMARK                            x       y       z     vdW  Elec       q    Type
REMARK                         _______ _______ _______ _____ _____    ______ ____
ROOT
ATOM      1  C   UNL     1       4.244  -3.065   4.040  0.00  0.00    +0.165 C 
ATOM      2  C   UNL     1       3.469  -3.126   5.381  0.00  0.00    +0.175 C 
ATOM      3  C   UNL     1       2.700  -1.783   5.373  0.00  0.00    +0.175 C 
ATOM      4  C   UNL     1       2.668  -1.375   3.888  0.00  0.00    +0.158 C 
ATOM      5  O   UNL     1       3.314  -2.419   3.140  0.00  0.00    -0.366 OA
ENDROOT
BRANCH   3   6
ATOM      6  O   UNL     1       3.396  -0.803   6.146  0.00  0.00    -0.387 OA
ATOM      7  H   UNL     1       3.447  -1.009   7.090  0.00  0.00    +0.210 HD
ENDBRANCH   3   6
BRANCH   2   8
ATOM      8  O   UNL     1       4.371  -3.191   6.488  0.00  0.00    -0.387 OA
ATOM      9  H   UNL     1       3.938  -3.141   7.351  0.00  0.00    +0.210 HD
ENDBRANCH   2   8
BRANCH   1  10
ATOM     10  C   UNL     1       4.580  -4.474   3.547  0.00  0.00    +0.140 C 
BRANCH  10  11
ATOM     11  N   UNL     1       5.412  -4.385   2.345  0.00  0.00    -0.187 NA
ATOM     12  H   UNL     1       5.482  -3.545   1.864  0.00  0.00    +0.148 HD
BRANCH  11  13
ATOM     13  S   UNL     1       6.233  -5.718   1.805  0.00  0.00    +0.058 S 
ATOM     14  O   UNL     1       6.916  -5.323   0.623  0.00  0.00    -0.153 OA
ATOM     15  O   UNL     1       6.909  -6.261   2.930  0.00  0.00    -0.153 OA
BRANCH  13  20
ATOM     16  C   UNL     1       2.110  -9.794   0.135  0.00  0.00    +0.044 C 
ATOM     17  C   UNL     1       3.140  -8.777   0.552  0.00  0.00    -0.050 A 
ATOM     18  C   UNL     1       3.616  -7.859  -0.366  0.00  0.00    +0.005 A 
ATOM     19  C   UNL     1       4.560  -6.925   0.017  0.00  0.00    +0.029 A 
ATOM     20  C   UNL     1       5.029  -6.908   1.317  0.00  0.00    +0.105 A 
ATOM     21  C   UNL     1       4.558  -7.830   2.233  0.00  0.00    +0.029 A 
ATOM     22  C   UNL     1       3.610  -8.761   1.852  0.00  0.00    +0.005 A 
ENDBRANCH  13  20
ENDBRANCH  11  13
ENDBRANCH  10  11
ENDBRANCH   1  10
BRANCH   4  23
ATOM     23  C   UNL     1       1.218  -1.222   3.421  0.00  0.00    +0.130 C 
BRANCH  23  24
ATOM     24  C   UNL     1       1.198  -0.712   2.003  0.00  0.00    +0.218 C 
ATOM     25  O   UNL     1       2.240  -0.492   1.423  0.00  0.00    -0.276 OA
ATOM     26  N   UNL     1       0.022  -0.500   1.381  0.00  0.00    -0.300 N 
ATOM     27  C   UNL     1      -1.237  -0.765   2.082  0.00  0.00    +0.132 C 
BRANCH  26  28
ATOM     28  C   UNL     1       0.002  -0.004   0.002  0.00  0.00    +0.142 C 
BRANCH  28  29
ATOM     29  C   UNL     1      -0.018   1.503   0.010  0.00  0.00    -0.030 A 
ATOM     30  C   UNL     1      -1.225   2.178   0.020  0.00  0.00    +0.005 A 
ATOM     31  C   UNL     1      -1.244   3.560   0.032  0.00  0.00    +0.000 A 
ATOM     32  C   UNL     1      -0.056   4.267   0.025  0.00  0.00    +0.000 A 
ATOM     33  C   UNL     1       1.151   3.592   0.010  0.00  0.00    +0.000 A 
ATOM     34  C   UNL     1       1.169   2.210   0.003  0.00  0.00    +0.005 A 
ENDBRANCH  28  29
ENDBRANCH  26  28
ENDBRANCH  23  24
ENDBRANCH   4  23
TORSDOF 10
