REMARK  Name = ZINC20706998
REMARK  7 active torsions:
REMARK  status: ('A' for Active; 'I' for Inactive)
REMARK    1  A    between atoms: C_1  and  C_2
REMARK    2  A    between atoms: C_4  and  C_35
REMARK    3  A    between atoms: C_6  and  N_8
REMARK    4  A    between atoms: N_8  and  S_9
REMARK    5  A    between atoms: S_9  and  C_12
REMARK    6  A    between atoms: C_25  and  C_28
REMARK    7  A    between atoms: C_33  and  O_34
REMARK                            x       y       z     vdW  Elec       q    Type
REMARK                         _______ _______ _______ _____ _____    ______ ____
ROOT
ATOM      1  C   UNL     1       3.195  -0.492   0.154  0.00  0.00    +0.109 A 
ATOM      2  C   UNL     1       2.074  -0.669   0.945  0.00  0.00    +0.030 A 
ATOM      3  C   UNL     1       2.222  -0.947   2.289  0.00  0.00    +0.025 A 
ATOM      4  C   UNL     1       3.492  -1.049   2.842  0.00  0.00    +0.031 A 
ATOM      5  C   UNL     1       4.619  -0.874   2.053  0.00  0.00    -0.018 A 
ATOM      6  C   UNL     1       4.457  -0.599   0.702  0.00  0.00    +0.034 A 
ATOM      7  C   UNL     1       6.005  -0.980   2.603  0.00  0.00    +0.049 C 
ATOM      8  C   UNL     1       6.644   0.380   2.755  0.00  0.00    -0.023 C 
ATOM      9  C   UNL     1       7.395   0.412   3.829  0.00  0.00    -0.030 C 
ATOM     10  C   UNL     1       7.363  -0.928   4.539  0.00  0.00    +0.033 C 
ATOM     11  C   UNL     1       6.045  -1.577   4.024  0.00  0.00    +0.029 C 
ATOM     12  C   UNL     1       4.898  -1.006   4.862  0.00  0.00    +0.108 C 
ATOM     13  N   UNL     1       3.625  -1.326   4.207  0.00  0.00    -0.336 N 
ATOM     14  H   UNL     1       2.805  -1.773   4.787  0.00  0.00    +0.147 HD
ENDROOT
BRANCH  12  15
ATOM     15  C   UNL     1       5.048   0.490   4.970  0.00  0.00    +0.014 A 
ATOM     16  C   UNL     1       4.548   1.308   3.975  0.00  0.00    +0.009 A 
ATOM     17  C   UNL     1       4.686   2.680   4.073  0.00  0.00    +0.001 A 
ATOM     18  C   UNL     1       5.322   3.237   5.167  0.00  0.00    +0.004 A 
ATOM     19  C   UNL     1       5.823   2.423   6.165  0.00  0.00    +0.046 A 
ATOM     20  C   UNL     1       5.682   1.046   6.071  0.00  0.00    +0.122 A 
BRANCH  20  21
ATOM     21  O   UNL     1       6.169   0.243   7.053  0.00  0.00    -0.506 OA
ATOM     22  H   UNL     1       6.671   0.686   7.926  0.00  0.00    +0.292 HD
ENDBRANCH  20  21
ENDBRANCH  12  15
BRANCH   1  23
ATOM     23  S   UNL     1       3.011  -0.137  -1.562  0.00  0.00    +0.072 S 
ATOM     24  O   UNL     1       1.691  -0.525  -1.918  0.00  0.00    -0.150 OA
ATOM     25  O   UNL     1       4.161  -0.663  -2.211  0.00  0.00    -0.150 OA
BRANCH  23  26
ATOM     26  N   UNL     1       3.083   1.509  -1.731  0.00  0.00    -0.216 N 
ATOM     27  H   UNL     1       3.912   1.968  -2.291  0.00  0.00    +0.174 HD
BRANCH  26  33
ATOM     28  C   UNL     1      -1.678   2.416  -0.919  0.00  0.00    +0.044 C 
ATOM     29  C   UNL     1      -0.224   2.777  -0.754  0.00  0.00    -0.048 A 
ATOM     30  C   UNL     1       0.130   3.908  -0.041  0.00  0.00    +0.006 A 
ATOM     31  C   UNL     1       1.463   4.243   0.113  0.00  0.00    -0.048 A 
ATOM     32  C   UNL     1       2.445   3.449  -0.446  0.00  0.00    +0.028 A 
ATOM     33  C   UNL     1       2.093   2.313  -1.164  0.00  0.00    +0.049 A 
ATOM     34  C   UNL     1       0.753   1.982  -1.321  0.00  0.00    +0.028 A 
ATOM     35  C   UNL     1       1.844   5.476   0.892  0.00  0.00    +0.044 C 
ENDBRANCH  26  33
ENDBRANCH  23  26
ENDBRANCH   1  23
TORSDOF 5
