REMARK  Name = ZINC40425347
REMARK  8 active torsions:
REMARK  status: ('A' for Active; 'I' for Inactive)
REMARK    1  A    between atoms: C_1  and  C_2
REMARK    2  A    between atoms: C_2  and  C_3
REMARK    3  A    between atoms: C_2  and  C_4
REMARK    4  A    between atoms: C_2  and  N_27
REMARK    5  A    between atoms: C_11  and  C_20
REMARK    6  A    between atoms: C_12  and  C_13
REMARK    7  A    between atoms: N_27  and  C_28
REMARK    8  A    between atoms: N_27  and  C_29
REMARK                            x       y       z     vdW  Elec       q    Type
REMARK                         _______ _______ _______ _____ _____    ______ ____
ROOT
ATOM      1  C   UNL     1      -1.462  -0.457  -0.043  0.00  0.00    -0.054 A 
ATOM      2  C   UNL     1      -2.261  -0.338   1.105  0.00  0.00    +0.020 A 
ATOM      3  C   UNL     1      -3.598  -0.513   1.024  0.00  0.00    +0.093 A 
ATOM      4  N   UNL     1      -4.189  -0.806  -0.168  0.00  0.00    -0.297 N 
ATOM      5  C   UNL     1      -3.438  -0.929  -1.306  0.00  0.00    +0.139 A 
ATOM      6  C   UNL     1      -2.043  -0.745  -1.240  0.00  0.00    +0.049 A 
ATOM      7  N   UNL     1      -4.244  -1.216  -2.322  0.00  0.00    -0.227 NA
ATOM      8  C   UNL     1      -5.506  -1.286  -1.887  0.00  0.00    +0.099 A 
ATOM      9  C   UNL     1      -5.503  -1.030  -0.520  0.00  0.00    +0.100 A 
ENDROOT
BRANCH   9  10
ATOM     10  C   UNL     1      -6.670  -1.002   0.373  0.00  0.00    +0.095 A 
ATOM     11  C   UNL     1      -6.524  -1.245   1.747  0.00  0.00    +0.050 A 
ATOM     12  C   UNL     1      -7.649  -1.208   2.545  0.00  0.00    +0.116 A 
ATOM     13  N   UNL     1      -8.827  -0.947   1.995  0.00  0.00    -0.223 NA
ATOM     14  C   UNL     1      -8.939  -0.720   0.694  0.00  0.00    +0.213 A 
ATOM     15  N   UNL     1      -7.888  -0.740  -0.110  0.00  0.00    -0.213 NA
ATOM     16  N   UNL     1     -10.189  -0.451   0.162  0.00  0.00    -0.327 N 
ATOM     17  H   UNL     1     -10.967  -0.430   0.740  0.00  0.00    +0.145 HD
ATOM     18  H   UNL     1     -10.286  -0.284  -0.788  0.00  0.00    +0.145 HD
ENDBRANCH   9  10
BRANCH   8  19
ATOM     19  C   UNL     1      -6.698  -1.583  -2.716  0.00  0.00    +0.003 A 
ATOM     20  C   UNL     1      -7.758  -2.313  -2.179  0.00  0.00    +0.013 A 
ATOM     21  C   UNL     1      -8.866  -2.587  -2.954  0.00  0.00    +0.039 A 
ATOM     22  C   UNL     1      -8.926  -2.139  -4.264  0.00  0.00    +0.123 A 
ATOM     23  C   UNL     1      -7.875  -1.413  -4.801  0.00  0.00    +0.039 A 
ATOM     24  C   UNL     1      -6.766  -1.129  -4.032  0.00  0.00    +0.013 A 
ATOM     25  F   UNL     1     -10.013  -2.410  -5.019  0.00  0.00    -0.205 F 
ENDBRANCH   8  19
BRANCH   1  27
ATOM     26  C   UNL     1       0.332   1.204   0.370  0.00  0.00    -0.005 C 
ATOM     27  C   UNL     1       0.029  -0.261   0.048  0.00  0.00    -0.046 C 
ATOM     28  C   UNL     1       0.594  -1.153   1.155  0.00  0.00    -0.005 C 
BRANCH  27  29
ATOM     29  N   UNL     1       0.649  -0.619  -1.234  0.00  0.00    +0.382 N 
ATOM     30  C   UNL     1       2.075  -0.268  -1.204  0.00  0.00    -0.095 C 
ATOM     31  C   UNL     1       0.505  -2.063  -1.461  0.00  0.00    -0.095 C 
ATOM     32  H   UNL     1       0.195  -0.114  -1.980  0.00  0.00    -0.081 HD
ENDBRANCH  27  29
ENDBRANCH   1  27
TORSDOF 4
