REMARK  Name = ZINC01282666
REMARK  6 active torsions:
REMARK  status: ('A' for Active; 'I' for Inactive)
REMARK    1  A    between atoms: C_1  and  O_2
REMARK    2  A    between atoms: O_2  and  C_3
REMARK    3  A    between atoms: C_5  and  C_11
REMARK    4  A    between atoms: C_8  and  O_9
REMARK    5  A    between atoms: N_12  and  N_13
REMARK    6  A    between atoms: C_14  and  C_20
REMARK                            x       y       z     vdW  Elec       q    Type
REMARK                         _______ _______ _______ _____ _____    ______ ____
ROOT
ATOM      1  C   UNL     1       3.890   3.639   2.061  0.00  0.00    +0.141 C 
ATOM      2  N   UNL     1       2.608   3.843   2.097  0.00  0.00    -0.171 NA
ENDROOT
BRANCH   1   5
ATOM      3  C   UNL     1       6.676   3.727  -0.455  0.00  0.00    +0.163 A 
ATOM      4  C   UNL     1       5.978   3.496   0.716  0.00  0.00    +0.059 A 
ATOM      5  C   UNL     1       4.641   3.889   0.818  0.00  0.00    -0.001 A 
ATOM      6  C   UNL     1       4.020   4.526  -0.260  0.00  0.00    +0.028 A 
ATOM      7  C   UNL     1       4.725   4.758  -1.423  0.00  0.00    +0.063 A 
ATOM      8  C   UNL     1       6.051   4.362  -1.525  0.00  0.00    +0.173 A 
ATOM      9 BR   UNL     1       3.882   5.620  -2.881  0.00  0.00    -0.046 Br
BRANCH   3  11
ATOM     10  C   UNL     1       8.553   2.694   0.578  0.00  0.00    +0.277 C 
ATOM     11  O   UNL     1       7.976   3.340  -0.559  0.00  0.00    -0.491 OA
ENDBRANCH   3  11
BRANCH   8  12
ATOM     12  O   UNL     1       6.741   4.593  -2.673  0.00  0.00    -0.503 OA
ATOM     13  H   UNL     1       7.200   5.444  -2.692  0.00  0.00    +0.292 HD
ENDBRANCH   8  12
ENDBRANCH   1   5
BRANCH   2  14
ATOM     14  N   UNL     1       1.907   4.104   0.913  0.00  0.00    -0.192 N 
ATOM     15  C   UNL     1       1.629   3.192  -0.077  0.00  0.00    +0.156 A 
ATOM     16  N   UNL     1       0.962   3.783  -1.015  0.00  0.00    -0.156 NA
ATOM     17  N   UNL     1       0.792   5.126  -0.650  0.00  0.00    -0.253 N 
ATOM     18  H   UNL     1       0.330   5.807  -1.163  0.00  0.00    +0.191 HD
ATOM     19  C   UNL     1       1.391   5.295   0.547  0.00  0.00    +0.196 A 
ATOM     20  S   UNL     1       1.475   6.753   1.440  0.00  0.00    -0.010 S 
BRANCH  15  21
ATOM     21  C   UNL     1       2.031   1.739  -0.067  0.00  0.00    +0.059 C 
ATOM     22  C   UNL     1       0.778   0.863  -0.128  0.00  0.00    +0.011 C 
ATOM     23  C   UNL     1       1.185  -0.612  -0.119  0.00  0.00    +0.001 C 
ATOM     24  C   UNL     1       2.071  -0.904  -1.332  0.00  0.00    +0.000 C 
ATOM     25  C   UNL     1       3.324  -0.028  -1.271  0.00  0.00    +0.001 C 
ATOM     26  C   UNL     1       2.917   1.447  -1.280  0.00  0.00    +0.011 C 
ENDBRANCH  15  21
ENDBRANCH   2  14
TORSDOF 5
