REMARK  Name = ZINC09488016
REMARK  11 active torsions:
REMARK  status: ('A' for Active; 'I' for Inactive)
REMARK    1  A    between atoms: C_1  and  C_2
REMARK    2  A    between atoms: C_11  and  O_14
REMARK    3  A    between atoms: C_12  and  C_13
REMARK    4  A    between atoms: O_14  and  C_15
REMARK    5  A    between atoms: C_15  and  C_17
REMARK    6  A    between atoms: C_15  and  C_18
REMARK    7  A    between atoms: N_20  and  C_21
REMARK    8  A    between atoms: C_21  and  C_22
REMARK    9  A    between atoms: C_22  and  C_23
REMARK   10  A    between atoms: C_26  and  S_29
REMARK   11  A    between atoms: S_29  and  N_32
REMARK                            x       y       z     vdW  Elec       q    Type
REMARK                         _______ _______ _______ _____ _____    ______ ____
ROOT
ATOM      1  C   UNL     1      -0.615   1.567  -1.407  0.00  0.00    +0.254 C 
ATOM      2  O   UNL     1      -0.045   2.421  -2.052  0.00  0.00    -0.272 OA
ATOM      3  N   UNL     1      -1.840   1.146  -1.779  0.00  0.00    -0.312 N 
ATOM      4  H   UNL     1      -2.296   0.463  -1.262  0.00  0.00    +0.149 HD
ENDROOT
BRANCH   1   5
ATOM      5  C   UNL     1       0.046   0.976  -0.188  0.00  0.00    +0.255 C 
ATOM      6  C   UNL     1      -0.824   1.238   1.042  0.00  0.00    +0.062 C 
BRANCH   5   7
ATOM      7  O   UNL     1       1.328   1.580  -0.002  0.00  0.00    -0.480 OA
BRANCH   7  18
ATOM      8  C   UNL     1       4.797  -2.712   3.437  0.00  0.00    +0.045 C 
ATOM      9  C   UNL     1       5.141  -1.389   2.803  0.00  0.00    -0.033 A 
ATOM     10  C   UNL     1       6.395  -0.876   2.895  0.00  0.00    +0.096 A 
ATOM     11  C   UNL     1       6.692   0.364   2.293  0.00  0.00    +0.337 A 
ATOM     12  O   UNL     1       7.821   0.812   2.383  0.00  0.00    -0.245 OA
ATOM     13  O   UNL     1       5.762   1.063   1.623  0.00  0.00    -0.422 OA
ATOM     14  C   UNL     1       4.497   0.610   1.494  0.00  0.00    +0.146 A 
ATOM     15  C   UNL     1       4.131  -0.621   2.071  0.00  0.00    +0.021 A 
ATOM     16  C   UNL     1       2.821  -1.095   1.939  0.00  0.00    +0.015 A 
ATOM     17  C   UNL     1       1.898  -0.356   1.256  0.00  0.00    +0.047 A 
ATOM     18  C   UNL     1       2.256   0.861   0.679  0.00  0.00    +0.128 A 
ATOM     19  C   UNL     1       3.548   1.344   0.799  0.00  0.00    +0.034 A 
ATOM     20  C   UNL     1       3.922   2.664   0.175  0.00  0.00    +0.051 C 
ENDBRANCH   7  18
ENDBRANCH   5   7
ENDBRANCH   1   5
BRANCH   3  21
ATOM     21  C   UNL     1      -2.483   1.720  -2.963  0.00  0.00    +0.109 C 
BRANCH  21  22
ATOM     22  C   UNL     1      -3.856   1.073  -3.162  0.00  0.00    +0.054 C 
BRANCH  22  23
ATOM     23  C   UNL     1      -4.517   1.664  -4.381  0.00  0.00    -0.046 A 
ATOM     24  C   UNL     1      -5.324   2.779  -4.257  0.00  0.00    +0.005 A 
ATOM     25  C   UNL     1      -5.928   3.324  -5.375  0.00  0.00    +0.029 A 
ATOM     26  C   UNL     1      -5.731   2.747  -6.616  0.00  0.00    +0.105 A 
ATOM     27  C   UNL     1      -4.929   1.628  -6.739  0.00  0.00    +0.029 A 
ATOM     28  C   UNL     1      -4.322   1.086  -5.622  0.00  0.00    +0.005 A 
BRANCH  26  29
ATOM     29  S   UNL     1      -6.504   3.438  -8.041  0.00  0.00    +0.056 S 
ATOM     30  O   UNL     1      -6.763   4.802  -7.741  0.00  0.00    -0.153 OA
ATOM     31  O   UNL     1      -5.724   3.039  -9.160  0.00  0.00    -0.153 OA
BRANCH  29  32
ATOM     32  N   UNL     1      -7.978   2.701  -8.204  0.00  0.00    -0.204 NA
ATOM     33  H   UNL     1      -8.256   2.025  -7.567  0.00  0.00    +0.144 HD
ATOM     34  H   UNL     1      -8.564   2.946  -8.938  0.00  0.00    +0.144 HD
ENDBRANCH  29  32
ENDBRANCH  26  29
ENDBRANCH  22  23
ENDBRANCH  21  22
ENDBRANCH   3  21
TORSDOF 8
