REMARK  Name = ZINC35746584
REMARK  19 active torsions:
REMARK  status: ('A' for Active; 'I' for Inactive)
REMARK    1  A    between atoms: C_1  and  C_2
REMARK    2  A    between atoms: C_2  and  C_3
REMARK    3  A    between atoms: C_3  and  N_4
REMARK    4  A    between atoms: N_4  and  C_5
REMARK    5  A    between atoms: N_4  and  C_23
REMARK    6  A    between atoms: C_5  and  C_6
REMARK    7  A    between atoms: C_12  and  C_22
REMARK    8  A    between atoms: C_13  and  C_17
REMARK    9  A    between atoms: C_17  and  O_19
REMARK   10  A    between atoms: O_19  and  C_20
REMARK   11  A    between atoms: C_20  and  C_21
REMARK   12  A    between atoms: C_23  and  C_24
REMARK   13  A    between atoms: C_24  and  C_26
REMARK   14  A    between atoms: C_24  and  O_32
REMARK   15  A    between atoms: C_26  and  O_27
REMARK   16  A    between atoms: O_27  and  C_28
REMARK   17  A    between atoms: C_28  and  C_29
REMARK   18  A    between atoms: C_29  and  C_30
REMARK   19  A    between atoms: C_29  and  C_31
REMARK                            x       y       z     vdW  Elec       q    Type
REMARK                         _______ _______ _______ _____ _____    ______ ____
ROOT
ATOM      1  C   UNL     1       1.203  -4.032   0.120  0.00  0.00    +0.094 A 
ATOM      2  N   UNL     1       1.785  -4.743  -0.876  0.00  0.00    -0.312 N 
ATOM      3  H   UNL     1       2.367  -4.289  -1.506  0.00  0.00    +0.170 HD
ATOM      4  C   UNL     1       1.573  -6.067  -1.010  0.00  0.00    +0.260 A 
ATOM      5  O   UNL     1       2.102  -6.696  -1.909  0.00  0.00    -0.267 OA
ATOM      6  C   UNL     1       0.681  -6.736  -0.037  0.00  0.00    +0.076 A 
ATOM      7  C   UNL     1       0.307  -8.079   0.038  0.00  0.00    -0.015 A 
ATOM      8  C   UNL     1      -0.537  -8.495   1.028  0.00  0.00    +0.102 A 
ATOM      9  S   UNL     1      -0.860  -6.988   1.929  0.00  0.00    -0.062 S 
ATOM     10  C   UNL     1       0.135  -5.888   0.954  0.00  0.00    +0.116 A 
ATOM     11  N   UNL     1       0.415  -4.592   0.998  0.00  0.00    -0.229 NA
ATOM     12  C   UNL     1       0.833  -9.068  -0.970  0.00  0.00    +0.046 C 
ENDROOT
BRANCH   8  13
ATOM     13  C   UNL     1      -1.050  -9.842   1.286  0.00  0.00    +0.346 C 
ATOM     14  O   UNL     1      -0.724 -10.765   0.564  0.00  0.00    -0.244 OA
BRANCH  13  15
ATOM     15  O   UNL     1      -1.883 -10.059   2.324  0.00  0.00    -0.461 OA
BRANCH  15  16
ATOM     16  C   UNL     1      -2.345 -11.398   2.517  0.00  0.00    +0.229 C 
ATOM     17  C   UNL     1      -3.273 -11.447   3.732  0.00  0.00    +0.048 C 
ENDBRANCH  15  16
ENDBRANCH  13  15
ENDBRANCH   8  13
BRANCH   1  18
ATOM     18  C   UNL     1       1.477  -2.554   0.222  0.00  0.00    -0.003 C 
BRANCH  18  19
ATOM     19  N   UNL     1       0.877  -2.028   1.455  0.00  0.00    +0.386 N 
ATOM     20  H   UNL     1      -0.097  -2.287   1.492  0.00  0.00    -0.081 HD
BRANCH  19  21
ATOM     21  C   UNL     1       0.996  -0.564   1.472  0.00  0.00    -0.078 C 
BRANCH  21  23
ATOM     22  C   UNL     1       0.166   1.555   0.441  0.00  0.00    +0.002 C 
ATOM     23  C   UNL     1       0.160   0.029   0.336  0.00  0.00    -0.022 C 
ENDBRANCH  21  23
ENDBRANCH  19  21
BRANCH  19  24
ATOM     24  C   UNL     1       1.577  -2.589   2.618  0.00  0.00    -0.044 C 
BRANCH  24  25
ATOM     25  C   UNL     1       0.875  -2.141   3.901  0.00  0.00    +0.124 C 
BRANCH  25  26
ATOM     26  O   UNL     1      -0.440  -2.700   3.945  0.00  0.00    -0.391 OA
ATOM     27  H   UNL     1      -0.457  -3.667   3.934  0.00  0.00    +0.210 HD
ENDBRANCH  25  26
BRANCH  25  28
ATOM     28  C   UNL     1       1.674  -2.621   5.115  0.00  0.00    +0.189 C 
BRANCH  28  29
ATOM     29  O   UNL     1       1.083  -2.104   6.309  0.00  0.00    -0.377 OA
BRANCH  29  30
ATOM     30  C   UNL     1       1.757  -2.496   7.507  0.00  0.00    +0.163 C 
BRANCH  30  31
ATOM     31  C   UNL     1       1.042  -1.889   8.716  0.00  0.00    +0.009 C 
ATOM     32  C   UNL     1       1.686  -2.407  10.003  0.00  0.00    +0.009 C 
ATOM     33  C   UNL     1       1.159  -0.364   8.665  0.00  0.00    +0.009 C 
ENDBRANCH  30  31
ENDBRANCH  29  30
ENDBRANCH  28  29
ENDBRANCH  25  28
ENDBRANCH  24  25
ENDBRANCH  19  24
ENDBRANCH  18  19
ENDBRANCH   1  18
TORSDOF 14
