REMARK  Name = ZINC39469716
REMARK  5 active torsions:
REMARK  status: ('A' for Active; 'I' for Inactive)
REMARK    1  A    between atoms: C_4  and  C_7
REMARK    2  A    between atoms: C_7  and  C_8
REMARK    3  A    between atoms: P_24  and  S_27
REMARK    4  A    between atoms: S_27  and  O_30
REMARK    5  A    between atoms: O_30  and  C_31
REMARK                            x       y       z     vdW  Elec       q    Type
REMARK                         _______ _______ _______ _____ _____    ______ ____
ROOT
ATOM      1  C   UNL     1       4.164  -0.959   1.377  0.00  0.00    -0.012 C 
ATOM      2  C   UNL     1       3.892  -2.122   1.970  0.00  0.00    -0.018 C 
ATOM      3  C   UNL     1       4.370  -2.346   3.378  0.00  0.00    +0.005 C 
ATOM      4  C   UNL     1       4.485  -3.830   3.705  0.00  0.00    -0.046 C 
ATOM      5  N   UNL     1       4.914  -4.000   5.105  0.00  0.00    +0.398 N 
ATOM      6  C   UNL     1       6.214  -3.376   5.346  0.00  0.00    -0.020 C 
ATOM      7  C   UNL     1       6.187  -1.883   4.991  0.00  0.00    -0.002 C 
ATOM      8  C   UNL     1       5.761  -1.718   3.535  0.00  0.00    +0.018 C 
ATOM      9  C   UNL     1       5.686  -0.268   3.144  0.00  0.00    +0.015 C 
ATOM     10  C   UNL     1       4.916   0.077   2.110  0.00  0.00    +0.123 C 
ATOM     11  F   UNL     1       4.823   1.372   1.739  0.00  0.00    -0.206 F 
ATOM     12  C   UNL     1       6.614  -3.465   6.825  0.00  0.00    +0.158 C 
ATOM     13  O   UNL     1       6.734  -4.848   7.204  0.00  0.00    -0.301 OA
ATOM     14  P   UNL     1       5.500  -5.844   6.835  0.00  0.00    +0.431 P 
ATOM     15  O   UNL     1       4.414  -5.705   7.830  0.00  0.00    -0.246 OA
ATOM     16  N   UNL     1       4.984  -5.359   5.326  0.00  0.00    -0.271 NA
ATOM     17  H   UNL     1       4.728  -5.994   4.638  0.00  0.00    +0.113 HD
ATOM     18  H   UNL     1       4.224  -3.594   5.720  0.00  0.00    -0.055 HD
ENDROOT
BRANCH  14  19
ATOM     19  S   UNL     1       6.175  -7.852   6.759  0.00  0.00    +0.209 S 
ATOM     20  O   UNL     1       5.021  -8.662   6.577  0.00  0.00    -0.126 OA
ATOM     21  O   UNL     1       7.274  -7.878   5.859  0.00  0.00    -0.126 OA
BRANCH  19  22
ATOM     22  O   UNL     1       6.731  -8.192   8.134  0.00  0.00    -0.339 OA
BRANCH  22  23
ATOM     23  C   UNL     1       5.778  -8.396   9.082  0.00  0.00    +0.157 A 
ATOM     24  C   UNL     1       5.313  -7.331   9.840  0.00  0.00    +0.048 A 
ATOM     25  C   UNL     1       4.344  -7.541  10.802  0.00  0.00    +0.004 A 
ATOM     26  C   UNL     1       3.838  -8.811  11.009  0.00  0.00    +0.000 A 
ATOM     27  C   UNL     1       4.300  -9.874  10.255  0.00  0.00    +0.004 A 
ATOM     28  C   UNL     1       5.265  -9.668   9.288  0.00  0.00    +0.048 A 
ENDBRANCH  22  23
ENDBRANCH  19  22
ENDBRANCH  14  19
BRANCH   1  29
ATOM     29  C   UNL     1       3.711  -0.707  -0.038  0.00  0.00    +0.072 C 
BRANCH  29  33
ATOM     30  C   UNL     1      -0.017   1.378   0.010  0.00  0.00    +0.000 A 
ATOM     31  C   UNL     1       1.171   2.086   0.002  0.00  0.00    +0.000 A 
ATOM     32  C   UNL     1       2.377   1.411  -0.013  0.00  0.00    +0.004 A 
ATOM     33  C   UNL     1       2.396   0.029  -0.020  0.00  0.00    -0.043 A 
ATOM     34  C   UNL     1       1.208  -0.679  -0.012  0.00  0.00    +0.004 A 
ATOM     35  C   UNL     1       0.002  -0.004   0.002  0.00  0.00    +0.000 A 
ENDBRANCH  29  33
ENDBRANCH   1  29
TORSDOF 5
