REMARK  Name = ZINC09385632
REMARK  12 active torsions:
REMARK  status: ('A' for Active; 'I' for Inactive)
REMARK    1  A    between atoms: C_1  and  C_2
REMARK    2  A    between atoms: C_2  and  N_59
REMARK    3  A    between atoms: C_3  and  C_4
REMARK    4  A    between atoms: C_3  and  N_59
REMARK    5  A    between atoms: C_5  and  C_6
REMARK    6  A    between atoms: C_5  and  N_59
REMARK    7  A    between atoms: C_6  and  N_7
REMARK    8  A    between atoms: C_13  and  N_17
REMARK    9  A    between atoms: C_20  and  C_22
REMARK   10  A    between atoms: C_22  and  C_23
REMARK   11  A    between atoms: C_23  and  S_24
REMARK   12  A    between atoms: S_24  and  C_27
REMARK                            x       y       z     vdW  Elec       q    Type
REMARK                         _______ _______ _______ _____ _____    ______ ____
ROOT
ATOM      1  N   UNL     1       6.043   1.778  -0.043  0.00  0.00    -0.252 N 
ATOM      2  C   UNL     1       4.726   1.347  -0.052  0.00  0.00    +0.168 A 
ATOM      3  N   UNL     1       3.626   2.061  -0.058  0.00  0.00    -0.224 NA
ATOM      4  C   UNL     1       2.397   1.502  -0.065  0.00  0.00    +0.080 A 
ATOM      5  C   UNL     1       1.141   2.152  -0.072  0.00  0.00    +0.031 A 
ATOM      6  C   UNL     1      -0.023   1.428  -0.080  0.00  0.00    +0.035 A 
ATOM      7  C   UNL     1      -0.013   0.041  -0.080  0.00  0.00    +0.127 A 
ATOM      8  C   UNL     1       1.197  -0.628  -0.073  0.00  0.00    +0.050 A 
ATOM      9  C   UNL     1       2.367   0.088  -0.066  0.00  0.00    +0.043 A 
ATOM     10  S   UNL     1       4.095  -0.326  -0.056  0.00  0.00    -0.052 S 
ATOM     11  C   UNL     1       7.047   0.879  -0.037  0.00  0.00    +0.223 C 
ATOM     12  O   UNL     1       6.798  -0.308  -0.040  0.00  0.00    -0.275 OA
ENDROOT
BRANCH   7  13
ATOM     13  N   UNL     1      -1.286  -0.715  -0.087  0.00  0.00    +0.056 N 
ATOM     14  O   UNL     1      -2.348  -0.120  -0.093  0.00  0.00    -0.126 OA
ATOM     15  O   UNL     1      -1.271  -1.933  -0.088  0.00  0.00    -0.126 OA
ENDBRANCH   7  13
BRANCH   1  16
ATOM     16  C   UNL     1       6.343   3.212  -0.041  0.00  0.00    +0.097 C 
BRANCH  16  17
ATOM     17  C   UNL     1       6.439   3.710   1.403  0.00  0.00    -0.059 C 
BRANCH  17  18
ATOM     18  N   UNL     1       6.883   5.120   1.388  0.00  0.00    +0.380 N 
ATOM     19  H   UNL     1       7.628   5.229   0.691  0.00  0.00    -0.082 HD
BRANCH  18  21
ATOM     20  C   UNL     1       6.285   7.418   0.799  0.00  0.00    -0.017 C 
ATOM     21  C   UNL     1       5.753   6.001   1.024  0.00  0.00    -0.082 C 
ENDBRANCH  18  21
BRANCH  18  22
ATOM     22  C   UNL     1       7.410   5.497   2.717  0.00  0.00    -0.082 C 
ATOM     23  C   UNL     1       8.817   4.916   2.869  0.00  0.00    -0.017 C 
ENDBRANCH  18  22
ENDBRANCH  17  18
ENDBRANCH  16  17
ENDBRANCH   1  16
BRANCH  11  24
ATOM     24  C   UNL     1       8.479   1.349  -0.028  0.00  0.00    +0.119 C 
BRANCH  24  25
ATOM     25  C   UNL     1       9.413   0.137  -0.023  0.00  0.00    +0.181 C 
BRANCH  25  26
ATOM     26  S   UNL     1      11.136   0.702  -0.012  0.00  0.00    -0.003 S 
ATOM     27  O   UNL     1      11.452   1.335  -1.244  0.00  0.00    -0.169 OA
ATOM     28  O   UNL     1      11.436   1.334   1.225  0.00  0.00    -0.169 OA
BRANCH  26  29
ATOM     29  C   UNL     1      12.097  -0.775  -0.007  0.00  0.00    +0.088 A 
ATOM     30  C   UNL     1      12.471  -1.351   1.193  0.00  0.00    +0.030 A 
ATOM     31  C   UNL     1      13.221  -2.512   1.198  0.00  0.00    +0.040 A 
ATOM     32  C   UNL     1      13.606  -3.092   0.002  0.00  0.00    +0.124 A 
ATOM     33  C   UNL     1      13.235  -2.511  -1.199  0.00  0.00    +0.040 A 
ATOM     34  C   UNL     1      12.481  -1.353  -1.202  0.00  0.00    +0.030 A 
ATOM     35  F   UNL     1      14.343  -4.225   0.006  0.00  0.00    -0.205 F 
ENDBRANCH  26  29
ENDBRANCH  25  26
ENDBRANCH  24  25
ENDBRANCH  11  24
TORSDOF 10
