REMARK  Name = ZINC12497976
REMARK  12 active torsions:
REMARK  status: ('A' for Active; 'I' for Inactive)
REMARK    1  A    between atoms: C_1  and  C_2
REMARK    2  A    between atoms: C_2  and  C_3
REMARK    3  A    between atoms: C_3  and  C_4
REMARK    4  A    between atoms: C_4  and  C_35
REMARK    5  A    between atoms: C_9  and  C_11
REMARK    6  A    between atoms: C_14  and  N_17
REMARK    7  A    between atoms: N_17  and  C_18
REMARK    8  A    between atoms: N_17  and  C_19
REMARK    9  A    between atoms: N_22  and  C_25
REMARK   10  A    between atoms: C_35  and  O_37
REMARK   11  A    between atoms: O_37  and  C_38
REMARK   12  A    between atoms: C_38  and  C_39
REMARK                            x       y       z     vdW  Elec       q    Type
REMARK                         _______ _______ _______ _____ _____    ______ ____
ROOT
ATOM      1  C   UNL     1       2.244  -1.522  -0.070  0.00  0.00    +0.044 C 
ATOM      2  C   UNL     1       1.370  -0.358  -0.367  0.00  0.00    +0.086 C 
ATOM      3  C   UNL     1       2.148   0.802   0.372  0.00  0.00    +0.077 C 
ATOM      4  C   UNL     1       3.518   0.531  -0.203  0.00  0.00    -0.027 C 
ATOM      5  C   UNL     1       1.242   1.911   0.001  0.00  0.00    +0.229 C 
ATOM      6  O   UNL     1       1.547   3.056  -0.256  0.00  0.00    -0.275 OA
ATOM      7  N   UNL     1      -0.017   1.368   0.010  0.00  0.00    -0.210 N 
ATOM      8  C   UNL     1       0.002  -0.004   0.002  0.00  0.00    +0.229 C 
ATOM      9  O   UNL     1      -0.916  -0.757   0.247  0.00  0.00    -0.275 OA
ATOM     10  N   UNL     1       3.622  -0.953  -0.073  0.00  0.00    +0.395 N 
ATOM     11  H   UNL     1       4.153  -1.335  -0.865  0.00  0.00    -0.083 HD
ATOM     12  H   UNL     1       4.098  -1.192   0.805  0.00  0.00    -0.083 HD
ENDROOT
BRANCH   7  13
ATOM     13  C   UNL     1      -1.194   2.131   0.019  0.00  0.00    +0.048 A 
ATOM     14  C   UNL     1      -2.430   1.500   0.016  0.00  0.00    +0.028 A 
ATOM     15  C   UNL     1      -3.590   2.251   0.030  0.00  0.00    +0.051 A 
ATOM     16  C   UNL     1      -3.523   3.636   0.036  0.00  0.00    +0.162 A 
ATOM     17  C   UNL     1      -2.287   4.271   0.036  0.00  0.00    +0.164 A 
ATOM     18  C   UNL     1      -1.123   3.517   0.027  0.00  0.00    +0.073 A 
ATOM     19  O   UNL     1      -2.201   5.629   0.051  0.00  0.00    -0.485 OA
ATOM     20  C   UNL     1      -3.381   6.353  -0.314  0.00  0.00    +0.270 C 
ATOM     21  C   UNL     1      -4.574   5.734   0.428  0.00  0.00    +0.270 C 
ATOM     22  O   UNL     1      -4.677   4.359   0.041  0.00  0.00    -0.485 OA
ENDBRANCH   7  13
BRANCH   4  23
ATOM     23  C   UNL     1       4.585   1.225   0.604  0.00  0.00    -0.060 A 
ATOM     24  C   UNL     1       5.023   0.668   1.791  0.00  0.00    +0.004 A 
ATOM     25  C   UNL     1       6.004   1.298   2.531  0.00  0.00    +0.023 A 
ATOM     26  C   UNL     1       6.543   2.499   2.087  0.00  0.00    +0.029 A 
ATOM     27  C   UNL     1       6.096   3.059   0.897  0.00  0.00    +0.023 A 
ATOM     28  C   UNL     1       5.119   2.421   0.159  0.00  0.00    +0.004 A 
BRANCH  26  29
ATOM     29  N   UNL     1       7.531   3.142   2.836  0.00  0.00    -0.336 N 
ATOM     30  C   UNL     1       8.098   4.409   2.366  0.00  0.00    +0.129 C 
ATOM     31  C   UNL     1       8.001   2.550   4.091  0.00  0.00    +0.129 C 
ENDBRANCH  26  29
ENDBRANCH   4  23
BRANCH   1  32
ATOM     32  C   UNL     1       2.100  -2.574  -1.139  0.00  0.00    +0.297 C 
ATOM     33  O   UNL     1       1.085  -2.638  -1.791  0.00  0.00    -0.252 OA
BRANCH  32  34
ATOM     34  O   UNL     1       3.099  -3.441  -1.366  0.00  0.00    -0.466 OA
BRANCH  34  35
ATOM     35  C   UNL     1       2.891  -4.428  -2.410  0.00  0.00    +0.228 C 
ATOM     36  C   UNL     1       4.128  -5.321  -2.522  0.00  0.00    +0.048 C 
ENDBRANCH  34  35
ENDBRANCH  32  34
ENDBRANCH   1  32
BRANCH   1  37
ATOM     37  C   UNL     1       1.906  -2.105   1.304  0.00  0.00    -0.001 C 
BRANCH  37  39
ATOM     38  C   UNL     1       2.560  -3.803   3.016  0.00  0.00    +0.004 C 
ATOM     39  C   UNL     1       2.897  -3.220   1.642  0.00  0.00    -0.004 C 
ENDBRANCH  37  39
ENDBRANCH   1  37
TORSDOF 8
