REMARK  Name = ZINC35624655
REMARK  7 active torsions:
REMARK  status: ('A' for Active; 'I' for Inactive)
REMARK    1  A    between atoms: C_4  and  O_30
REMARK    2  A    between atoms: C_5  and  C_7
REMARK    3  A    between atoms: N_9  and  N_10
REMARK    4  A    between atoms: C_11  and  C_13
REMARK    5  A    between atoms: C_13  and  C_14
REMARK    6  A    between atoms: C_14  and  N_15
REMARK    7  A    between atoms: C_19  and  C_20
REMARK                            x       y       z     vdW  Elec       q    Type
REMARK                         _______ _______ _______ _____ _____    ______ ____
ROOT
ATOM      1  C   UNL     1      -1.979  -6.243  -0.149  0.00  0.00    +0.116 C 
ENDROOT
BRANCH   1   3
ATOM      2  N   UNL     1      -1.410  -3.838  -0.259  0.00  0.00    -0.234 N 
ATOM      3  C   UNL     1      -2.359  -4.785  -0.118  0.00  0.00    +0.231 C 
ATOM      4  O   UNL     1      -3.519  -4.464   0.034  0.00  0.00    -0.274 OA
ATOM      5  H   UNL     1      -0.483  -4.095  -0.380  0.00  0.00    +0.173 HD
BRANCH   2   8
ATOM      6  C   UNL     1      -0.815  -1.536  -0.370  0.00  0.00    +0.264 C 
ATOM      7  O   UNL     1       0.347  -1.857  -0.522  0.00  0.00    -0.269 OA
ATOM      8  N   UNL     1      -1.764  -2.482  -0.230  0.00  0.00    -0.230 N 
ATOM      9  H   UNL     1      -2.692  -2.226  -0.108  0.00  0.00    +0.173 HD
BRANCH   6  14
ATOM     10  C   UNL     1      -2.864   1.601  -0.139  0.00  0.00    +0.001 A 
ATOM     11  C   UNL     1      -1.889   2.575  -0.284  0.00  0.00    +0.004 A 
ATOM     12  C   UNL     1      -0.566   2.219  -0.456  0.00  0.00    +0.046 A 
ATOM     13  C   UNL     1      -0.205   0.880  -0.486  0.00  0.00    +0.129 A 
ATOM     14  C   UNL     1      -1.188  -0.108  -0.340  0.00  0.00    +0.079 A 
ATOM     15  C   UNL     1      -2.522   0.266  -0.166  0.00  0.00    +0.017 A 
BRANCH  13  16
ATOM     16  O   UNL     1       1.095   0.528  -0.656  0.00  0.00    -0.506 OA
ATOM     17  H   UNL     1       1.589   0.439   0.170  0.00  0.00    +0.292 HD
ENDBRANCH  13  16
ENDBRANCH   6  14
ENDBRANCH   2   8
ENDBRANCH   1   3
BRANCH   1  18
ATOM     18  C   UNL     1      -3.232  -7.101   0.032  0.00  0.00    +0.124 C 
BRANCH  18  19
ATOM     19  N   UNL     1      -2.863  -8.518   0.002  0.00  0.00    -0.255 N 
ATOM     20  C   UNL     1      -2.849  -9.158  -1.156  0.00  0.00    +0.258 C 
ATOM     21  O   UNL     1      -3.135  -8.599  -2.199  0.00  0.00    -0.269 OA
ATOM     22  C   UNL     1      -2.467 -10.585  -1.118  0.00  0.00    +0.077 C 
ATOM     23  C   UNL     1      -2.367 -11.481  -2.132  0.00  0.00    +0.028 C 
ATOM     24  S   UNL     1      -2.175 -10.807   0.631  0.00  0.00    -0.061 S 
ATOM     25  C   UNL     1      -2.539  -9.139   1.154  0.00  0.00    +0.121 C 
ATOM     26  S   UNL     1      -2.491  -8.486   2.736  0.00  0.00    -0.027 S 
BRANCH  23  27
ATOM     27  C   UNL     1      -2.494 -11.031  -3.525  0.00  0.00    -0.023 A 
ATOM     28  C   UNL     1      -1.919  -9.820  -3.929  0.00  0.00    +0.008 A 
ATOM     29  C   UNL     1      -2.042  -9.405  -5.237  0.00  0.00    +0.002 A 
ATOM     30  C   UNL     1      -2.733 -10.181  -6.152  0.00  0.00    +0.015 A 
ATOM     31  C   UNL     1      -3.306 -11.380  -5.761  0.00  0.00    +0.018 A 
ATOM     32  C   UNL     1      -3.186 -11.812  -4.457  0.00  0.00    +0.023 A 
ATOM     33 BR   UNL     1      -4.248 -12.430  -7.021  0.00  0.00    -0.050 Br
ENDBRANCH  23  27
ENDBRANCH  18  19
ENDBRANCH   1  18
TORSDOF 7
