REMARK  Name = ZINC39688035
REMARK  7 active torsions:
REMARK  status: ('A' for Active; 'I' for Inactive)
REMARK    1  A    between atoms: C_1  and  C_2
REMARK    2  A    between atoms: C_7  and  N_10
REMARK    3  A    between atoms: C_11  and  C_13
REMARK    4  A    between atoms: C_24  and  C_26
REMARK    5  A    between atoms: C_26  and  C_27
REMARK    6  A    between atoms: C_27  and  C_28
REMARK    7  A    between atoms: C_28  and  C_29
REMARK                            x       y       z     vdW  Elec       q    Type
REMARK                         _______ _______ _______ _____ _____    ______ ____
ROOT
ATOM      1  C   UNL     1       3.165  -4.072  -5.856  0.00  0.00    +0.100 C 
ATOM      2  C   UNL     1       4.460  -4.233  -5.028  0.00  0.00    +0.121 C 
ATOM      3  N   UNL     1       4.480  -5.662  -4.638  0.00  0.00    -0.300 N 
ATOM      4  C   UNL     1       3.987  -6.379  -5.839  0.00  0.00    +0.115 C 
ATOM      5  C   UNL     1       2.860  -5.482  -6.389  0.00  0.00    -0.004 C 
ATOM      6  C   UNL     1       2.879  -5.486  -7.915  0.00  0.00    -0.010 C 
ATOM      7  C   UNL     1       2.516  -6.884  -8.422  0.00  0.00    -0.082 C 
ATOM      8  N   UNL     1       1.184  -7.255  -7.929  0.00  0.00    +0.379 N 
ATOM      9  C   UNL     1       1.199  -7.340  -6.463  0.00  0.00    -0.082 C 
ATOM     10  C   UNL     1       1.506  -5.961  -5.873  0.00  0.00    -0.010 C 
ATOM     11  C   UNL     1       4.862  -6.191  -3.459  0.00  0.00    +0.216 C 
ATOM     12  O   UNL     1       4.822  -7.392  -3.292  0.00  0.00    -0.276 OA
ATOM     13  H   UNL     1       0.514  -6.558  -8.217  0.00  0.00    -0.086 HD
ATOM     14  H   UNL     1       0.921  -8.150  -8.314  0.00  0.00    -0.086 HD
ENDROOT
BRANCH   1  16
ATOM     15  N   UNL     1       1.038  -2.858  -5.510  0.00  0.00    -0.312 N 
ATOM     16  C   UNL     1       2.038  -3.588  -4.979  0.00  0.00    +0.218 C 
ATOM     17  O   UNL     1       2.033  -3.855  -3.796  0.00  0.00    -0.275 OA
ATOM     18  H   UNL     1       1.043  -2.644  -6.456  0.00  0.00    +0.149 HD
BRANCH  15  25
ATOM     19  C   UNL     1      -4.020   0.684  -4.680  0.00  0.00    +0.109 C 
ATOM     20  C   UNL     1      -2.748   0.617  -3.875  0.00  0.00    +0.212 C 
ATOM     21  O   UNL     1      -2.376   1.585  -3.247  0.00  0.00    -0.276 OA
ATOM     22  N   UNL     1      -2.023  -0.520  -3.853  0.00  0.00    -0.302 N 
ATOM     23  C   UNL     1      -2.458  -1.699  -4.614  0.00  0.00    +0.109 C 
ATOM     24  C   UNL     1      -1.306  -2.159  -5.513  0.00  0.00    +0.041 C 
ATOM     25  C   UNL     1      -0.057  -2.387  -4.658  0.00  0.00    +0.076 C 
ATOM     26  C   UNL     1       0.349  -1.074  -3.985  0.00  0.00    +0.041 C 
ATOM     27  C   UNL     1      -0.781  -0.601  -3.074  0.00  0.00    +0.109 C 
ENDBRANCH  15  25
ENDBRANCH   1  16
BRANCH  11  28
ATOM     28  C   UNL     1       5.338  -5.292  -2.348  0.00  0.00    +0.096 C 
BRANCH  28  29
ATOM     29  C   UNL     1       5.708  -6.138  -1.129  0.00  0.00    +0.014 C 
BRANCH  29  30
ATOM     30  C   UNL     1       6.192  -5.225  -0.001  0.00  0.00    +0.035 C 
BRANCH  30  31
ATOM     31  C   UNL     1       6.556  -6.059   1.200  0.00  0.00    -0.047 A 
ATOM     32  C   UNL     1       5.599  -6.352   2.154  0.00  0.00    +0.003 A 
ATOM     33  C   UNL     1       5.933  -7.117   3.256  0.00  0.00    +0.000 A 
ATOM     34  C   UNL     1       7.224  -7.590   3.404  0.00  0.00    +0.000 A 
ATOM     35  C   UNL     1       8.180  -7.297   2.450  0.00  0.00    +0.000 A 
ATOM     36  C   UNL     1       7.845  -6.535   1.346  0.00  0.00    +0.003 A 
ENDBRANCH  30  31
ENDBRANCH  29  30
ENDBRANCH  28  29
ENDBRANCH  11  28
TORSDOF 6
