REMARK  Name = ZINC06440954
REMARK  5 active torsions:
REMARK  status: ('A' for Active; 'I' for Inactive)
REMARK    1  A    between atoms: C_1  and  O_2
REMARK    2  A    between atoms: O_2  and  C_3
REMARK    3  A    between atoms: C_3  and  C_5
REMARK    4  A    between atoms: C_9  and  N_10
REMARK    5  A    between atoms: C_11  and  C_13
REMARK                            x       y       z     vdW  Elec       q    Type
REMARK                         _______ _______ _______ _____ _____    ______ ____
ROOT
ATOM      1  C   UNL     1       1.356  -0.301  -0.012  0.00  0.00    +0.091 A 
ATOM      2  C   UNL     1       2.294   0.821  -0.014  0.00  0.00    -0.021 A 
ATOM      3  C   UNL     1       1.727   2.041  -0.004  0.00  0.00    -0.004 A 
ATOM      4  S   UNL     1      -0.021   1.726   0.011  0.00  0.00    -0.077 S 
ATOM      5  C   UNL     1       0.002  -0.004   0.002  0.00  0.00    +0.087 A 
ATOM      6  C   UNL     1       2.753   3.141  -0.011  0.00  0.00    +0.043 C 
ATOM      7  C   UNL     1       4.060   2.451  -0.461  0.00  0.00    +0.010 C 
ATOM      8  C   UNL     1       3.814   0.994  -0.022  0.00  0.00    +0.037 C 
ENDROOT
BRANCH   5   9
ATOM      9  N   UNL     1      -1.071  -0.879   0.007  0.00  0.00    -0.275 N 
ATOM     10  C   UNL     1      -2.331  -0.401   0.022  0.00  0.00    +0.249 C 
ATOM     11  O   UNL     1      -2.525   0.799   0.030  0.00  0.00    -0.270 OA
ATOM     12  H   UNL     1      -0.916  -1.837   0.000  0.00  0.00    +0.156 HD
BRANCH  10  13
ATOM     13  C   UNL     1      -3.476  -1.335   0.027  0.00  0.00    +0.040 A 
ATOM     14  C   UNL     1      -3.256  -2.714   0.011  0.00  0.00    +0.033 A 
ATOM     15  C   UNL     1      -4.330  -3.581   0.021  0.00  0.00    +0.043 A 
ATOM     16  C   UNL     1      -5.623  -3.087   0.036  0.00  0.00    +0.040 A 
ATOM     17  C   UNL     1      -5.848  -1.721   0.047  0.00  0.00    +0.043 A 
ATOM     18  C   UNL     1      -4.782  -0.843   0.042  0.00  0.00    +0.033 A 
ATOM     19 CL   UNL     1      -7.473  -1.110   0.066  0.00  0.00    -0.083 Cl
ATOM     20 CL   UNL     1      -4.059  -5.296   0.007  0.00  0.00    -0.083 Cl
ENDBRANCH  10  13
ENDBRANCH   5   9
BRANCH   1  21
ATOM     21  C   UNL     1       1.829  -1.686  -0.025  0.00  0.00    +0.342 C 
ATOM     22  O   UNL     1       2.016  -2.256  -1.084  0.00  0.00    -0.245 OA
BRANCH  21  24
ATOM     23  C   UNL     1       2.526  -3.703   1.049  0.00  0.00    +0.280 C 
ATOM     24  O   UNL     1       2.058  -2.332   1.137  0.00  0.00    -0.464 OA
ENDBRANCH  21  24
ENDBRANCH   1  21
TORSDOF 4
