REMARK  Name = ZINC39638552
REMARK  9 active torsions:
REMARK  status: ('A' for Active; 'I' for Inactive)
REMARK    1  A    between atoms: C_1  and  C_2
REMARK    2  A    between atoms: C_2  and  O_3
REMARK    3  A    between atoms: O_3  and  C_4
REMARK    4  A    between atoms: C_9  and  C_10
REMARK    5  A    between atoms: C_10  and  N_11
REMARK    6  A    between atoms: C_12  and  C_14
REMARK    7  A    between atoms: C_25  and  C_27
REMARK    8  A    between atoms: C_31  and  O_33
REMARK    9  A    between atoms: O_33  and  C_34
REMARK                            x       y       z     vdW  Elec       q    Type
REMARK                         _______ _______ _______ _____ _____    ______ ____
ROOT
ATOM      1  C   UNL     1      -5.450   0.420  -3.624  0.00  0.00    +0.100 C 
ATOM      2  C   UNL     1      -5.730  -0.947  -4.288  0.00  0.00    +0.121 C 
ATOM      3  N   UNL     1      -7.205  -1.085  -4.253  0.00  0.00    -0.296 N 
ATOM      4  C   UNL     1      -7.710   0.275  -4.556  0.00  0.00    +0.115 C 
ATOM      5  C   UNL     1      -6.750   1.220  -3.805  0.00  0.00    -0.004 C 
ATOM      6  C   UNL     1      -6.488   2.474  -4.634  0.00  0.00    -0.010 C 
ATOM      7  C   UNL     1      -7.783   3.283  -4.751  0.00  0.00    -0.082 C 
ATOM      8  N   UNL     1      -8.256   3.649  -3.410  0.00  0.00    +0.379 N 
ATOM      9  C   UNL     1      -8.595   2.438  -2.652  0.00  0.00    -0.082 C 
ATOM     10  C   UNL     1      -7.334   1.593  -2.446  0.00  0.00    -0.010 C 
ATOM     11  C   UNL     1      -7.924  -2.197  -4.003  0.00  0.00    +0.247 C 
ATOM     12  O   UNL     1      -7.365  -3.216  -3.647  0.00  0.00    -0.270 OA
ATOM     13  H   UNL     1      -7.531   4.156  -2.926  0.00  0.00    -0.086 HD
ATOM     14  H   UNL     1      -9.075   4.233  -3.492  0.00  0.00    -0.086 HD
ENDROOT
BRANCH  11  15
ATOM     15  C   UNL     1      -9.394  -2.178  -4.163  0.00  0.00    +0.040 A 
ATOM     16  C   UNL     1      -9.999  -1.205  -4.962  0.00  0.00    +0.013 A 
ATOM     17  C   UNL     1     -11.371  -1.190  -5.108  0.00  0.00    +0.004 A 
ATOM     18  C   UNL     1     -12.150  -2.135  -4.466  0.00  0.00    +0.045 A 
ATOM     19  C   UNL     1     -11.557  -3.106  -3.670  0.00  0.00    +0.121 A 
ATOM     20  C   UNL     1     -10.181  -3.134  -3.521  0.00  0.00    +0.058 A 
BRANCH  19  21
ATOM     21  O   UNL     1     -12.328  -4.032  -3.041  0.00  0.00    -0.495 OA
ATOM     22  C   UNL     1     -13.740  -3.946  -3.244  0.00  0.00    +0.277 C 
ENDBRANCH  19  21
ENDBRANCH  11  15
BRANCH   1  24
ATOM     23  N   UNL     1      -4.418   1.165  -1.503  0.00  0.00    -0.311 N 
ATOM     24  C   UNL     1      -5.144   0.239  -2.160  0.00  0.00    +0.218 C 
ATOM     25  O   UNL     1      -5.552  -0.741  -1.572  0.00  0.00    -0.275 OA
ATOM     26  H   UNL     1      -4.092   1.948  -1.974  0.00  0.00    +0.149 HD
BRANCH  23  27
ATOM     27  C   UNL     1      -4.121   0.989  -0.080  0.00  0.00    +0.143 C 
BRANCH  27  33
ATOM     28  C   UNL     1      -3.921   3.356   0.724  0.00  0.00    +0.125 A 
ATOM     29  C   UNL     1      -3.165   4.426   1.180  0.00  0.00    +0.046 A 
ATOM     30  C   UNL     1      -1.796   4.295   1.315  0.00  0.00    +0.004 A 
ATOM     31  C   UNL     1      -1.181   3.098   0.998  0.00  0.00    +0.001 A 
ATOM     32  C   UNL     1      -1.932   2.031   0.543  0.00  0.00    +0.009 A 
ATOM     33  C   UNL     1      -3.302   2.155   0.410  0.00  0.00    +0.011 A 
BRANCH  28  34
ATOM     34  O   UNL     1      -5.268   3.483   0.590  0.00  0.00    -0.492 OA
BRANCH  34  36
ATOM     35  C   UNL     1      -7.352   4.700   0.717  0.00  0.00    +0.048 C 
ATOM     36  C   UNL     1      -5.837   4.748   0.930  0.00  0.00    +0.225 C 
ENDBRANCH  34  36
ENDBRANCH  28  34
ENDBRANCH  27  33
ENDBRANCH  23  27
ENDBRANCH   1  24
TORSDOF 7
