REMARK  Name = ZINC45681908
REMARK  11 active torsions:
REMARK  status: ('A' for Active; 'I' for Inactive)
REMARK    1  A    between atoms: C_1  and  C_2
REMARK    2  A    between atoms: C_2  and  O_3
REMARK    3  A    between atoms: O_3  and  C_4
REMARK    4  A    between atoms: C_4  and  C_6
REMARK    5  A    between atoms: C_7  and  C_21
REMARK    6  A    between atoms: C_12  and  C_14
REMARK    7  A    between atoms: C_21  and  N_22
REMARK    8  A    between atoms: N_25  and  C_28
REMARK    9  A    between atoms: C_28  and  C_30
REMARK   10  A    between atoms: C_28  and  C_31
REMARK   11  A    between atoms: N_33  and  C_34
REMARK                            x       y       z     vdW  Elec       q    Type
REMARK                         _______ _______ _______ _____ _____    ______ ____
ROOT
ATOM      1  C   UNL     1      -4.671  -4.462  -0.649  0.00  0.00    +0.079 C 
ATOM      2  C   UNL     1      -4.720  -5.745  -0.231  0.00  0.00    +0.038 C 
ATOM      3  N   UNL     1      -5.848  -6.256   0.346  0.00  0.00    -0.271 N 
ATOM      4  C   UNL     1      -6.967  -5.548   0.542  0.00  0.00    +0.304 C 
ATOM      5  O   UNL     1      -7.921  -6.090   1.065  0.00  0.00    -0.252 OA
ATOM      6  N   UNL     1      -7.071  -4.255   0.178  0.00  0.00    -0.288 N 
ATOM      7  C   UNL     1      -5.906  -3.607  -0.449  0.00  0.00    +0.144 C 
ATOM      8  H   UNL     1      -5.837  -7.183   0.630  0.00  0.00    +0.156 HD
ATOM      9  H   UNL     1      -7.892  -3.761   0.329  0.00  0.00    +0.151 HD
ENDROOT
BRANCH   7  10
ATOM     10  C   UNL     1      -5.518  -2.420   0.395  0.00  0.00    -0.022 A 
ATOM     11  C   UNL     1      -5.402  -2.555   1.766  0.00  0.00    +0.007 A 
ATOM     12  C   UNL     1      -5.046  -1.467   2.540  0.00  0.00    +0.020 A 
ATOM     13  C   UNL     1      -4.807  -0.242   1.943  0.00  0.00    +0.041 A 
ATOM     14  C   UNL     1      -4.923  -0.108   0.571  0.00  0.00    +0.020 A 
ATOM     15  C   UNL     1      -5.274  -1.198  -0.203  0.00  0.00    +0.007 A 
ATOM     16 CL   UNL     1      -4.360   1.125   2.914  0.00  0.00    -0.084 Cl
ENDBRANCH   7  10
BRANCH   1  17
ATOM     17  C   UNL     1      -3.504  -3.932  -1.247  0.00  0.00    +0.339 C 
ATOM     18  O   UNL     1      -2.732  -3.263  -0.586  0.00  0.00    -0.245 OA
BRANCH  17  19
ATOM     19  O   UNL     1      -3.247  -4.168  -2.550  0.00  0.00    -0.462 OA
BRANCH  19  21
ATOM     20  C   UNL     1      -1.930  -3.975  -4.567  0.00  0.00    +0.048 C 
ATOM     21  C   UNL     1      -2.050  -3.602  -3.088  0.00  0.00    +0.229 C 
ENDBRANCH  19  21
ENDBRANCH  17  19
ENDBRANCH   1  17
BRANCH   2  22
ATOM     22  C   UNL     1      -3.512  -6.629  -0.406  0.00  0.00    +0.135 C 
BRANCH  22  23
ATOM     23  N   UNL     1      -3.025  -7.059   0.911  0.00  0.00    -0.300 NA
ATOM     24  C   UNL     1      -2.509  -5.918   1.680  0.00  0.00    +0.066 C 
ATOM     25  C   UNL     1      -2.067  -6.397   3.065  0.00  0.00    -0.062 C 
ATOM     26  N   UNL     1      -1.026  -7.423   2.919  0.00  0.00    +0.389 N 
ATOM     27  C   UNL     1      -1.564  -8.566   2.170  0.00  0.00    -0.062 C 
ATOM     28  C   UNL     1      -2.001  -8.105   0.778  0.00  0.00    +0.066 C 
ATOM     29  H   UNL     1      -0.239  -7.035   2.420  0.00  0.00    -0.081 HD
BRANCH  26  30
ATOM     30  C   UNL     1      -0.590  -7.870   4.248  0.00  0.00    +0.016 C 
ATOM     31  C   UNL     1      -0.115  -6.664   5.062  0.00  0.00    -0.004 C 
BRANCH  30  32
ATOM     32  C   UNL     1       0.542  -8.854   4.101  0.00  0.00    +0.199 C 
ATOM     33  O   UNL     1       1.246  -8.825   3.115  0.00  0.00    -0.278 OA
ATOM     34  N   UNL     1       0.772  -9.766   5.066  0.00  0.00    -0.314 N 
ATOM     35  H   UNL     1       0.208  -9.790   5.856  0.00  0.00    +0.149 HD
BRANCH  34  36
ATOM     36  C   UNL     1       1.872 -10.723   4.923  0.00  0.00    +0.073 C 
ATOM     37  C   UNL     1       1.593 -12.181   5.293  0.00  0.00    +0.024 C 
ATOM     38  C   UNL     1       2.465 -11.314   6.204  0.00  0.00    +0.024 C 
ENDBRANCH  34  36
ENDBRANCH  30  32
ENDBRANCH  26  30
ENDBRANCH  22  23
ENDBRANCH   2  22
TORSDOF 9
