REMARK  Name = ZINC38732205
REMARK  5 active torsions:
REMARK  status: ('A' for Active; 'I' for Inactive)
REMARK    1  A    between atoms: C_4  and  C_7
REMARK    2  A    between atoms: C_7  and  C_9
REMARK    3  A    between atoms: C_7  and  N_16
REMARK    4  A    between atoms: C_17  and  C_19
REMARK    5  A    between atoms: C_25  and  C_27
REMARK                            x       y       z     vdW  Elec       q    Type
REMARK                         _______ _______ _______ _____ _____    ______ ____
ROOT
ATOM      1  C   UNL     1       3.562  -3.138  -3.354  0.00  0.00    +0.087 C 
ATOM      2  C   UNL     1       4.596  -4.193  -2.958  0.00  0.00    +0.013 C 
ATOM      3  C   UNL     1       5.948  -3.517  -2.720  0.00  0.00    +0.001 C 
ATOM      4  C   UNL     1       6.401  -2.816  -4.002  0.00  0.00    +0.001 C 
ATOM      5  C   UNL     1       5.366  -1.761  -4.399  0.00  0.00    +0.013 C 
ATOM      6  C   UNL     1       4.014  -2.437  -4.637  0.00  0.00    +0.087 C 
ENDROOT
BRANCH   6   7
ATOM      7  C   UNL     1       2.995  -1.397  -5.027  0.00  0.00    +0.219 C 
ATOM      8  O   UNL     1       3.174  -0.234  -4.736  0.00  0.00    -0.275 OA
ATOM      9  N   UNL     1       1.885  -1.761  -5.700  0.00  0.00    -0.298 N 
ATOM     10  C   UNL     1       1.599  -3.179  -5.959  0.00  0.00    +0.126 C 
ATOM     11  C   UNL     1       0.205  -3.507  -5.410  0.00  0.00    +0.125 C 
ATOM     12  N   UNL     1      -0.741  -2.493  -5.896  0.00  0.00    -0.314 N 
ATOM     13  C   UNL     1      -0.455  -1.075  -5.637  0.00  0.00    +0.125 C 
ATOM     14  C   UNL     1       0.936  -0.748  -6.181  0.00  0.00    +0.126 C 
ATOM     15  C   UNL     1      -1.886  -2.868  -6.590  0.00  0.00    +0.099 A 
ATOM     16  C   UNL     1      -2.211  -4.216  -6.706  0.00  0.00    +0.042 A 
ATOM     17  C   UNL     1      -3.353  -4.575  -7.399  0.00  0.00    +0.005 A 
ATOM     18  C   UNL     1      -4.135  -3.571  -7.954  0.00  0.00    +0.018 A 
ATOM     19  C   UNL     1      -3.753  -2.253  -7.800  0.00  0.00    +0.084 A 
ATOM     20  N   UNL     1      -2.660  -1.939  -7.129  0.00  0.00    -0.350 N 
ATOM     21  H   UNL     1      -2.417  -1.006  -7.032  0.00  0.00    +0.166 HD
ENDBRANCH   6   7
BRANCH   1  23
ATOM     22  N   UNL     1       3.040  -2.515  -1.018  0.00  0.00    -0.304 N 
ATOM     23  C   UNL     1       3.429  -2.124  -2.247  0.00  0.00    +0.218 C 
ATOM     24  O   UNL     1       3.672  -0.955  -2.463  0.00  0.00    -0.275 OA
ATOM     25  H   UNL     1       2.845  -3.450  -0.845  0.00  0.00    +0.150 HD
BRANCH  22  26
ATOM     26  C   UNL     1       2.910  -1.530   0.058  0.00  0.00    +0.134 C 
BRANCH  26  27
ATOM     27  C   UNL     1       3.076  -2.215   1.390  0.00  0.00    -0.023 A 
ATOM     28  C   UNL     1       2.520  -3.463   1.599  0.00  0.00    +0.007 A 
ATOM     29  C   UNL     1       2.672  -4.093   2.820  0.00  0.00    +0.020 A 
ATOM     30  C   UNL     1       3.380  -3.473   3.834  0.00  0.00    +0.041 A 
ATOM     31  C   UNL     1       3.936  -2.223   3.624  0.00  0.00    +0.020 A 
ATOM     32  C   UNL     1       3.789  -1.597   2.401  0.00  0.00    +0.007 A 
ATOM     33 CL   UNL     1       3.570  -4.262   5.368  0.00  0.00    -0.084 Cl
ENDBRANCH  26  27
BRANCH  26  37
ATOM     34  C   UNL     1      -0.948   0.292  -0.138  0.00  0.00    +0.000 A 
ATOM     35  C   UNL     1       0.164   1.059   0.159  0.00  0.00    +0.000 A 
ATOM     36  C   UNL     1       1.412   0.469   0.222  0.00  0.00    +0.006 A 
ATOM     37  C   UNL     1       1.549  -0.887  -0.010  0.00  0.00    -0.023 A 
ATOM     38  C   UNL     1       0.437  -1.653  -0.306  0.00  0.00    +0.006 A 
ATOM     39  C   UNL     1      -0.811  -1.063  -0.371  0.00  0.00    +0.000 A 
ENDBRANCH  26  37
ENDBRANCH  22  26
ENDBRANCH   1  23
TORSDOF 5
