REMARK  Name = ZINC18052989
REMARK  8 active torsions:
REMARK  status: ('A' for Active; 'I' for Inactive)
REMARK    1  A    between atoms: C_1  and  C_2
REMARK    2  A    between atoms: C_2  and  C_4
REMARK    3  A    between atoms: C_2  and  O_20
REMARK    4  A    between atoms: N_6  and  N_7
REMARK    5  A    between atoms: C_8  and  C_10
REMARK    6  A    between atoms: C_10  and  N_11
REMARK    7  A    between atoms: C_12  and  C_14
REMARK    8  A    between atoms: O_20  and  C_21
REMARK                            x       y       z     vdW  Elec       q    Type
REMARK                         _______ _______ _______ _____ _____    ______ ____
ROOT
ATOM      1  C   UNL     1       6.935   3.997   0.876  0.00  0.00    +0.270 C 
ATOM      2  O   UNL     1       6.647   5.088   1.321  0.00  0.00    -0.270 OA
ATOM      3  N   UNL     1       8.159   3.480   1.098  0.00  0.00    -0.231 N 
ATOM      4  H   UNL     1       8.389   2.607   0.742  0.00  0.00    +0.173 HD
ENDROOT
BRANCH   3   5
ATOM      5  N   UNL     1       9.101   4.203   1.842  0.00  0.00    -0.233 N 
ATOM      6  C   UNL     1      10.326   3.686   2.064  0.00  0.00    +0.246 C 
ATOM      7  O   UNL     1      10.613   2.595   1.619  0.00  0.00    -0.273 OA
ATOM      8  H   UNL     1       8.871   5.076   2.197  0.00  0.00    +0.173 HD
BRANCH   6   9
ATOM      9  C   UNL     1      11.338   4.464   2.864  0.00  0.00    +0.202 C 
BRANCH   9  10
ATOM     10  N   UNL     1      12.580   3.693   2.962  0.00  0.00    -0.300 N 
ATOM     11  C   UNL     1      13.633   4.195   3.637  0.00  0.00    +0.280 C 
ATOM     12  O   UNL     1      13.553   5.288   4.165  0.00  0.00    -0.267 OA
ATOM     13  H   UNL     1      12.644   2.821   2.541  0.00  0.00    +0.150 HD
BRANCH  11  14
ATOM     14  C   UNL     1      14.875   3.423   3.735  0.00  0.00    +0.191 A 
ATOM     15  C   UNL     1      16.012   3.812   4.385  0.00  0.00    +0.056 A 
ATOM     16  C   UNL     1      16.944   2.776   4.225  0.00  0.00    +0.058 A 
ATOM     17  C   UNL     1      16.343   1.810   3.492  0.00  0.00    +0.171 A 
ATOM     18  O   UNL     1      15.094   2.202   3.204  0.00  0.00    -0.444 OA
ATOM     19 BR   UNL     1      17.131   0.173   2.967  0.00  0.00    -0.008 Br
ENDBRANCH  11  14
ENDBRANCH   9  10
ENDBRANCH   6   9
ENDBRANCH   3   5
BRANCH   1  21
ATOM     20  C   UNL     1       6.473   2.958  -1.327  0.00  0.00    +0.062 C 
ATOM     21  C   UNL     1       5.922   3.219   0.076  0.00  0.00    +0.257 C 
BRANCH  21  22
ATOM     22  O   UNL     1       4.711   3.971  -0.020  0.00  0.00    -0.480 OA
BRANCH  22  23
ATOM     23  C   UNL     1       3.565   3.271  -0.232  0.00  0.00    +0.122 A 
ATOM     24  C   UNL     1       3.630   1.892  -0.457  0.00  0.00    +0.046 A 
ATOM     25  C   UNL     1       2.502   1.165  -0.672  0.00  0.00    +0.012 A 
ATOM     26  C   UNL     1       1.249   1.804  -0.669  0.00  0.00    -0.018 A 
ATOM     27  C   UNL     1       0.063   1.083  -0.888  0.00  0.00    +0.008 A 
ATOM     28  C   UNL     1      -1.132   1.735  -0.883  0.00  0.00    +0.001 A 
ATOM     29  C   UNL     1      -1.200   3.108  -0.654  0.00  0.00    +0.001 A 
ATOM     30  C   UNL     1      -0.072   3.839  -0.439  0.00  0.00    +0.008 A 
ATOM     31  C   UNL     1       1.181   3.202  -0.442  0.00  0.00    -0.014 A 
ATOM     32  C   UNL     1       2.366   3.924  -0.223  0.00  0.00    +0.054 A 
ENDBRANCH  22  23
ENDBRANCH  21  22
ENDBRANCH   1  21
TORSDOF 7
