REMARK  Name = ZINC57468932
REMARK  6 active torsions:
REMARK  status: ('A' for Active; 'I' for Inactive)
REMARK    1  A    between atoms: C_1  and  C_2
REMARK    2  A    between atoms: C_2  and  C_4
REMARK    3  A    between atoms: C_2  and  S_14
REMARK    4  A    between atoms: S_14  and  C_15
REMARK    5  A    between atoms: C_18  and  C_21
REMARK    6  A    between atoms: N_19  and  N_20
REMARK                            x       y       z     vdW  Elec       q    Type
REMARK                         _______ _______ _______ _____ _____    ______ ____
ROOT
ATOM      1  S   UNL     1       0.879  -0.605   1.472  0.00  0.00    -0.077 S 
ENDROOT
BRANCH   1   2
ATOM      2  C   UNL     1      -0.136  -0.087   2.816  0.00  0.00    +0.209 A 
ATOM      3  N   UNL     1      -1.266   0.575   2.730  0.00  0.00    -0.121 NA
ATOM      4  N   UNL     1      -1.738   0.787   3.907  0.00  0.00    -0.123 NA
ATOM      5  C   UNL     1      -0.945   0.276   4.805  0.00  0.00    +0.255 A 
ATOM      6  N   UNL     1       0.102  -0.303   4.143  0.00  0.00    -0.220 N 
BRANCH   5   7
ATOM      7  C   UNL     1      -1.146   0.313   6.298  0.00  0.00    +0.454 C 
ATOM      8  F   UNL     1      -2.468   0.671   6.582  0.00  0.00    -0.163 F 
ATOM      9  F   UNL     1      -0.879  -0.951   6.836  0.00  0.00    -0.163 F 
ATOM     10  F   UNL     1      -0.277   1.253   6.863  0.00  0.00    -0.163 F 
ENDBRANCH   5   7
BRANCH   6  11
ATOM     11  N   UNL     1       1.165  -0.960   4.694  0.00  0.00    -0.295 N 
ATOM     12  H   UNL     1       1.923  -0.323   4.887  0.00  0.00    +0.163 HD
ATOM     13  H   UNL     1       0.890  -1.458   5.527  0.00  0.00    +0.163 HD
ENDBRANCH   6  11
ENDBRANCH   1   2
BRANCH   1  15
ATOM     14  C   UNL     1      -0.019   1.526   0.010  0.00  0.00    +0.024 C 
ATOM     15  C   UNL     1       0.002  -0.004   0.002  0.00  0.00    +0.081 C 
BRANCH  15  16
ATOM     16  C   UNL     1       0.707  -0.490  -1.238  0.00  0.00    -0.034 A 
ATOM     17  C   UNL     1       2.037  -0.133  -1.456  0.00  0.00    +0.005 A 
ATOM     18  C   UNL     1       2.703  -0.554  -2.566  0.00  0.00    +0.009 A 
ATOM     19  C   UNL     1       2.043  -1.363  -3.507  0.00  0.00    -0.018 A 
ATOM     20  C   UNL     1       2.698  -1.818  -4.664  0.00  0.00    +0.008 A 
ATOM     21  C   UNL     1       2.028  -2.599  -5.554  0.00  0.00    +0.001 A 
ATOM     22  C   UNL     1       0.698  -2.957  -5.335  0.00  0.00    +0.001 A 
ATOM     23  C   UNL     1       0.032  -2.535  -4.226  0.00  0.00    +0.008 A 
ATOM     24  C   UNL     1       0.692  -1.726  -3.285  0.00  0.00    -0.018 A 
ATOM     25  C   UNL     1       0.039  -1.276  -2.125  0.00  0.00    +0.013 A 
ENDBRANCH  15  16
ENDBRANCH   1  15
TORSDOF 5
