REMARK  Name = ZINC14544660
REMARK  3 active torsions:
REMARK  status: ('A' for Active; 'I' for Inactive)
REMARK    1  A    between atoms: C_7  and  C_11
REMARK    2  A    between atoms: C_22  and  S_27
REMARK    3  A    between atoms: S_27  and  N_30
REMARK                            x       y       z     vdW  Elec       q    Type
REMARK                         _______ _______ _______ _____ _____    ______ ____
ROOT
ATOM      1  C   UNL     1       0.269  -0.531   1.415  0.00  0.00    +0.107 C 
ATOM      2  C   UNL     1      -0.031   0.057   0.033  0.00  0.00    +0.029 C 
ATOM      3  C   UNL     1       1.251  -0.116  -0.833  0.00  0.00    +0.033 C 
ATOM      4  C   UNL     1       2.112   1.063  -0.425  0.00  0.00    -0.030 C 
ATOM      5  C   UNL     1       1.374   2.012   0.097  0.00  0.00    -0.023 C 
ATOM      6  C   UNL     1      -0.077   1.595   0.115  0.00  0.00    +0.049 C 
ATOM      7  C   UNL     1      -0.774   2.094   1.340  0.00  0.00    -0.018 A 
ATOM      8  C   UNL     1      -1.106   3.440   1.417  0.00  0.00    +0.034 A 
ATOM      9  C   UNL     1      -1.750   3.942   2.529  0.00  0.00    +0.105 A 
ATOM     10  C   UNL     1      -2.074   3.107   3.584  0.00  0.00    +0.030 A 
ATOM     11  C   UNL     1      -1.749   1.767   3.519  0.00  0.00    +0.025 A 
ATOM     12  C   UNL     1      -1.099   1.262   2.400  0.00  0.00    +0.031 A 
ATOM     13  N   UNL     1      -0.773  -0.098   2.352  0.00  0.00    -0.336 N 
ATOM     14  H   UNL     1      -1.225  -0.738   2.923  0.00  0.00    +0.147 HD
ENDROOT
BRANCH   1  21
ATOM     15  C   UNL     1       4.643  -2.126   0.874  0.00  0.00    +0.001 A 
ATOM     16  C   UNL     1       5.591  -1.331   1.505  0.00  0.00    +0.002 A 
ATOM     17  C   UNL     1       5.212  -0.200   2.194  0.00  0.00    +0.026 A 
ATOM     18  C   UNL     1       3.867   0.145   2.270  0.00  0.00    +0.047 A 
ATOM     19  C   UNL     1       2.910  -0.665   1.631  0.00  0.00    +0.005 A 
ATOM     20  C   UNL     1       3.317  -1.803   0.932  0.00  0.00    +0.010 A 
ATOM     21  C   UNL     1       1.612  -0.040   1.891  0.00  0.00    -0.002 A 
ATOM     22  C   UNL     1       1.844   1.050   2.640  0.00  0.00    +0.089 A 
ATOM     23  N   UNL     1       3.186   1.176   2.876  0.00  0.00    -0.360 N 
ATOM     24  H   UNL     1       3.596   1.887   3.393  0.00  0.00    +0.165 HD
ENDBRANCH   1  21
BRANCH   9  25
ATOM     25  S   UNL     1      -2.162   5.653   2.607  0.00  0.00    +0.056 S 
ATOM     26  O   UNL     1      -2.274   5.982   3.985  0.00  0.00    -0.153 OA
ATOM     27  O   UNL     1      -1.266   6.327   1.734  0.00  0.00    -0.153 OA
BRANCH  25  28
ATOM     28  N   UNL     1      -3.675   5.823   1.956  0.00  0.00    -0.204 NA
ATOM     29  H   UNL     1      -4.261   6.531   2.268  0.00  0.00    +0.144 HD
ATOM     30  H   UNL     1      -3.976   5.214   1.264  0.00  0.00    +0.144 HD
ENDBRANCH  25  28
ENDBRANCH   9  25
TORSDOF 3
