REMARK  Name = ZINC03983719
REMARK  8 active torsions:
REMARK  status: ('A' for Active; 'I' for Inactive)
REMARK    1  A    between atoms: C_1  and  C_2
REMARK    2  A    between atoms: C_2  and  C_24
REMARK    3  A    between atoms: N_3  and  N_4
REMARK    4  A    between atoms: C_5  and  S_7
REMARK    5  A    between atoms: S_7  and  C_8
REMARK    6  A    between atoms: N_13  and  C_16
REMARK    7  A    between atoms: C_19  and  O_22
REMARK    8  A    between atoms: O_22  and  C_23
REMARK                            x       y       z     vdW  Elec       q    Type
REMARK                         _______ _______ _______ _____ _____    ______ ____
ROOT
ATOM      1  N   UNL     1      -0.330  -1.303   3.512  0.00  0.00    -0.217 N 
ATOM      2  C   UNL     1      -1.160  -2.081   4.288  0.00  0.00    +0.146 C 
ATOM      3  N   UNL     1      -1.370  -1.766   5.537  0.00  0.00    -0.380 N 
ATOM      4  H   UNL     1      -0.174  -1.538   2.584  0.00  0.00    +0.176 HD
ATOM      5  H   UNL     1      -1.955  -2.313   6.083  0.00  0.00    +0.158 HD
ATOM      6  H   UNL     1      -0.941  -0.984   5.918  0.00  0.00    +0.158 HD
ENDROOT
BRANCH   1   9
ATOM      7  C   UNL     1       1.791   1.733   3.921  0.00  0.00    +0.068 C 
ATOM      8  C   UNL     1       0.978   0.623   3.305  0.00  0.00    +0.063 C 
ATOM      9  N   UNL     1       0.290  -0.174   4.063  0.00  0.00    -0.185 NA
BRANCH   8  10
ATOM     10  C   UNL     1       0.964   0.444   1.842  0.00  0.00    -0.002 A 
ATOM     11  C   UNL     1      -0.226   0.117   1.187  0.00  0.00    +0.011 A 
ATOM     12  C   UNL     1      -0.232  -0.049  -0.183  0.00  0.00    +0.020 A 
ATOM     13  C   UNL     1       0.937   0.109  -0.908  0.00  0.00    +0.041 A 
ATOM     14  C   UNL     1       2.120   0.433  -0.264  0.00  0.00    +0.020 A 
ATOM     15  C   UNL     1       2.139   0.607   1.104  0.00  0.00    +0.011 A 
ATOM     16 CL   UNL     1       0.920  -0.102  -2.631  0.00  0.00    -0.084 Cl
ENDBRANCH   8  10
ENDBRANCH   1   9
BRANCH   2  17
ATOM     17  S   UNL     1      -1.940  -3.501   3.595  0.00  0.00    -0.078 S 
BRANCH  17  18
ATOM     18  C   UNL     1      -2.910  -4.183   4.967  0.00  0.00    +0.149 C 
ATOM     19  C   UNL     1      -3.609  -5.490   4.540  0.00  0.00    +0.120 C 
ATOM     20  C   UNL     1      -5.081  -5.171   4.693  0.00  0.00    +0.228 C 
ATOM     21  O   UNL     1      -5.993  -5.934   4.458  0.00  0.00    -0.275 OA
ATOM     22  N   UNL     1      -5.216  -3.912   5.127  0.00  0.00    -0.209 N 
ATOM     23  C   UNL     1      -4.057  -3.261   5.318  0.00  0.00    +0.240 C 
ATOM     24  O   UNL     1      -3.946  -2.118   5.708  0.00  0.00    -0.274 OA
BRANCH  22  25
ATOM     25  C   UNL     1      -6.466  -3.321   5.366  0.00  0.00    +0.044 A 
ATOM     26  C   UNL     1      -7.104  -3.513   6.584  0.00  0.00    +0.027 A 
ATOM     27  C   UNL     1      -8.334  -2.931   6.818  0.00  0.00    +0.047 A 
ATOM     28  C   UNL     1      -8.932  -2.154   5.837  0.00  0.00    +0.120 A 
ATOM     29  C   UNL     1      -8.295  -1.962   4.619  0.00  0.00    +0.047 A 
ATOM     30  C   UNL     1      -7.063  -2.539   4.386  0.00  0.00    +0.027 A 
BRANCH  28  31
ATOM     31  O   UNL     1     -10.143  -1.581   6.068  0.00  0.00    -0.495 OA
ATOM     32  C   UNL     1     -10.700  -0.794   5.014  0.00  0.00    +0.277 C 
ENDBRANCH  28  31
ENDBRANCH  22  25
ENDBRANCH  17  18
ENDBRANCH   2  17
TORSDOF 6
