REMARK  Name = ZINC43042356
REMARK  6 active torsions:
REMARK  status: ('A' for Active; 'I' for Inactive)
REMARK    1  A    between atoms: C_1  and  C_2
REMARK    2  A    between atoms: C_7  and  N_12
REMARK    3  A    between atoms: C_9  and  C_11
REMARK    4  A    between atoms: N_15  and  N_16
REMARK    5  A    between atoms: C_17  and  C_19
REMARK    6  A    between atoms: C_19  and  C_20
REMARK                            x       y       z     vdW  Elec       q    Type
REMARK                         _______ _______ _______ _____ _____    ______ ____
ROOT
ATOM      1  N   UNL     1       2.811  -3.388   4.628  0.00  0.00    -0.233 N 
ATOM      2  C   UNL     1       3.463  -3.835   5.720  0.00  0.00    +0.234 C 
ATOM      3  O   UNL     1       3.225  -4.940   6.158  0.00  0.00    -0.274 OA
ATOM      4  H   UNL     1       3.002  -2.504   4.277  0.00  0.00    +0.173 HD
ENDROOT
BRANCH   1   8
ATOM      5  N   UNL     1       1.471  -2.526   2.420  0.00  0.00    -0.295 N 
ATOM      6  C   UNL     1       1.207  -3.754   2.907  0.00  0.00    +0.316 C 
ATOM      7  O   UNL     1       0.380  -4.460   2.362  0.00  0.00    -0.251 OA
ATOM      8  N   UNL     1       1.859  -4.201   3.999  0.00  0.00    -0.218 N 
ATOM      9  H   UNL     1       2.131  -1.963   2.855  0.00  0.00    +0.151 HD
ATOM     10  H   UNL     1       1.668  -5.085   4.350  0.00  0.00    +0.174 HD
BRANCH   5  16
ATOM     11  C   UNL     1      -0.019   1.526   0.010  0.00  0.00    +0.008 C 
ATOM     12  C   UNL     1       0.002  -0.004   0.002  0.00  0.00    -0.009 C 
ATOM     13  C   UNL     1       0.718  -0.497  -1.257  0.00  0.00    +0.003 C 
ATOM     14  C   UNL     1       0.739  -2.027  -1.265  0.00  0.00    +0.002 C 
ATOM     15  C   UNL     1       1.479  -2.534  -0.026  0.00  0.00    +0.022 C 
ATOM     16  C   UNL     1       0.763  -2.041   1.233  0.00  0.00    +0.078 C 
ATOM     17  C   UNL     1       0.742  -0.511   1.242  0.00  0.00    +0.009 C 
ATOM     18  C   UNL     1       0.026  -0.018   2.500  0.00  0.00    +0.009 C 
ENDBRANCH   5  16
ENDBRANCH   1   8
BRANCH   2  19
ATOM     19  C   UNL     1       4.488  -2.960   6.395  0.00  0.00    +0.134 C 
BRANCH  19  20
ATOM     20  C   UNL     1       5.065  -3.688   7.582  0.00  0.00    -0.014 A 
ATOM     21  C   UNL     1       4.654  -3.590   8.856  0.00  0.00    +0.087 A 
ATOM     22  N   UNL     1       5.416  -4.398   9.655  0.00  0.00    -0.360 N 
ATOM     23  H   UNL     1       5.307  -4.496  10.614  0.00  0.00    +0.165 HD
ATOM     24  C   UNL     1       6.359  -5.053   8.896  0.00  0.00    +0.047 A 
ATOM     25  C   UNL     1       6.177  -4.642   7.563  0.00  0.00    +0.003 A 
ATOM     26  C   UNL     1       6.998  -5.154   6.557  0.00  0.00    +0.010 A 
ATOM     27  C   UNL     1       7.975  -6.056   6.873  0.00  0.00    +0.001 A 
ATOM     28  C   UNL     1       8.156  -6.468   8.186  0.00  0.00    +0.002 A 
ATOM     29  C   UNL     1       7.363  -5.969   9.195  0.00  0.00    +0.026 A 
ENDBRANCH  19  20
ENDBRANCH   2  19
TORSDOF 4
