REMARK  Name = ZINC53256692
REMARK  6 active torsions:
REMARK  status: ('A' for Active; 'I' for Inactive)
REMARK    1  A    between atoms: C_1  and  O_2
REMARK    2  A    between atoms: O_2  and  C_3
REMARK    3  A    between atoms: C_3  and  C_4
REMARK    4  A    between atoms: C_4  and  N_5
REMARK    5  A    between atoms: N_5  and  C_6
REMARK    6  A    between atoms: C_6  and  C_18
REMARK                            x       y       z     vdW  Elec       q    Type
REMARK                         _______ _______ _______ _____ _____    ______ ____
ROOT
ATOM      1  C   UNL     1      -0.483  -4.035   1.296  0.00  0.00    +0.010 C 
ATOM      2  C   UNL     1      -1.925  -4.490   1.059  0.00  0.00    -0.003 C 
ATOM      3  C   UNL     1      -2.026  -5.175  -0.305  0.00  0.00    -0.001 C 
ATOM      4  C   UNL     1      -2.661  -6.556  -0.136  0.00  0.00    -0.000 C 
ATOM      5  C   UNL     1      -1.759  -7.614  -0.775  0.00  0.00    -0.000 C 
ATOM      6  C   UNL     1      -1.463  -8.715   0.246  0.00  0.00    -0.000 C 
ATOM      7  C   UNL     1       0.050  -8.914   0.357  0.00  0.00    -0.000 C 
ATOM      8  C   UNL     1       0.473  -8.807   1.824  0.00  0.00    -0.000 C 
ATOM      9  C   UNL     1       1.593  -7.774   1.958  0.00  0.00    -0.000 C 
ATOM     10  C   UNL     1       1.209  -6.740   3.019  0.00  0.00    -0.000 C 
ATOM     11  C   UNL     1       1.326  -5.334   2.427  0.00  0.00    -0.001 C 
ATOM     12  C   UNL     1       0.011  -4.582   2.636  0.00  0.00    -0.003 C 
ENDROOT
BRANCH   1  13
ATOM     13  C   UNL     1       0.396  -4.554   0.187  0.00  0.00    +0.200 C 
ATOM     14  O   UNL     1       1.016  -3.778  -0.509  0.00  0.00    -0.278 OA
ATOM     15  N   UNL     1       0.493  -5.881  -0.031  0.00  0.00    -0.330 N 
ATOM     16  H   UNL     1       0.053  -6.504   0.568  0.00  0.00    +0.145 HD
ATOM     17  H   UNL     1       1.002  -6.212  -0.787  0.00  0.00    +0.145 HD
ENDBRANCH   1  13
BRANCH   1  18
ATOM     18  N   UNL     1      -0.430  -2.567   1.316  0.00  0.00    +0.390 N 
ATOM     19  H   UNL     1       0.531  -2.266   1.383  0.00  0.00    -0.084 HD
ATOM     20  H   UNL     1      -0.947  -2.223   2.111  0.00  0.00    -0.084 HD
BRANCH  18  21
ATOM     21  C   UNL     1      -1.023  -2.038   0.080  0.00  0.00    -0.053 C 
BRANCH  21  22
ATOM     22  C   UNL     1      -1.080  -0.511   0.154  0.00  0.00    +0.140 C 
BRANCH  22  24
ATOM     23  C   UNL     1       0.307   1.440   0.261  0.00  0.00    +0.193 C 
ATOM     24  O   UNL     1       0.248   0.014   0.191  0.00  0.00    -0.385 OA
ENDBRANCH  22  24
ENDBRANCH  21  22
ENDBRANCH  18  21
ENDBRANCH   1  18
TORSDOF 5
