REMARK  Name = ZINC14359747
REMARK  14 active torsions:
REMARK  status: ('A' for Active; 'I' for Inactive)
REMARK    1  A    between atoms: C_1  and  C_2
REMARK    2  A    between atoms: C_2  and  C_4
REMARK    3  A    between atoms: C_2  and  O_36
REMARK    4  A    between atoms: C_4  and  C_6
REMARK    5  A    between atoms: C_4  and  N_25
REMARK    6  A    between atoms: C_6  and  O_8
REMARK    7  A    between atoms: O_8  and  C_9
REMARK    8  A    between atoms: C_9  and  C_10
REMARK    9  A    between atoms: C_10  and  C_12
REMARK   10  A    between atoms: C_14  and  C_23
REMARK   11  A    between atoms: C_14  and  C_24
REMARK   12  A    between atoms: N_21  and  C_22
REMARK   13  A    between atoms: N_25  and  S_26
REMARK   14  A    between atoms: S_26  and  C_29
REMARK                            x       y       z     vdW  Elec       q    Type
REMARK                         _______ _______ _______ _____ _____    ______ ____
ROOT
ATOM      1  C   UNL     1       7.494   7.031  -1.847  0.00  0.00    +0.329 C 
ATOM      2  O   UNL     1       6.932   8.020  -2.252  0.00  0.00    -0.249 OA
ENDROOT
BRANCH   1   3
ATOM      3  C   UNL     1       8.999   6.955  -1.874  0.00  0.00    +0.213 C 
BRANCH   3   5
ATOM      4  C   UNL     1      11.055   6.812  -0.462  0.00  0.00    +0.040 C 
ATOM      5  C   UNL     1       9.526   6.764  -0.450  0.00  0.00    +0.141 C 
BRANCH   5   6
ATOM      6  O   UNL     1       9.023   7.807   0.387  0.00  0.00    -0.390 OA
ATOM      7  H   UNL     1       9.279   8.696   0.105  0.00  0.00    +0.210 HD
ENDBRANCH   5   6
ENDBRANCH   3   5
BRANCH   3   8
ATOM      8  N   UNL     1       9.540   8.196  -2.433  0.00  0.00    -0.174 NA
ATOM      9  H   UNL     1       9.099   9.041  -2.256  0.00  0.00    +0.149 HD
BRANCH   8  10
ATOM     10  S   UNL     1      10.907   8.156  -3.367  0.00  0.00    +0.059 S 
ATOM     11  O   UNL     1      11.159   9.493  -3.775  0.00  0.00    -0.153 OA
ATOM     12  O   UNL     1      11.864   7.383  -2.655  0.00  0.00    -0.153 OA
BRANCH  10  13
ATOM     13  C   UNL     1      10.514   7.250  -4.827  0.00  0.00    +0.105 A 
ATOM     14  C   UNL     1      10.704   5.881  -4.862  0.00  0.00    +0.030 A 
ATOM     15  C   UNL     1      10.390   5.169  -6.005  0.00  0.00    +0.022 A 
ATOM     16  C   UNL     1       9.897   5.829  -7.117  0.00  0.00    +0.041 A 
ATOM     17  C   UNL     1       9.713   7.199  -7.082  0.00  0.00    +0.022 A 
ATOM     18  C   UNL     1      10.021   7.909  -5.938  0.00  0.00    +0.030 A 
ATOM     19 CL   UNL     1       9.510   4.936  -8.555  0.00  0.00    -0.084 Cl
ENDBRANCH  10  13
ENDBRANCH   8  10
ENDBRANCH   3   8
ENDBRANCH   1   3
BRANCH   1  20
ATOM     20  O   UNL     1       6.779   5.999  -1.371  0.00  0.00    -0.455 OA
BRANCH  20  21
ATOM     21  C   UNL     1       5.334   6.142  -1.375  0.00  0.00    +0.311 C 
BRANCH  21  22
ATOM     22  C   UNL     1       4.704   4.895  -0.810  0.00  0.00    +0.195 C 
ATOM     23  O   UNL     1       5.406   3.974  -0.439  0.00  0.00    -0.289 OA
BRANCH  22  24
ATOM     24  C   UNL     1       3.309   4.797  -0.711  0.00  0.00    +0.069 C 
ATOM     25  C   UNL     1       2.738   3.632  -0.319  0.00  0.00    +0.024 C 
ATOM     26  C   UNL     1       3.460   2.364   0.083  0.00  0.00    +0.030 C 
ATOM     27  C   UNL     1       2.349   1.397   0.421  0.00  0.00    -0.015 A 
ATOM     28  C   UNL     1       2.350   0.088   0.850  0.00  0.00    +0.006 A 
ATOM     29  C   UNL     1       1.152  -0.563   1.085  0.00  0.00    +0.000 A 
ATOM     30  C   UNL     1      -0.044   0.104   0.889  0.00  0.00    +0.002 A 
ATOM     31  C   UNL     1      -0.048   1.415   0.460  0.00  0.00    +0.024 A 
ATOM     32  C   UNL     1       1.155   2.077   0.220  0.00  0.00    +0.038 A 
ATOM     33  N   UNL     1       1.406   3.379  -0.211  0.00  0.00    -0.305 N 
ATOM     34  C   UNL     1       0.358   4.358  -0.513  0.00  0.00    +0.135 C 
ATOM     35  C   UNL     1       4.342   2.615   1.308  0.00  0.00    +0.022 C 
ATOM     36  C   UNL     1       4.298   1.832  -1.082  0.00  0.00    +0.022 C 
ENDBRANCH  22  24
ENDBRANCH  21  22
ENDBRANCH  20  21
ENDBRANCH   1  20
TORSDOF 10
