REMARK  Name = ZINC07011096
REMARK  7 active torsions:
REMARK  status: ('A' for Active; 'I' for Inactive)
REMARK    1  A    between atoms: C_1  and  C_2
REMARK    2  A    between atoms: C_5  and  C_14
REMARK    3  A    between atoms: C_6  and  C_7
REMARK    4  A    between atoms: C_6  and  C_8
REMARK    5  A    between atoms: N_16  and  N_17
REMARK    6  A    between atoms: N_17  and  C_18
REMARK    7  A    between atoms: C_21  and  N_24
REMARK                            x       y       z     vdW  Elec       q    Type
REMARK                         _______ _______ _______ _____ _____    ______ ____
ROOT
ATOM      1  C   UNL     1       0.928  -2.996   2.434  0.00  0.00    +0.237 C 
ATOM      2  O   UNL     1       1.479  -2.406   3.340  0.00  0.00    -0.274 OA
ATOM      3  N   UNL     1       0.726  -4.326   2.520  0.00  0.00    -0.236 N 
ATOM      4  H   UNL     1       0.286  -4.797   1.796  0.00  0.00    +0.173 HD
ENDROOT
BRANCH   1   9
ATOM      5  C   UNL     1       0.113   1.021  -0.688  0.00  0.00    +0.020 C 
ATOM      6  C   UNL     1       0.103  -0.431  -0.204  0.00  0.00    +0.033 C 
ATOM      7  C   UNL     1      -1.304  -1.077  -0.024  0.00  0.00    +0.016 C 
ATOM      8  C   UNL     1      -1.064  -2.276   0.922  0.00  0.00    +0.019 C 
ATOM      9  C   UNL     1       0.468  -2.241   1.214  0.00  0.00    +0.073 C 
ATOM     10  C   UNL     1       0.727  -0.692   1.212  0.00  0.00    -0.007 C 
ATOM     11  C   UNL     1      -0.046   0.022   2.322  0.00  0.00    +0.013 C 
ATOM     12  C   UNL     1       2.220  -0.359   1.253  0.00  0.00    +0.013 C 
ATOM     13  C   UNL     1       1.128  -2.634  -0.144  0.00  0.00    +0.139 C 
ATOM     14  C   UNL     1       0.899  -1.427  -1.060  0.00  0.00    +0.154 C 
ATOM     15  O   UNL     1       1.249  -1.290  -2.207  0.00  0.00    -0.296 OA
ATOM     16 BR   UNL     1       3.056  -2.935   0.095  0.00  0.00    -0.079 Br
ENDBRANCH   1   9
BRANCH   3  17
ATOM     17  N   UNL     1       1.153  -5.027   3.655  0.00  0.00    -0.264 N 
ATOM     18  H   UNL     1       1.594  -4.556   4.379  0.00  0.00    +0.170 HD
BRANCH  17  19
ATOM     19  C   UNL     1       0.945  -6.405   3.743  0.00  0.00    +0.045 A 
ATOM     20  C   UNL     1       0.319  -7.083   2.705  0.00  0.00    +0.026 A 
ATOM     21  C   UNL     1       0.115  -8.446   2.795  0.00  0.00    +0.034 A 
ATOM     22  C   UNL     1       0.532  -9.136   3.918  0.00  0.00    +0.126 A 
ATOM     23  C   UNL     1       1.155  -8.464   4.955  0.00  0.00    +0.034 A 
ATOM     24  C   UNL     1       1.368  -7.103   4.868  0.00  0.00    +0.026 A 
BRANCH  22  25
ATOM     25  N   UNL     1       0.311 -10.597   4.012  0.00  0.00    +0.056 N 
ATOM     26  O   UNL     1      -0.233 -11.185   3.107  0.00  0.00    -0.126 OA
ATOM     27  O   UNL     1       0.676 -11.201   4.994  0.00  0.00    -0.126 OA
ENDBRANCH  22  25
ENDBRANCH  17  19
ENDBRANCH   3  17
TORSDOF 4
