REMARK  Name = ZINC39653809
REMARK  14 active torsions:
REMARK  status: ('A' for Active; 'I' for Inactive)
REMARK    1  A    between atoms: C_1  and  C_2
REMARK    2  A    between atoms: C_2  and  O_3
REMARK    3  A    between atoms: O_3  and  C_4
REMARK    4  A    between atoms: C_7  and  C_10
REMARK    5  A    between atoms: C_10  and  C_11
REMARK    6  A    between atoms: C_11  and  N_12
REMARK    7  A    between atoms: C_13  and  C_15
REMARK    8  A    between atoms: C_26  and  C_28
REMARK    9  A    between atoms: C_30  and  O_38
REMARK   10  A    between atoms: C_31  and  O_36
REMARK   11  A    between atoms: C_32  and  O_34
REMARK   12  A    between atoms: O_34  and  C_35
REMARK   13  A    between atoms: O_36  and  C_37
REMARK   14  A    between atoms: O_38  and  C_39
REMARK                            x       y       z     vdW  Elec       q    Type
REMARK                         _______ _______ _______ _____ _____    ______ ____
ROOT
ATOM      1  C   UNL     1      -0.695  -9.756  -4.163  0.00  0.00    +0.100 C 
ATOM      2  C   UNL     1       0.525 -10.367  -4.889  0.00  0.00    +0.121 C 
ATOM      3  N   UNL     1      -0.019 -11.540  -5.613  0.00  0.00    -0.296 N 
ATOM      4  C   UNL     1      -1.336 -11.082  -6.119  0.00  0.00    +0.115 C 
ATOM      5  C   UNL     1      -1.914 -10.227  -4.974  0.00  0.00    -0.004 C 
ATOM      6  C   UNL     1      -2.668  -9.028  -5.540  0.00  0.00    -0.010 C 
ATOM      7  C   UNL     1      -3.908  -9.519  -6.293  0.00  0.00    -0.082 C 
ATOM      8  N   UNL     1      -4.770 -10.276  -5.377  0.00  0.00    +0.379 N 
ATOM      9  C   UNL     1      -4.069 -11.479  -4.909  0.00  0.00    -0.082 C 
ATOM     10  C   UNL     1      -2.836 -11.070  -4.098  0.00  0.00    -0.010 C 
ATOM     11  C   UNL     1       0.553 -12.749  -5.775  0.00  0.00    +0.247 C 
ATOM     12  O   UNL     1       1.585 -13.016  -5.190  0.00  0.00    -0.270 OA
ATOM     13  H   UNL     1      -5.008  -9.698  -4.585  0.00  0.00    -0.086 HD
ATOM     14  H   UNL     1      -5.614 -10.547  -5.859  0.00  0.00    -0.086 HD
ENDROOT
BRANCH  11  15
ATOM     15  C   UNL     1      -0.072 -13.749  -6.663  0.00  0.00    +0.044 A 
ATOM     16  C   UNL     1      -0.969 -13.341  -7.653  0.00  0.00    +0.062 A 
ATOM     17  C   UNL     1      -1.554 -14.280  -8.483  0.00  0.00    +0.166 A 
ATOM     18  C   UNL     1      -1.249 -15.630  -8.333  0.00  0.00    +0.204 A 
ATOM     19  C   UNL     1      -0.356 -16.039  -7.346  0.00  0.00    +0.166 A 
ATOM     20  C   UNL     1       0.236 -15.104  -6.517  0.00  0.00    +0.062 A 
BRANCH  19  21
ATOM     21  O   UNL     1      -0.061 -17.358  -7.201  0.00  0.00    -0.491 OA
ATOM     22  C   UNL     1       0.864 -17.707  -6.168  0.00  0.00    +0.277 C 
ENDBRANCH  19  21
BRANCH  18  23
ATOM     23  O   UNL     1      -1.825 -16.550  -9.150  0.00  0.00    -0.488 OA
ATOM     24  C   UNL     1      -1.135 -16.864 -10.361  0.00  0.00    +0.277 C 
ENDBRANCH  18  23
BRANCH  17  25
ATOM     25  O   UNL     1      -2.427 -13.884  -9.448  0.00  0.00    -0.491 OA
ATOM     26  C   UNL     1      -2.694 -12.483  -9.546  0.00  0.00    +0.277 C 
ENDBRANCH  17  25
ENDBRANCH  11  15
BRANCH   1  28
ATOM     27  N   UNL     1      -1.152  -7.541  -3.161  0.00  0.00    -0.315 N 
ATOM     28  C   UNL     1      -0.610  -8.251  -4.170  0.00  0.00    +0.218 C 
ATOM     29  O   UNL     1      -0.055  -7.679  -5.084  0.00  0.00    -0.275 OA
ATOM     30  H   UNL     1      -1.596  -7.999  -2.430  0.00  0.00    +0.149 HD
BRANCH  27  31
ATOM     31  C   UNL     1      -1.069  -6.079  -3.167  0.00  0.00    +0.109 C 
BRANCH  31  32
ATOM     32  C   UNL     1      -1.757  -5.523  -1.918  0.00  0.00    +0.054 C 
BRANCH  32  36
ATOM     33  C   UNL     1      -1.517  -1.257  -1.937  0.00  0.00    +0.121 A 
ATOM     34  C   UNL     1      -2.596  -1.895  -2.531  0.00  0.00    +0.046 A 
ATOM     35  C   UNL     1      -2.671  -3.274  -2.524  0.00  0.00    +0.007 A 
ATOM     36  C   UNL     1      -1.672  -4.019  -1.925  0.00  0.00    -0.046 A 
ATOM     37  C   UNL     1      -0.596  -3.385  -1.332  0.00  0.00    +0.007 A 
ATOM     38  C   UNL     1      -0.513  -2.006  -1.342  0.00  0.00    +0.046 A 
BRANCH  33  39
ATOM     39  O   UNL     1      -1.441   0.100  -1.944  0.00  0.00    -0.492 OA
BRANCH  39  41
ATOM     40  C   UNL     1      -2.251   2.312  -2.482  0.00  0.00    +0.048 C 
ATOM     41  C   UNL     1      -2.510   0.807  -2.575  0.00  0.00    +0.225 C 
ENDBRANCH  39  41
ENDBRANCH  33  39
ENDBRANCH  32  36
ENDBRANCH  31  32
ENDBRANCH  27  31
ENDBRANCH   1  28
TORSDOF 10
