REMARK  Name = ZINC36523755
REMARK  10 active torsions:
REMARK  status: ('A' for Active; 'I' for Inactive)
REMARK    1  A    between atoms: C_1  and  N_2
REMARK    2  A    between atoms: N_2  and  C_3
REMARK    3  A    between atoms: C_3  and  C_5
REMARK    4  A    between atoms: C_3  and  C_14
REMARK    5  A    between atoms: C_8  and  N_11
REMARK    6  A    between atoms: N_16  and  C_17
REMARK    7  A    between atoms: C_23  and  C_25
REMARK    8  A    between atoms: C_31  and  O_33
REMARK    9  A    between atoms: O_33  and  C_34
REMARK   10  A    between atoms: C_34  and  C_35
REMARK                            x       y       z     vdW  Elec       q    Type
REMARK                         _______ _______ _______ _____ _____    ______ ____
ROOT
ATOM      1  C   UNL     1       0.135  -0.742   1.261  0.00  0.00    +0.192 C 
ENDROOT
BRANCH   1   2
ATOM      2  C   UNL     1      -1.079  -0.494   2.118  0.00  0.00    -0.018 A 
ATOM      3  C   UNL     1      -1.137   0.625   2.928  0.00  0.00    +0.008 A 
ATOM      4  C   UNL     1      -2.251   0.852   3.715  0.00  0.00    +0.033 A 
ATOM      5  C   UNL     1      -3.307  -0.039   3.692  0.00  0.00    +0.126 A 
ATOM      6  C   UNL     1      -3.250  -1.158   2.881  0.00  0.00    +0.033 A 
ATOM      7  C   UNL     1      -2.138  -1.383   2.091  0.00  0.00    +0.008 A 
BRANCH   5   8
ATOM      8  N   UNL     1      -4.499   0.203   4.535  0.00  0.00    +0.056 N 
ATOM      9  O   UNL     1      -4.549   1.181   5.244  0.00  0.00    -0.126 OA
ATOM     10  O   UNL     1      -5.423  -0.577   4.515  0.00  0.00    -0.126 OA
ENDBRANCH   5   8
ENDBRANCH   1   2
BRANCH   1  12
ATOM     11  C   UNL     1       0.324   1.667   0.484  0.00  0.00    +0.133 C 
ATOM     12  N   UNL     1       0.175   0.242   0.176  0.00  0.00    -0.287 N 
ATOM     13  C   UNL     1       0.076  -0.163  -1.105  0.00  0.00    +0.237 C 
ATOM     14  O   UNL     1      -0.047  -1.342  -1.361  0.00  0.00    -0.274 OA
BRANCH  13  15
ATOM     15  C   UNL     1       0.118   0.849  -2.221  0.00  0.00    +0.165 C 
ATOM     16  C   UNL     1       1.580   1.247  -2.514  0.00  0.00    +0.033 C 
ATOM     17  C   UNL     1       1.602   1.378  -4.060  0.00  0.00    +0.021 C 
ATOM     18  C   UNL     1       0.627   0.249  -4.481  0.00  0.00    +0.112 C 
ATOM     19  N   UNL     1      -0.432   0.260  -3.451  0.00  0.00    -0.256 N 
ATOM     20  C   UNL     1      -1.691  -0.194  -3.610  0.00  0.00    +0.404 C 
ATOM     21  O   UNL     1      -2.479  -0.135  -2.687  0.00  0.00    -0.226 OA
BRANCH  20  22
ATOM     22  O   UNL     1      -2.075  -0.713  -4.791  0.00  0.00    -0.445 OA
BRANCH  22  23
ATOM     23  C   UNL     1      -3.424  -1.175  -4.888  0.00  0.00    +0.269 C 
BRANCH  23  24
ATOM     24  C   UNL     1      -3.670  -1.719  -6.272  0.00  0.00    -0.010 A 
ATOM     25  C   UNL     1      -4.124  -0.881  -7.273  0.00  0.00    +0.007 A 
ATOM     26  C   UNL     1      -4.349  -1.379  -8.543  0.00  0.00    +0.000 A 
ATOM     27  C   UNL     1      -4.121  -2.716  -8.811  0.00  0.00    +0.000 A 
ATOM     28  C   UNL     1      -3.667  -3.554  -7.810  0.00  0.00    +0.000 A 
ATOM     29  C   UNL     1      -3.437  -3.055  -6.541  0.00  0.00    +0.007 A 
ENDBRANCH  23  24
ENDBRANCH  22  23
ENDBRANCH  20  22
ENDBRANCH  13  15
ENDBRANCH   1  12
BRANCH   1  30
ATOM     30  C   UNL     1       1.379  -0.614   2.102  0.00  0.00    +0.238 C 
ATOM     31  O   UNL     1       2.216   0.217   1.823  0.00  0.00    -0.273 OA
ATOM     32  N   UNL     1       1.560  -1.423   3.164  0.00  0.00    -0.311 N 
ATOM     33  H   UNL     1       0.889  -2.088   3.388  0.00  0.00    +0.149 HD
BRANCH  32  34
ATOM     34  C   UNL     1       2.769  -1.299   3.982  0.00  0.00    +0.073 C 
ATOM     35  C   UNL     1       3.897  -2.117   3.352  0.00  0.00    +0.022 C 
ATOM     36  C   UNL     1       5.160  -1.987   4.205  0.00  0.00    +0.002 C 
ATOM     37  C   UNL     1       4.878  -2.509   5.616  0.00  0.00    +0.000 C 
ATOM     38  C   UNL     1       3.750  -1.691   6.246  0.00  0.00    +0.002 C 
ATOM     39  C   UNL     1       2.487  -1.821   5.392  0.00  0.00    +0.022 C 
ENDBRANCH  32  34
ENDBRANCH   1  30
TORSDOF 9
