REMARK  Name = ZINC03584971
REMARK  11 active torsions:
REMARK  status: ('A' for Active; 'I' for Inactive)
REMARK    1  A    between atoms: C_1  and  C_2
REMARK    2  A    between atoms: C_2  and  N_3
REMARK    3  A    between atoms: N_3  and  C_4
REMARK    4  A    between atoms: C_5  and  N_20
REMARK    5  A    between atoms: N_6  and  C_13
REMARK    6  A    between atoms: C_13  and  C_14
REMARK    7  A    between atoms: C_21  and  C_23
REMARK    8  A    between atoms: C_23  and  N_24
REMARK    9  A    between atoms: N_24  and  C_25
REMARK   10  A    between atoms: N_24  and  C_26
REMARK   11  A    between atoms: C_26  and  C_27
REMARK                            x       y       z     vdW  Elec       q    Type
REMARK                         _______ _______ _______ _____ _____    ______ ____
ROOT
ATOM      1  C   UNL     1      -0.102  -0.643   2.298  0.00  0.00    +0.140 A 
ATOM      2  C   UNL     1      -1.186  -1.493   2.218  0.00  0.00    +0.128 A 
ATOM      3  N   UNL     1      -1.962  -1.699   3.335  0.00  0.00    -0.276 N 
ATOM      4  C   UNL     1      -1.667  -1.079   4.492  0.00  0.00    +0.331 A 
ATOM      5  O   UNL     1      -2.365  -1.274   5.469  0.00  0.00    -0.246 OA
ATOM      6  N   UNL     1      -0.614  -0.248   4.589  0.00  0.00    -0.273 N 
ATOM      7  H   UNL     1      -0.422   0.187   5.435  0.00  0.00    +0.173 HD
ATOM      8  C   UNL     1       0.181  -0.016   3.526  0.00  0.00    +0.277 A 
ATOM      9  O   UNL     1       1.136   0.735   3.626  0.00  0.00    -0.266 OA
ENDROOT
BRANCH   1  10
ATOM     10  N   UNL     1       0.713  -0.412   1.169  0.00  0.00    -0.266 N 
ATOM     11  C   UNL     1       1.997  -0.826   1.167  0.00  0.00    +0.203 C 
ATOM     12  O   UNL     1       2.426  -1.476   2.098  0.00  0.00    -0.277 OA
BRANCH  10  14
ATOM     13  C   UNL     1       0.280   1.792   0.200  0.00  0.00    +0.025 C 
ATOM     14  C   UNL     1       0.165   0.279  -0.001  0.00  0.00    +0.110 C 
ENDBRANCH  10  14
BRANCH  11  15
ATOM     15  C   UNL     1       2.898  -0.482   0.010  0.00  0.00    +0.019 C 
BRANCH  15  16
ATOM     16  N   UNL     1       4.235  -1.044   0.246  0.00  0.00    +0.386 N 
ATOM     17  C   UNL     1       4.155  -2.511   0.253  0.00  0.00    -0.095 C 
ATOM     18  H   UNL     1       4.583  -0.722   1.136  0.00  0.00    -0.081 HD
BRANCH  16  19
ATOM     19  C   UNL     1       5.145  -0.609  -0.822  0.00  0.00    -0.041 C 
BRANCH  19  20
ATOM     20  C   UNL     1       6.546  -1.062  -0.504  0.00  0.00    -0.044 A 
ATOM     21  C   UNL     1       7.101  -2.125  -1.192  0.00  0.00    +0.003 A 
ATOM     22  C   UNL     1       8.387  -2.542  -0.901  0.00  0.00    +0.002 A 
ATOM     23  C   UNL     1       9.118  -1.897   0.079  0.00  0.00    +0.021 A 
ATOM     24  C   UNL     1       8.564  -0.834   0.768  0.00  0.00    +0.059 A 
ATOM     25  C   UNL     1       7.279  -0.412   0.472  0.00  0.00    +0.061 A 
ATOM     26 CL   UNL     1       6.585   0.927   1.331  0.00  0.00    -0.082 Cl
ATOM     27 CL   UNL     1       9.482  -0.024   1.998  0.00  0.00    -0.082 Cl
ENDBRANCH  19  20
ENDBRANCH  16  19
ENDBRANCH  15  16
ENDBRANCH  11  15
ENDBRANCH   1  10
BRANCH   2  28
ATOM     28  N   UNL     1      -1.488  -2.126   1.036  0.00  0.00    -0.343 N 
ATOM     29  H   UNL     1      -0.978  -1.927   0.235  0.00  0.00    +0.144 HD
ATOM     30  H   UNL     1      -2.212  -2.771   1.002  0.00  0.00    +0.144 HD
ENDBRANCH   2  28
BRANCH   3  31
ATOM     31  C   UNL     1      -3.116  -2.598   3.265  0.00  0.00    +0.163 C 
BRANCH  31  32
ATOM     32  C   UNL     1      -2.683  -3.999   3.615  0.00  0.00    -0.028 A 
ATOM     33  C   UNL     1      -2.242  -4.854   2.622  0.00  0.00    +0.005 A 
ATOM     34  C   UNL     1      -1.845  -6.139   2.943  0.00  0.00    +0.000 A 
ATOM     35  C   UNL     1      -1.889  -6.568   4.256  0.00  0.00    +0.000 A 
ATOM     36  C   UNL     1      -2.330  -5.713   5.248  0.00  0.00    +0.000 A 
ATOM     37  C   UNL     1      -2.722  -4.427   4.928  0.00  0.00    +0.005 A 
ENDBRANCH  31  32
ENDBRANCH   3  31
TORSDOF 9
