REMARK  Name = ZINC11709794
REMARK  5 active torsions:
REMARK  status: ('A' for Active; 'I' for Inactive)
REMARK    1  A    between atoms: N_13  and  C_17
REMARK    2  A    between atoms: C_17  and  C_18
REMARK    3  A    between atoms: N_20  and  C_21
REMARK    4  A    between atoms: C_24  and  C_27
REMARK    5  A    between atoms: C_27  and  C_28
REMARK                            x       y       z     vdW  Elec       q    Type
REMARK                         _______ _______ _______ _____ _____    ______ ____
ROOT
ATOM      1  C   UNL     1       0.929   9.650   5.996  0.00  0.00    +0.235 C 
ATOM      2  O   UNL     1      -0.147   9.678   5.437  0.00  0.00    -0.274 OA
ATOM      3  N   UNL     1       1.993   9.096   5.382  0.00  0.00    -0.284 N 
ATOM      4  H   UNL     1       2.837   9.013   5.854  0.00  0.00    +0.155 HD
ENDROOT
BRANCH   3   5
ATOM      5  C   UNL     1       1.881   8.640   4.064  0.00  0.00    +0.033 A 
ATOM      6  C   UNL     1       0.693   8.074   3.622  0.00  0.00    +0.023 A 
ATOM      7  C   UNL     1       0.585   7.625   2.320  0.00  0.00    +0.006 A 
ATOM      8  C   UNL     1       1.659   7.741   1.457  0.00  0.00    -0.041 A 
ATOM      9  C   UNL     1       2.845   8.300   1.895  0.00  0.00    +0.006 A 
ATOM     10  C   UNL     1       2.958   8.755   3.194  0.00  0.00    +0.023 A 
BRANCH   8  11
ATOM     11  C   UNL     1       1.538   7.250   0.037  0.00  0.00    +0.098 C 
BRANCH  11  12
ATOM     12  C   UNL     1       1.036   8.368  -0.840  0.00  0.00    +0.084 A 
ATOM     13  N   UNL     1       1.730   9.258  -1.492  0.00  0.00    -0.244 NA
ATOM     14  C   UNL     1       1.153  10.215  -2.249  0.00  0.00    +0.078 A 
ATOM     15  C   UNL     1       1.762  11.239  -3.007  0.00  0.00    +0.029 A 
ATOM     16  C   UNL     1       1.008  12.119  -3.719  0.00  0.00    +0.002 A 
ATOM     17  C   UNL     1      -0.379  12.055  -3.720  0.00  0.00    +0.001 A 
ATOM     18  C   UNL     1      -1.013  11.067  -2.991  0.00  0.00    +0.017 A 
ATOM     19  C   UNL     1      -0.260  10.170  -2.273  0.00  0.00    +0.039 A 
ATOM     20  S   UNL     1      -0.606   8.781  -1.224  0.00  0.00    -0.072 S 
ENDBRANCH  11  12
ENDBRANCH   8  11
ENDBRANCH   3   5
BRANCH   1  21
ATOM     21  C   UNL     1       1.077  10.236   7.377  0.00  0.00    +0.214 C 
BRANCH  21  34
ATOM     22  C   UNL     1      -4.871  12.954   5.177  0.00  0.00    +0.000 A 
ATOM     23  C   UNL     1      -3.836  12.066   4.952  0.00  0.00    +0.000 A 
ATOM     24  C   UNL     1      -2.917  11.817   5.951  0.00  0.00    +0.006 A 
ATOM     25  C   UNL     1      -3.024  12.451   7.183  0.00  0.00    -0.012 A 
ATOM     26  C   UNL     1      -4.054  13.338   7.405  0.00  0.00    -0.042 A 
ATOM     27  C   UNL     1      -4.979  13.586   6.399  0.00  0.00    +0.004 A 
ATOM     28  C   UNL     1      -4.222  14.069   8.711  0.00  0.00    +0.035 C 
ATOM     29  C   UNL     1      -3.438  13.374   9.823  0.00  0.00    +0.008 C 
ATOM     30  C   UNL     1      -1.995  13.172   9.345  0.00  0.00    +0.040 C 
ATOM     31  C   UNL     1      -1.995  12.133   8.231  0.00  0.00    +0.138 C 
ATOM     32  C   UNL     1      -0.620  12.040   7.608  0.00  0.00    +0.251 C 
ATOM     33  O   UNL     1      -0.013  12.919   7.036  0.00  0.00    -0.272 OA
ATOM     34  N   UNL     1      -0.213  10.771   7.821  0.00  0.00    -0.215 N 
ATOM     35  C   UNL     1      -1.130  10.065   8.492  0.00  0.00    +0.310 C 
ATOM     36  O   UNL     1      -0.989   8.899   8.805  0.00  0.00    -0.252 OA
ATOM     37  N   UNL     1      -2.226  10.791   8.782  0.00  0.00    -0.281 N 
ATOM     38  H   UNL     1      -3.014  10.487   9.260  0.00  0.00    +0.152 HD
ENDBRANCH  21  34
ENDBRANCH   1  21
TORSDOF 5
