REMARK  Name = ZINC05609136
REMARK  10 active torsions:
REMARK  status: ('A' for Active; 'I' for Inactive)
REMARK    1  A    between atoms: C_1  and  C_2
REMARK    2  A    between atoms: N_6  and  C_11
REMARK    3  A    between atoms: C_7  and  S_9
REMARK    4  A    between atoms: S_9  and  C_10
REMARK    5  A    between atoms: C_11  and  C_12
REMARK    6  A    between atoms: N_14  and  C_15
REMARK    7  A    between atoms: C_16  and  C_26
REMARK    8  A    between atoms: C_21  and  C_25
REMARK    9  A    between atoms: C_26  and  O_28
REMARK   10  A    between atoms: O_28  and  C_29
REMARK                            x       y       z     vdW  Elec       q    Type
REMARK                         _______ _______ _______ _____ _____    ______ ____
ROOT
ATOM      1  C   UNL     1      -2.882   0.896   1.441  0.00  0.00    +0.238 C 
ATOM      2  O   UNL     1      -2.196   1.285   2.362  0.00  0.00    -0.273 OA
ATOM      3  N   UNL     1      -4.028   0.232   1.689  0.00  0.00    -0.278 N 
ATOM      4  H   UNL     1      -4.577  -0.080   0.953  0.00  0.00    +0.155 HD
ENDROOT
BRANCH   3   5
ATOM      5  C   UNL     1      -4.422  -0.007   2.997  0.00  0.00    +0.086 A 
ATOM      6  C   UNL     1      -5.557  -0.666   3.449  0.00  0.00    +0.091 A 
ATOM      7  C   UNL     1      -5.737  -0.783   4.887  0.00  0.00    -0.021 A 
ATOM      8  C   UNL     1      -4.761  -0.226   5.636  0.00  0.00    -0.004 A 
ATOM      9  S   UNL     1      -3.614   0.440   4.463  0.00  0.00    -0.077 S 
ATOM     10  C   UNL     1      -4.678  -0.192   7.131  0.00  0.00    +0.046 C 
ATOM     11  C   UNL     1      -5.678  -1.212   7.694  0.00  0.00    -0.009 C 
ATOM     12  C   UNL     1      -7.027  -1.019   6.995  0.00  0.00    +0.008 C 
ATOM     13  C   UNL     1      -6.928  -1.476   5.538  0.00  0.00    +0.037 C 
ATOM     14  C   UNL     1      -5.841  -0.993   9.199  0.00  0.00    +0.008 C 
BRANCH   6  15
ATOM     15  C   UNL     1      -6.536  -1.224   2.514  0.00  0.00    +0.342 C 
ATOM     16  O   UNL     1      -6.415  -2.367   2.117  0.00  0.00    -0.245 OA
BRANCH  15  17
ATOM     17  O   UNL     1      -7.571  -0.469   2.091  0.00  0.00    -0.464 OA
ATOM     18  C   UNL     1      -8.502  -1.087   1.164  0.00  0.00    +0.280 C 
ENDBRANCH  15  17
ENDBRANCH   6  15
ENDBRANCH   3   5
BRANCH   1  19
ATOM     19  C   UNL     1      -2.454   1.155   0.020  0.00  0.00    +0.223 C 
BRANCH  19  25
ATOM     20  C   UNL     1       2.398   4.120   0.001  0.00  0.00    +0.066 C 
ATOM     21  C   UNL     1       1.126   3.312   0.009  0.00  0.00    +0.046 A 
ATOM     22  C   UNL     1       1.185   1.949   0.001  0.00  0.00    +0.093 A 
ATOM     23  C   UNL     1      -0.015   1.216   0.009  0.00  0.00    +0.255 A 
ATOM     24  O   UNL     1       0.002  -0.004   0.002  0.00  0.00    -0.268 OA
ATOM     25  N   UNL     1      -1.185   1.888   0.018  0.00  0.00    -0.279 N 
ATOM     26  C   UNL     1      -1.183   3.250   0.030  0.00  0.00    +0.172 A 
ATOM     27  N   UNL     1      -0.052   3.930   0.023  0.00  0.00    -0.228 NA
BRANCH  26  28
ATOM     28  S   UNL     1      -2.716   4.119   0.049  0.00  0.00    -0.091 S 
ATOM     29  C   UNL     1      -2.111   5.824   0.052  0.00  0.00    +0.093 C 
ENDBRANCH  26  28
ENDBRANCH  19  25
ENDBRANCH   1  19
TORSDOF 6
