REMARK  Name = ZINC39608873
REMARK  10 active torsions:
REMARK  status: ('A' for Active; 'I' for Inactive)
REMARK    1  A    between atoms: C_1  and  C_2
REMARK    2  A    between atoms: C_2  and  C_3
REMARK    3  A    between atoms: C_3  and  C_4
REMARK    4  A    between atoms: C_4  and  C_6
REMARK    5  A    between atoms: C_4  and  C_7
REMARK    6  A    between atoms: C_11  and  C_20
REMARK    7  A    between atoms: N_22  and  C_23
REMARK    8  A    between atoms: C_28  and  O_30
REMARK    9  A    between atoms: O_30  and  C_31
REMARK   10  A    between atoms: C_31  and  C_32
REMARK                            x       y       z     vdW  Elec       q    Type
REMARK                         _______ _______ _______ _____ _____    ______ ____
ROOT
ATOM      1  C   UNL     1       1.304  -2.763   2.724  0.00  0.00    +0.218 C 
ATOM      2  O   UNL     1       1.579  -2.058   3.671  0.00  0.00    -0.275 OA
ATOM      3  N   UNL     1       1.553  -4.086   2.774  0.00  0.00    -0.300 N 
ATOM      4  C   UNL     1       1.392  -5.083   1.689  0.00  0.00    +0.121 C 
ATOM      5  C   UNL     1       2.610  -6.023   1.838  0.00  0.00    +0.100 C 
ATOM      6  C   UNL     1       3.035  -5.883   3.309  0.00  0.00    -0.004 C 
ATOM      7  C   UNL     1       2.056  -4.873   3.926  0.00  0.00    +0.115 C 
ATOM      8  C   UNL     1       4.461  -5.347   3.398  0.00  0.00    -0.010 C 
ATOM      9  C   UNL     1       4.882  -5.271   4.869  0.00  0.00    -0.082 C 
ATOM     10  N   UNL     1       4.801  -6.606   5.473  0.00  0.00    +0.379 N 
ATOM     11  C   UNL     1       3.410  -7.075   5.467  0.00  0.00    -0.082 C 
ATOM     12  C   UNL     1       2.927  -7.228   4.021  0.00  0.00    -0.010 C 
ATOM     13  H   UNL     1       5.373  -7.248   4.945  0.00  0.00    -0.086 HD
ATOM     14  H   UNL     1       5.136  -6.565   6.423  0.00  0.00    -0.086 HD
ENDROOT
BRANCH   5  15
ATOM     15  C   UNL     1       2.214  -7.445   1.537  0.00  0.00    +0.218 C 
ATOM     16  O   UNL     1       1.082  -7.820   1.759  0.00  0.00    -0.275 OA
ATOM     17  N   UNL     1       3.119  -8.301   1.021  0.00  0.00    -0.310 N 
ATOM     18  H   UNL     1       4.024  -8.001   0.844  0.00  0.00    +0.149 HD
BRANCH  17  19
ATOM     19  C   UNL     1       2.734  -9.684   0.728  0.00  0.00    +0.102 C 
ATOM     20  C   UNL     1       2.919 -10.559   1.980  0.00  0.00    +0.025 C 
ATOM     21  C   UNL     1       3.949 -11.646   1.611  0.00  0.00    +0.004 C 
ATOM     22  C   UNL     1       3.858 -11.746   0.067  0.00  0.00    +0.033 C 
ATOM     23  C   UNL     1       3.658 -10.270  -0.360  0.00  0.00    +0.139 C 
BRANCH  23  24
ATOM     24  O   UNL     1       3.028 -10.200  -1.641  0.00  0.00    -0.370 OA
BRANCH  24  25
ATOM     25  C   UNL     1       3.941 -10.061  -2.731  0.00  0.00    +0.195 C 
BRANCH  25  26
ATOM     26  C   UNL     1       3.173  -9.998  -4.026  0.00  0.00    -0.022 A 
ATOM     27  C   UNL     1       2.881 -11.161  -4.714  0.00  0.00    +0.006 A 
ATOM     28  C   UNL     1       2.176 -11.103  -5.901  0.00  0.00    +0.000 A 
ATOM     29  C   UNL     1       1.762  -9.882  -6.401  0.00  0.00    +0.000 A 
ATOM     30  C   UNL     1       2.052  -8.719  -5.712  0.00  0.00    +0.000 A 
ATOM     31  C   UNL     1       2.754  -8.777  -4.522  0.00  0.00    +0.006 A 
ENDBRANCH  25  26
ENDBRANCH  24  25
ENDBRANCH  23  24
ENDBRANCH  17  19
ENDBRANCH   5  15
BRANCH   1  32
ATOM     32  C   UNL     1       0.685  -2.159   1.489  0.00  0.00    +0.072 C 
ATOM     33  C   UNL     1       1.791  -1.709   0.532  0.00  0.00    +0.017 C 
BRANCH  32  34
ATOM     34  C   UNL     1      -0.168  -0.953   1.885  0.00  0.00    +0.012 C 
BRANCH  34  36
ATOM     35  C   UNL     1      -1.749   0.791   1.046  0.00  0.00    +0.004 C 
ATOM     36  C   UNL     1      -0.895  -0.415   0.651  0.00  0.00    -0.003 C 
ENDBRANCH  34  36
ENDBRANCH  32  34
ENDBRANCH   1  32
TORSDOF 8
