REMARK  Name = ZINC08739375
REMARK  6 active torsions:
REMARK  status: ('A' for Active; 'I' for Inactive)
REMARK    1  A    between atoms: C_4  and  C_7
REMARK    2  A    between atoms: C_7  and  C_8
REMARK    3  A    between atoms: C_8  and  C_10
REMARK    4  A    between atoms: C_8  and  N_26
REMARK    5  A    between atoms: C_27  and  C_29
REMARK    6  A    between atoms: C_29  and  C_30
REMARK                            x       y       z     vdW  Elec       q    Type
REMARK                         _______ _______ _______ _____ _____    ______ ____
ROOT
ATOM      1  C   UNL     1      -3.012   4.125  -1.396  0.00  0.00    +0.163 C 
ENDROOT
BRANCH   1   2
ATOM      2  C   UNL     1      -4.327   4.861  -1.373  0.00  0.00    +0.236 C 
ATOM      3  O   UNL     1      -5.368   4.243  -1.452  0.00  0.00    -0.274 OA
ATOM      4  N   UNL     1      -4.347   6.204  -1.264  0.00  0.00    -0.300 N 
ATOM      5  C   UNL     1      -3.095   6.973  -1.265  0.00  0.00    +0.107 C 
ATOM      6  C   UNL     1      -3.059   7.866  -0.027  0.00  0.00    +0.013 C 
ATOM      7  C   UNL     1      -4.326   8.722   0.020  0.00  0.00    -0.022 C 
ATOM      8  C   UNL     1      -5.557   7.820   0.106  0.00  0.00    +0.013 C 
ATOM      9  C   UNL     1      -5.620   6.926  -1.137  0.00  0.00    +0.107 C 
ATOM     10  C   UNL     1      -4.278   9.635   1.215  0.00  0.00    +0.027 A 
ATOM     11  C   UNL     1      -3.988  10.955   1.140  0.00  0.00    +0.059 A 
ATOM     12  N   UNL     1      -4.035  11.459   2.373  0.00  0.00    -0.241 NA
ATOM     13  C   UNL     1      -4.340  10.505   3.214  0.00  0.00    +0.196 A 
ATOM     14  N   UNL     1      -4.500   9.350   2.525  0.00  0.00    -0.349 N 
ATOM     15  H   UNL     1      -4.735   8.457   2.908  0.00  0.00    +0.166 HD
ATOM     16  C   UNL     1      -3.677  11.655  -0.160  0.00  0.00    +0.038 C 
ATOM     17  C   UNL     1      -3.359  10.582  -1.211  0.00  0.00    -0.075 C 
ATOM     18  N   UNL     1      -4.414   9.547  -1.206  0.00  0.00    +0.387 N 
ATOM     19  H   UNL     1      -5.334  10.002  -1.241  0.00  0.00    -0.085 HD
ATOM     20  H   UNL     1      -4.299   8.943  -2.028  0.00  0.00    -0.085 HD
ENDBRANCH   1   2
BRANCH   1  21
ATOM     21  N   UNL     1      -3.186   2.834  -2.066  0.00  0.00    -0.303 N 
ATOM     22  C   UNL     1      -2.132   2.232  -2.654  0.00  0.00    +0.218 C 
ATOM     23  O   UNL     1      -1.040   2.760  -2.627  0.00  0.00    -0.275 OA
ATOM     24  H   UNL     1      -4.059   2.413  -2.088  0.00  0.00    +0.149 HD
BRANCH  22  25
ATOM     25  C   UNL     1      -2.311   0.904  -3.343  0.00  0.00    +0.130 C 
BRANCH  25  26
ATOM     26  C   UNL     1      -0.991   0.452  -3.912  0.00  0.00    -0.039 A 
ATOM     27  C   UNL     1      -0.636   0.805  -5.201  0.00  0.00    +0.004 A 
ATOM     28  C   UNL     1       0.577   0.395  -5.721  0.00  0.00    +0.000 A 
ATOM     29  C   UNL     1       1.430  -0.378  -4.957  0.00  0.00    +0.000 A 
ATOM     30  C   UNL     1       1.073  -0.736  -3.670  0.00  0.00    +0.000 A 
ATOM     31  C   UNL     1      -0.137  -0.321  -3.148  0.00  0.00    +0.004 A 
ENDBRANCH  25  26
ENDBRANCH  22  25
ENDBRANCH   1  21
BRANCH   1  32
ATOM     32  C   UNL     1      -2.531   3.895   0.038  0.00  0.00    +0.067 C 
BRANCH  32  36
ATOM     33  C   UNL     1       1.386   2.191  -0.029  0.00  0.00    +0.000 A 
ATOM     34  C   UNL     1       0.274   1.369  -0.035  0.00  0.00    +0.000 A 
ATOM     35  C   UNL     1      -0.993   1.921  -0.019  0.00  0.00    +0.004 A 
ATOM     36  C   UNL     1      -1.149   3.294   0.014  0.00  0.00    -0.045 A 
ATOM     37  C   UNL     1      -0.038   4.116   0.019  0.00  0.00    +0.004 A 
ATOM     38  C   UNL     1       1.230   3.565  -0.002  0.00  0.00    +0.000 A 
ENDBRANCH  32  36
ENDBRANCH   1  32
TORSDOF 6
