REMARK  Name = ZINC01830444
REMARK  8 active torsions:
REMARK  status: ('A' for Active; 'I' for Inactive)
REMARK    1  A    between atoms: C_1  and  C_2
REMARK    2  A    between atoms: C_5  and  C_8
REMARK    3  A    between atoms: C_11  and  S_20
REMARK    4  A    between atoms: N_12  and  C_13
REMARK    5  A    between atoms: S_20  and  C_21
REMARK    6  A    between atoms: C_21  and  C_22
REMARK    7  A    between atoms: N_24  and  N_25
REMARK    8  A    between atoms: C_26  and  C_27
REMARK                            x       y       z     vdW  Elec       q    Type
REMARK                         _______ _______ _______ _____ _____    ______ ____
ROOT
ATOM      1  C   UNL     1       2.047   0.585  -0.014  0.00  0.00    +0.169 A 
ATOM      2  N   UNL     1       1.214  -0.430  -0.012  0.00  0.00    -0.128 NA
ATOM      3  N   UNL     1       0.002  -0.004   0.002  0.00  0.00    -0.122 NA
ATOM      4  C   UNL     1      -0.016   1.310   0.009  0.00  0.00    +0.197 A 
ATOM      5  N   UNL     1       1.285   1.733  -0.001  0.00  0.00    -0.270 N 
ENDROOT
BRANCH   1  10
ATOM      6  C   UNL     1       7.794   0.294  -0.070  0.00  0.00    +0.044 C 
ATOM      7  C   UNL     1       6.289   0.370  -0.055  0.00  0.00    -0.050 A 
ATOM      8  C   UNL     1       5.540  -0.751  -0.365  0.00  0.00    +0.004 A 
ATOM      9  C   UNL     1       4.162  -0.688  -0.353  0.00  0.00    +0.012 A 
ATOM     10  C   UNL     1       3.523   0.510  -0.028  0.00  0.00    +0.020 A 
ATOM     11  C   UNL     1       4.285   1.639   0.278  0.00  0.00    +0.012 A 
ATOM     12  C   UNL     1       5.663   1.561   0.268  0.00  0.00    +0.004 A 
ENDBRANCH   1  10
BRANCH   5  13
ATOM     13  C   UNL     1       1.747   3.057   0.001  0.00  0.00    +0.051 A 
ATOM     14  C   UNL     1       2.450   3.550  -1.090  0.00  0.00    +0.028 A 
ATOM     15  C   UNL     1       2.898   4.856  -1.088  0.00  0.00    +0.022 A 
ATOM     16  C   UNL     1       2.658   5.670   0.006  0.00  0.00    +0.041 A 
ATOM     17  C   UNL     1       1.963   5.179   1.097  0.00  0.00    +0.022 A 
ATOM     18  C   UNL     1       1.507   3.875   1.097  0.00  0.00    +0.028 A 
ATOM     19 CL   UNL     1       3.229   7.309   0.009  0.00  0.00    -0.084 Cl
ENDBRANCH   5  13
BRANCH   4  20
ATOM     20  S   UNL     1      -1.448   2.337   0.022  0.00  0.00    -0.076 S 
BRANCH  20  21
ATOM     21  C   UNL     1      -2.742   1.071   0.022  0.00  0.00    +0.174 C 
BRANCH  21  22
ATOM     22  C   UNL     1      -4.094   1.735   0.033  0.00  0.00    +0.242 C 
ATOM     23  O   UNL     1      -4.176   2.945   0.039  0.00  0.00    -0.273 OA
ATOM     24  N   UNL     1      -5.214   0.984   0.035  0.00  0.00    -0.206 N 
ATOM     25  H   UNL     1      -5.149   0.016   0.029  0.00  0.00    +0.177 HD
BRANCH  24  26
ATOM     26  N   UNL     1      -6.471   1.601   0.044  0.00  0.00    -0.188 NA
ATOM     27  C   UNL     1      -7.550   0.877   0.046  0.00  0.00    +0.140 C 
BRANCH  27  28
ATOM     28  C   UNL     1      -8.871   1.526   0.057  0.00  0.00    +0.020 A 
ATOM     29  C   UNL     1     -10.082   0.905   0.054  0.00  0.00    +0.093 A 
ATOM     30  N   UNL     1     -11.076   1.837   0.069  0.00  0.00    -0.360 N 
ATOM     31  H   UNL     1     -12.025   1.636   0.072  0.00  0.00    +0.165 HD
ATOM     32  C   UNL     1     -10.540   3.108   0.073  0.00  0.00    +0.047 A 
ATOM     33  C   UNL     1      -9.141   2.975   0.065  0.00  0.00    +0.008 A 
ATOM     34  C   UNL     1      -8.332   4.109   0.067  0.00  0.00    +0.010 A 
ATOM     35  C   UNL     1      -8.911   5.359   0.076  0.00  0.00    +0.001 A 
ATOM     36  C   UNL     1     -10.292   5.492   0.084  0.00  0.00    +0.002 A 
ATOM     37  C   UNL     1     -11.104   4.379   0.082  0.00  0.00    +0.026 A 
ENDBRANCH  27  28
ENDBRANCH  24  26
ENDBRANCH  21  22
ENDBRANCH  20  21
ENDBRANCH   4  20
TORSDOF 7
