REMARK  Name = ZINC01438234
REMARK  12 active torsions:
REMARK  status: ('A' for Active; 'I' for Inactive)
REMARK    1  A    between atoms: C_1  and  C_2
REMARK    2  A    between atoms: C_2  and  O_3
REMARK    3  A    between atoms: O_3  and  C_4
REMARK    4  A    between atoms: C_6  and  C_11
REMARK    5  A    between atoms: C_9  and  O_10
REMARK    6  A    between atoms: C_17  and  S_21
REMARK    7  A    between atoms: C_18  and  C_19
REMARK    8  A    between atoms: S_21  and  C_22
REMARK    9  A    between atoms: C_22  and  C_23
REMARK   10  A    between atoms: N_25  and  C_26
REMARK   11  A    between atoms: C_29  and  C_33
REMARK   12  A    between atoms: C_31  and  C_32
REMARK                            x       y       z     vdW  Elec       q    Type
REMARK                         _______ _______ _______ _____ _____    ______ ____
ROOT
ATOM      1  C   UNL     1      11.203   2.729   0.575  0.00  0.00    +0.071 C 
ATOM      2  C   UNL     1      10.762   3.969   1.355  0.00  0.00    +0.109 C 
ATOM      3  C   UNL     1       9.440   4.456   0.824  0.00  0.00    +0.218 C 
ATOM      4  O   UNL     1       9.200   5.644   0.802  0.00  0.00    -0.275 OA
ATOM      5  N   UNL     1       8.523   3.581   0.367  0.00  0.00    -0.279 N 
ATOM      6  C   UNL     1       8.775   2.226   0.383  0.00  0.00    +0.082 C 
ATOM      7  C   UNL     1      10.052   1.762   0.479  0.00  0.00    +0.065 C 
ATOM      8  H   UNL     1       7.674   3.907   0.027  0.00  0.00    +0.155 HD
ENDROOT
BRANCH   1  11
ATOM      9  C   UNL     1      13.325   3.252  -2.506  0.00  0.00    +0.162 A 
ATOM     10  C   UNL     1      12.928   2.884  -1.231  0.00  0.00    +0.053 A 
ATOM     11  C   UNL     1      11.635   3.135  -0.810  0.00  0.00    -0.035 A 
ATOM     12  C   UNL     1      10.739   3.763  -1.656  0.00  0.00    +0.008 A 
ATOM     13  C   UNL     1      11.131   4.137  -2.928  0.00  0.00    +0.049 A 
ATOM     14  C   UNL     1      12.423   3.884  -3.358  0.00  0.00    +0.158 A 
BRANCH  14  15
ATOM     15  O   UNL     1      12.810   4.252  -4.609  0.00  0.00    -0.503 OA
ATOM     16  H   UNL     1      13.180   5.144  -4.660  0.00  0.00    +0.292 HD
ENDBRANCH  14  15
BRANCH   9  17
ATOM     17  O   UNL     1      14.595   3.001  -2.924  0.00  0.00    -0.489 OA
BRANCH  17  19
ATOM     18  C   UNL     1      16.840   2.154  -2.639  0.00  0.00    +0.048 C 
ATOM     19  C   UNL     1      15.466   2.350  -1.997  0.00  0.00    +0.226 C 
ENDBRANCH  17  19
ENDBRANCH   9  17
ENDBRANCH   1  11
BRANCH   7  20
ATOM     20  C   UNL     1      10.301   0.352   0.488  0.00  0.00    +0.098 C 
ATOM     21  N   UNL     1      10.499  -0.767   0.496  0.00  0.00    -0.191 NA
ENDBRANCH   7  20
BRANCH   6  22
ATOM     22  S   UNL     1       7.437   1.085   0.272  0.00  0.00    -0.100 S 
BRANCH  22  23
ATOM     23  C   UNL     1       6.047   2.240   0.172  0.00  0.00    +0.171 C 
BRANCH  23  24
ATOM     24  C   UNL     1       4.758   1.467   0.066  0.00  0.00    +0.227 C 
ATOM     25  O   UNL     1       4.777   0.255   0.059  0.00  0.00    -0.275 OA
ATOM     26  N   UNL     1       3.584   2.123  -0.020  0.00  0.00    -0.285 N 
ATOM     27  H   UNL     1       3.573   3.091  -0.095  0.00  0.00    +0.155 HD
BRANCH  26  28
ATOM     28  C   UNL     1       2.381   1.410  -0.002  0.00  0.00    +0.036 A 
ATOM     29  C   UNL     1       2.322   0.159   0.600  0.00  0.00    +0.024 A 
ATOM     30  C   UNL     1       1.133  -0.543   0.616  0.00  0.00    +0.005 A 
ATOM     31  C   UNL     1       0.001  -0.002   0.035  0.00  0.00    -0.050 A 
ATOM     32  C   UNL     1       0.056   1.242  -0.565  0.00  0.00    +0.008 A 
ATOM     33  C   UNL     1       1.242   1.950  -0.586  0.00  0.00    -0.029 A 
ATOM     34  C   UNL     1       1.301   3.306  -1.240  0.00  0.00    +0.045 C 
ATOM     35  C   UNL     1      -1.295  -0.771   0.055  0.00  0.00    +0.044 C 
ENDBRANCH  26  28
ENDBRANCH  23  24
ENDBRANCH  22  23
ENDBRANCH   6  22
TORSDOF 9
