REMARK  Name = ZINC67480859
REMARK  7 active torsions:
REMARK  status: ('A' for Active; 'I' for Inactive)
REMARK    1  A    between atoms: C_1  and  C_2
REMARK    2  A    between atoms: N_4  and  C_5
REMARK    3  A    between atoms: C_5  and  C_6
REMARK    4  A    between atoms: N_14  and  C_15
REMARK    5  A    between atoms: C_15  and  C_16
REMARK    6  A    between atoms: N_21  and  C_22
REMARK    7  A    between atoms: C_22  and  C_23
REMARK                            x       y       z     vdW  Elec       q    Type
REMARK                         _______ _______ _______ _____ _____    ______ ____
ROOT
ATOM      1  C   UNL     1      -2.546  -2.780   0.654  0.00  0.00    +0.009 C 
ATOM      2  C   UNL     1      -3.263  -2.496   1.976  0.00  0.00    +0.024 C 
ATOM      3  C   UNL     1      -4.714  -2.978   1.879  0.00  0.00    +0.109 C 
ATOM      4  N   UNL     1      -4.717  -4.392   1.483  0.00  0.00    -0.286 N 
ATOM      5  C   UNL     1      -3.981  -4.789   0.275  0.00  0.00    +0.109 C 
ATOM      6  C   UNL     1      -2.538  -4.287   0.390  0.00  0.00    +0.024 C 
ATOM      7  C   UNL     1      -5.383  -5.309   2.214  0.00  0.00    +0.302 C 
ATOM      8  O   UNL     1      -5.916  -4.984   3.257  0.00  0.00    -0.253 OA
ATOM      9  N   UNL     1      -5.457  -6.585   1.789  0.00  0.00    -0.301 N 
ATOM     10  H   UNL     1      -4.972  -6.861   0.996  0.00  0.00    +0.150 HD
ENDROOT
BRANCH   1  11
ATOM     11  C   UNL     1      -1.106  -2.269   0.735  0.00  0.00    +0.107 C 
BRANCH  11  15
ATOM     12  C   UNL     1       0.045   1.364   1.095  0.00  0.00    +0.109 C 
ATOM     13  C   UNL     1       0.051  -0.137   0.958  0.00  0.00    +0.210 C 
ATOM     14  O   UNL     1       1.104  -0.738   0.928  0.00  0.00    -0.276 OA
ATOM     15  N   UNL     1      -1.113  -0.810   0.869  0.00  0.00    -0.315 N 
ATOM     16  H   UNL     1      -1.954  -0.329   0.893  0.00  0.00    +0.149 HD
ENDBRANCH  11  15
ENDBRANCH   1  11
BRANCH   9  17
ATOM     17  C   UNL     1      -6.271  -7.556   2.524  0.00  0.00    +0.090 C 
BRANCH  17  18
ATOM     18  C   UNL     1      -6.184  -8.920   1.836  0.00  0.00    -0.051 C 
ATOM     19  C   UNL     1      -7.167  -9.907   2.500  0.00  0.00    -0.016 C 
ATOM     20  C   UNL     1      -8.405  -9.847   1.568  0.00  0.00    -0.020 C 
ATOM     21  C   UNL     1      -7.743  -9.674   0.178  0.00  0.00    -0.078 C 
ATOM     22  N   UNL     1      -6.576  -8.794   0.420  0.00  0.00    +0.383 N 
ATOM     23  H   UNL     1      -6.825  -7.836   0.221  0.00  0.00    -0.081 HD
BRANCH  22  24
ATOM     24  C   UNL     1      -5.458  -9.202  -0.441  0.00  0.00    -0.075 C 
BRANCH  24  25
ATOM     25  C   UNL     1      -5.828  -8.962  -1.906  0.00  0.00    -0.028 C 
ATOM     26  C   UNL     1      -4.692  -9.453  -2.806  0.00  0.00    +0.002 C 
ATOM     27  C   UNL     1      -5.063  -9.213  -4.271  0.00  0.00    +0.000 C 
ATOM     28  C   UNL     1      -5.287  -7.718  -4.502  0.00  0.00    +0.000 C 
ATOM     29  C   UNL     1      -6.423  -7.227  -3.602  0.00  0.00    +0.000 C 
ATOM     30  C   UNL     1      -6.052  -7.466  -2.137  0.00  0.00    +0.002 C 
ENDBRANCH  24  25
ENDBRANCH  22  24
ENDBRANCH  17  18
ENDBRANCH   9  17
TORSDOF 6
