REMARK  Name = ZINC58714947
REMARK  12 active torsions:
REMARK  status: ('A' for Active; 'I' for Inactive)
REMARK    1  A    between atoms: C_1  and  C_2
REMARK    2  A    between atoms: C_2  and  O_3
REMARK    3  A    between atoms: O_3  and  C_4
REMARK    4  A    between atoms: C_11  and  C_13
REMARK    5  A    between atoms: C_13  and  C_15
REMARK    6  A    between atoms: C_13  and  N_16
REMARK    7  A    between atoms: N_19  and  C_20
REMARK    8  A    between atoms: C_20  and  C_21
REMARK    9  A    between atoms: C_21  and  C_23
REMARK   10  A    between atoms: C_21  and  N_28
REMARK   11  A    between atoms: N_28  and  C_29
REMARK   12  A    between atoms: N_28  and  C_30
REMARK                            x       y       z     vdW  Elec       q    Type
REMARK                         _______ _______ _______ _____ _____    ______ ____
ROOT
ATOM      1  N   UNL     1      -6.025  -0.981  -1.608  0.00  0.00    -0.290 N 
ATOM      2  C   UNL     1      -7.351  -0.953  -1.848  0.00  0.00    +0.300 C 
ATOM      3  O   UNL     1      -8.081  -1.773  -1.326  0.00  0.00    -0.253 OA
ATOM      4  N   UNL     1      -7.867  -0.015  -2.667  0.00  0.00    -0.301 N 
ATOM      5  H   UNL     1      -5.442  -0.327  -2.025  0.00  0.00    +0.151 HD
ATOM      6  H   UNL     1      -7.285   0.638  -3.084  0.00  0.00    +0.150 HD
ENDROOT
BRANCH   1   7
ATOM      7  C   UNL     1      -5.463  -2.000  -0.718  0.00  0.00    +0.137 C 
ATOM      8  C   UNL     1      -5.567  -1.523   0.732  0.00  0.00    +0.036 C 
BRANCH   7  16
ATOM      9  C   UNL     1      -0.705  -1.234  -2.040  0.00  0.00    +0.163 A 
ATOM     10  C   UNL     1       0.395  -2.051  -2.229  0.00  0.00    +0.049 A 
ATOM     11  C   UNL     1       0.295  -3.422  -2.051  0.00  0.00    +0.004 A 
ATOM     12  C   UNL     1      -0.904  -3.990  -1.682  0.00  0.00    +0.012 A 
ATOM     13  C   UNL     1      -2.022  -3.179  -1.487  0.00  0.00    +0.024 A 
ATOM     14  C   UNL     1      -1.925  -1.790  -1.661  0.00  0.00    +0.177 A 
ATOM     15  O   UNL     1      -3.142  -1.267  -1.403  0.00  0.00    -0.454 OA
ATOM     16  C   UNL     1      -4.016  -2.231  -1.068  0.00  0.00    +0.126 A 
ATOM     17  C   UNL     1      -3.417  -3.430  -1.103  0.00  0.00    +0.055 A 
BRANCH   9  18
ATOM     18  O   UNL     1      -0.594   0.110  -2.218  0.00  0.00    -0.489 OA
BRANCH  18  20
ATOM     19  C   UNL     1       0.617   2.130  -2.758  0.00  0.00    +0.048 C 
ATOM     20  C   UNL     1       0.687   0.609  -2.607  0.00  0.00    +0.226 C 
ENDBRANCH  18  20
ENDBRANCH   9  18
ENDBRANCH   7  16
ENDBRANCH   1   7
BRANCH   4  21
ATOM     21  C   UNL     1      -9.309   0.016  -2.928  0.00  0.00    +0.095 C 
BRANCH  21  22
ATOM     22  C   UNL     1      -9.647   1.242  -3.778  0.00  0.00    -0.014 C 
BRANCH  22  23
ATOM     23  C   UNL     1      -9.361   2.494  -2.989  0.00  0.00    -0.022 A 
ATOM     24  C   UNL     1      -8.289   3.320  -3.056  0.00  0.00    +0.009 A 
ATOM     25  C   UNL     1      -8.240   4.424  -2.227  0.00  0.00    +0.008 A 
ATOM     26  C   UNL     1      -9.266   4.649  -1.370  0.00  0.00    +0.045 A 
ATOM     27  S   UNL     1     -10.353   3.279  -1.728  0.00  0.00    -0.103 S 
ENDBRANCH  22  23
BRANCH  22  28
ATOM     28  N   UNL     1     -11.069   1.207  -4.144  0.00  0.00    +0.382 N 
ATOM     29  C   UNL     1     -11.410   2.420  -4.899  0.00  0.00    -0.096 C 
ATOM     30  C   UNL     1     -11.332   0.024  -4.973  0.00  0.00    -0.096 C 
ATOM     31  H   UNL     1     -11.631   1.163  -3.307  0.00  0.00    -0.082 HD
ENDBRANCH  22  28
ENDBRANCH  21  22
ENDBRANCH   4  21
TORSDOF 8
