REMARK  Name = ZINC28463368
REMARK  6 active torsions:
REMARK  status: ('A' for Active; 'I' for Inactive)
REMARK    1  A    between atoms: C_1  and  C_2
REMARK    2  A    between atoms: C_10  and  N_15
REMARK    3  A    between atoms: N_15  and  S_16
REMARK    4  A    between atoms: S_16  and  C_19
REMARK    5  A    between atoms: C_22  and  O_28
REMARK    6  A    between atoms: C_23  and  C_25
REMARK                            x       y       z     vdW  Elec       q    Type
REMARK                         _______ _______ _______ _____ _____    ______ ____
ROOT
ATOM      1  N   UNL     1       1.161   3.493   0.010  0.00  0.00    -0.216 N 
ATOM      2  H   UNL     1       0.517   4.043  -0.692  0.00  0.00    +0.174 HD
ENDROOT
BRANCH   1  11
ATOM      3  C   UNL     1      -4.571  -2.257  -0.208  0.00  0.00    +0.008 C 
ATOM      4  C   UNL     1      -3.074  -2.292   0.101  0.00  0.00    -0.009 C 
ATOM      5  C   UNL     1      -2.404  -3.387  -0.735  0.00  0.00    +0.011 C 
ATOM      6  C   UNL     1      -0.964  -3.591  -0.252  0.00  0.00    +0.075 C 
ATOM      7  C   UNL     1      -0.283  -2.243  -0.187  0.00  0.00    +0.109 A 
ATOM      8  C   UNL     1      -0.948  -1.075  -0.187  0.00  0.00    +0.002 A 
ATOM      9  C   UNL     1       0.059  -0.018  -0.119  0.00  0.00    +0.025 A 
ATOM     10  C   UNL     1       0.016   1.376  -0.088  0.00  0.00    +0.036 A 
ATOM     11  C   UNL     1       1.196   2.095  -0.022  0.00  0.00    +0.049 A 
ATOM     12  C   UNL     1       2.420   1.429   0.012  0.00  0.00    +0.028 A 
ATOM     13  C   UNL     1       2.470   0.052  -0.018  0.00  0.00    +0.049 A 
ATOM     14  C   UNL     1       1.295  -0.686  -0.084  0.00  0.00    +0.136 A 
ATOM     15  O   UNL     1       1.038  -2.011  -0.125  0.00  0.00    -0.459 OA
ATOM     16  C   UNL     1      -2.446  -0.936  -0.244  0.00  0.00    +0.042 C 
ENDBRANCH   1  11
BRANCH   1  17
ATOM     17  S   UNL     1       2.089   4.320   1.104  0.00  0.00    +0.072 S 
ATOM     18  O   UNL     1       3.417   3.836   0.958  0.00  0.00    -0.150 OA
ATOM     19  O   UNL     1       1.759   5.694   0.960  0.00  0.00    -0.150 OA
BRANCH  17  20
ATOM     20  C   UNL     1       1.552   3.838   2.712  0.00  0.00    +0.110 A 
ATOM     21  C   UNL     1       0.475   4.481   3.300  0.00  0.00    +0.032 A 
ATOM     22  C   UNL     1       0.041   4.109   4.557  0.00  0.00    +0.048 A 
ATOM     23  C   UNL     1       0.690   3.094   5.245  0.00  0.00    +0.131 A 
ATOM     24  C   UNL     1       1.784   2.445   4.655  0.00  0.00    +0.106 A 
ATOM     25  C   UNL     1       2.209   2.828   3.380  0.00  0.00    +0.047 A 
BRANCH  24  26
ATOM     26  C   UNL     1       2.482   1.365   5.376  0.00  0.00    +0.390 C 
ATOM     27  O   UNL     1       2.110   1.035   6.484  0.00  0.00    -0.240 OA
ATOM     28  O   UNL     1       3.534   0.744   4.806  0.00  0.00    -0.240 OA
ENDBRANCH  24  26
BRANCH  23  29
ATOM     29  O   UNL     1       0.269   2.732   6.482  0.00  0.00    -0.506 OA
ATOM     30  H   UNL     1       0.785   1.926   7.025  0.00  0.00    +0.292 HD
ENDBRANCH  23  29
ENDBRANCH  17  20
ENDBRANCH   1  17
TORSDOF 5
