REMARK  Name = ZINC39935313
REMARK  5 active torsions:
REMARK  status: ('A' for Active; 'I' for Inactive)
REMARK    1  A    between atoms: N_11  and  C_12
REMARK    2  A    between atoms: N_15  and  C_18
REMARK    3  A    between atoms: C_18  and  C_19
REMARK    4  A    between atoms: N_21  and  C_22
REMARK    5  A    between atoms: C_24  and  C_32
REMARK                            x       y       z     vdW  Elec       q    Type
REMARK                         _______ _______ _______ _____ _____    ______ ____
ROOT
ATOM      1  C   UNL     1       4.875  -0.586  -0.046  0.00  0.00    +0.089 C 
ATOM      2  C   UNL     1       5.517  -1.188  -1.300  0.00  0.00    +0.006 C 
ATOM      3  C   UNL     1       7.026  -0.933  -1.266  0.00  0.00    -0.076 C 
ATOM      4  N   UNL     1       7.604  -1.558  -0.071  0.00  0.00    +0.386 N 
ATOM      5  C   UNL     1       7.046  -0.937   1.136  0.00  0.00    -0.076 C 
ATOM      6  C   UNL     1       5.538  -1.191   1.194  0.00  0.00    +0.006 C 
ATOM      7  H   UNL     1       7.389  -2.544  -0.071  0.00  0.00    -0.081 HD
ENDROOT
BRANCH   1  18
ATOM      8  C   UNL     1      -0.017   1.377   0.010  0.00  0.00    +0.002 A 
ATOM      9  C   UNL     1       1.169   2.091   0.002  0.00  0.00    +0.002 A 
ATOM     10  C   UNL     1       2.381   1.429  -0.013  0.00  0.00    +0.028 A 
ATOM     11  C   UNL     1       2.410   0.043  -0.021  0.00  0.00    +0.070 A 
ATOM     12  C   UNL     1       1.214  -0.678  -0.013  0.00  0.00    +0.067 A 
ATOM     13  C   UNL     1       0.002  -0.004   0.002  0.00  0.00    +0.028 A 
ATOM     14  N   UNL     1       1.557  -2.028  -0.023  0.00  0.00    -0.306 N 
ATOM     15  H   UNL     1       0.934  -2.772  -0.021  0.00  0.00    +0.170 HD
ATOM     16  C   UNL     1       2.900  -2.124  -0.036  0.00  0.00    +0.328 A 
ATOM     17  O   UNL     1       3.528  -3.166  -0.047  0.00  0.00    -0.247 OA
ATOM     18  N   UNL     1       3.443  -0.892  -0.035  0.00  0.00    -0.289 N 
ENDBRANCH   1  18
BRANCH   4  19
ATOM     19  C   UNL     1       9.062  -1.379  -0.083  0.00  0.00    +0.019 C 
BRANCH  19  20
ATOM     20  C   UNL     1       9.670  -2.124   1.077  0.00  0.00    +0.197 C 
ATOM     21  O   UNL     1       8.959  -2.744   1.839  0.00  0.00    -0.278 OA
ATOM     22  N   UNL     1      11.004  -2.102   1.268  0.00  0.00    -0.304 N 
ATOM     23  H   UNL     1      11.573  -1.606   0.658  0.00  0.00    +0.150 HD
BRANCH  22  24
ATOM     24  C   UNL     1      11.595  -2.826   2.396  0.00  0.00    +0.151 C 
ATOM     25  C   UNL     1      12.909  -3.531   1.992  0.00  0.00    +0.132 C 
ATOM     26  C   UNL     1      14.117  -2.652   2.255  0.00  0.00    -0.046 C 
ATOM     27  C   UNL     1      13.969  -1.650   3.103  0.00  0.00    -0.013 C 
ATOM     28  S   UNL     1      12.273  -1.673   3.659  0.00  0.00    -0.106 S 
ATOM     29  C   UNL     1      15.247  -0.868   3.295  0.00  0.00    +0.042 C 
ATOM     30  C   UNL     1      16.354  -1.794   2.745  0.00  0.00    +0.009 C 
ATOM     31  C   UNL     1      15.560  -2.648   1.738  0.00  0.00    +0.033 C 
BRANCH  25  32
ATOM     32  C   UNL     1      13.048  -4.806   2.784  0.00  0.00    +0.220 C 
ATOM     33  O   UNL     1      13.990  -4.954   3.534  0.00  0.00    -0.275 OA
ATOM     34  N   UNL     1      12.126  -5.781   2.659  0.00  0.00    -0.329 N 
ATOM     35  H   UNL     1      11.373  -5.662   2.060  0.00  0.00    +0.145 HD
ATOM     36  H   UNL     1      12.215  -6.601   3.169  0.00  0.00    +0.145 HD
ENDBRANCH  25  32
ENDBRANCH  22  24
ENDBRANCH  19  20
ENDBRANCH   4  19
TORSDOF 5
