REMARK  Name = ZINC22415203
REMARK  8 active torsions:
REMARK  status: ('A' for Active; 'I' for Inactive)
REMARK    1  A    between atoms: C_1  and  O_2
REMARK    2  A    between atoms: O_2  and  C_3
REMARK    3  A    between atoms: C_5  and  C_12
REMARK    4  A    between atoms: C_6  and  O_10
REMARK    5  A    between atoms: O_10  and  C_11
REMARK    6  A    between atoms: N_14  and  N_15
REMARK    7  A    between atoms: C_16  and  C_18
REMARK    8  A    between atoms: C_18  and  N_19
REMARK                            x       y       z     vdW  Elec       q    Type
REMARK                         _______ _______ _______ _____ _____    ______ ____
ROOT
ATOM      1  C   UNL     1      -1.183   1.601  -0.209  0.00  0.00    +0.264 C 
ATOM      2  O   UNL     1      -1.208   2.814  -0.125  0.00  0.00    -0.269 OA
ATOM      3  N   UNL     1      -0.003   0.950  -0.209  0.00  0.00    -0.230 N 
ATOM      4  H   UNL     1       0.020  -0.147  -0.280  0.00  0.00    +0.173 HD
ENDROOT
BRANCH   1   7
ATOM      5  C   UNL     1      -3.605  -1.256  -0.505  0.00  0.00    +0.122 A 
ATOM      6  C   UNL     1      -2.419  -0.551  -0.409  0.00  0.00    +0.062 A 
ATOM      7  C   UNL     1      -2.444   0.842  -0.312  0.00  0.00    +0.084 A 
ATOM      8  C   UNL     1      -3.673   1.515  -0.307  0.00  0.00    +0.146 A 
ATOM      9  C   UNL     1      -4.854   0.795  -0.411  0.00  0.00    +0.064 A 
ATOM     10  C   UNL     1      -4.820  -0.583  -0.506  0.00  0.00    +0.064 A 
ATOM     11 BR   UNL     1      -6.514   1.700  -0.414  0.00  0.00    -0.046 Br
BRANCH   5  13
ATOM     12  C   UNL     1      -4.842  -3.278  -0.696  0.00  0.00    +0.277 C 
ATOM     13  O   UNL     1      -3.581  -2.612  -0.600  0.00  0.00    -0.495 OA
ENDBRANCH   5  13
BRANCH   8  14
ATOM     14  O   UNL     1      -3.708   2.869  -0.208  0.00  0.00    -0.493 OA
ATOM     15  C   UNL     1      -3.677   3.610  -1.429  0.00  0.00    +0.277 C 
ENDBRANCH   8  14
ENDBRANCH   1   7
BRANCH   3  16
ATOM     16  N   UNL     1       1.195   1.671  -0.117  0.00  0.00    -0.233 N 
ATOM     17  C   UNL     1       2.375   1.020  -0.122  0.00  0.00    +0.246 C 
ATOM     18  O   UNL     1       2.400  -0.189  -0.206  0.00  0.00    -0.273 OA
ATOM     19  H   UNL     1       1.172   2.768  -0.041  0.00  0.00    +0.173 HD
BRANCH  17  20
ATOM     20  C   UNL     1       3.663   1.796  -0.023  0.00  0.00    +0.202 C 
BRANCH  20  21
ATOM     21  N   UNL     1       4.791   0.861   0.082  0.00  0.00    -0.321 N 
ATOM     22  C   UNL     1       5.014   0.163  -1.186  0.00  0.00    +0.106 C 
ATOM     23  C   UNL     1       6.180  -0.818  -1.009  0.00  0.00    +0.024 C 
ATOM     24  C   UNL     1       5.721  -1.929  -0.062  0.00  0.00    +0.038 C 
ATOM     25  C   UNL     1       5.048  -1.323   1.143  0.00  0.00    -0.026 A 
ATOM     26  C   UNL     1       4.623  -0.005   1.161  0.00  0.00    +0.033 A 
ATOM     27  C   UNL     1       3.999   0.497   2.304  0.00  0.00    +0.023 A 
ATOM     28  C   UNL     1       3.809  -0.307   3.407  0.00  0.00    +0.002 A 
ATOM     29  C   UNL     1       4.240  -1.621   3.385  0.00  0.00    +0.000 A 
ATOM     30  C   UNL     1       4.856  -2.125   2.257  0.00  0.00    +0.005 A 
ENDBRANCH  20  21
ENDBRANCH  17  20
ENDBRANCH   3  16
TORSDOF 6
