REMARK  Name = ZINC07884685
REMARK  8 active torsions:
REMARK  status: ('A' for Active; 'I' for Inactive)
REMARK    1  A    between atoms: C_1  and  O_2
REMARK    2  A    between atoms: O_2  and  C_3
REMARK    3  A    between atoms: C_5  and  C_11
REMARK    4  A    between atoms: C_7  and  O_10
REMARK    5  A    between atoms: C_8  and  O_9
REMARK    6  A    between atoms: N_22  and  C_23
REMARK    7  A    between atoms: C_23  and  C_24
REMARK    8  A    between atoms: C_24  and  C_25
REMARK                            x       y       z     vdW  Elec       q    Type
REMARK                         _______ _______ _______ _____ _____    ______ ____
ROOT
ATOM      1  C   UNL     1       6.664  -1.111  -1.442  0.00  0.00    +0.193 C 
ATOM      2  N   UNL     1       7.657  -1.914  -2.161  0.00  0.00    -0.321 N 
ATOM      3  C   UNL     1       7.663  -3.292  -1.973  0.00  0.00    +0.041 A 
ATOM      4  C   UNL     1       8.822  -4.041  -2.075  0.00  0.00    +0.024 A 
ATOM      5  C   UNL     1       8.774  -5.406  -1.868  0.00  0.00    +0.002 A 
ATOM      6  C   UNL     1       7.576  -6.031  -1.560  0.00  0.00    +0.001 A 
ATOM      7  C   UNL     1       6.411  -5.299  -1.457  0.00  0.00    +0.015 A 
ATOM      8  C   UNL     1       6.444  -3.923  -1.664  0.00  0.00    +0.058 A 
ATOM      9  C   UNL     1       5.229  -3.094  -1.570  0.00  0.00    +0.250 C 
ATOM     10  O   UNL     1       4.130  -3.614  -1.556  0.00  0.00    -0.270 OA
ATOM     11  N   UNL     1       5.350  -1.752  -1.501  0.00  0.00    -0.275 N 
ATOM     12  H   UNL     1       8.295  -1.493  -2.758  0.00  0.00    +0.148 HD
ENDROOT
BRANCH   1  15
ATOM     13  C   UNL     1       8.825  -0.756   1.638  0.00  0.00    +0.165 A 
ATOM     14  C   UNL     1       8.430  -0.883   0.315  0.00  0.00    +0.056 A 
ATOM     15  C   UNL     1       7.088  -0.974  -0.003  0.00  0.00    -0.002 A 
ATOM     16  C   UNL     1       6.133  -0.934   0.996  0.00  0.00    +0.056 A 
ATOM     17  C   UNL     1       6.520  -0.813   2.322  0.00  0.00    +0.162 A 
ATOM     18  C   UNL     1       7.869  -0.721   2.646  0.00  0.00    +0.201 A 
BRANCH  13  20
ATOM     19  C   UNL     1      11.073  -0.710   0.863  0.00  0.00    +0.277 C 
ATOM     20  O   UNL     1      10.146  -0.667   1.949  0.00  0.00    -0.491 OA
ENDBRANCH  13  20
BRANCH  18  21
ATOM     21  O   UNL     1       8.252  -0.597   3.946  0.00  0.00    -0.501 OA
ATOM     22  H   UNL     1       8.320   0.318   4.250  0.00  0.00    +0.292 HD
ENDBRANCH  18  21
BRANCH  17  23
ATOM     23  O   UNL     1       5.580  -0.779   3.305  0.00  0.00    -0.503 OA
ATOM     24  H   UNL     1       5.266   0.110   3.518  0.00  0.00    +0.292 HD
ENDBRANCH  17  23
ENDBRANCH   1  15
BRANCH  11  25
ATOM     25  C   UNL     1       4.144  -0.920  -1.490  0.00  0.00    +0.115 C 
BRANCH  25  26
ATOM     26  C   UNL     1       3.689  -0.663  -2.928  0.00  0.00    +0.054 C 
BRANCH  26  27
ATOM     27  C   UNL     1       2.383   0.089  -2.915  0.00  0.00    -0.046 A 
ATOM     28  C   UNL     1       2.381   1.471  -2.912  0.00  0.00    +0.004 A 
ATOM     29  C   UNL     1       1.183   2.161  -2.900  0.00  0.00    +0.000 A 
ATOM     30  C   UNL     1      -0.013   1.468  -2.891  0.00  0.00    +0.000 A 
ATOM     31  C   UNL     1      -0.011   0.086  -2.894  0.00  0.00    +0.000 A 
ATOM     32  C   UNL     1       1.187  -0.604  -2.906  0.00  0.00    +0.004 A 
ENDBRANCH  26  27
ENDBRANCH  25  26
ENDBRANCH  11  25
TORSDOF 7
