REMARK  Name = ZINC03246193
REMARK  9 active torsions:
REMARK  status: ('A' for Active; 'I' for Inactive)
REMARK    1  A    between atoms: C_1  and  N_65
REMARK    2  A    between atoms: C_2  and  C_3
REMARK    3  A    between atoms: C_2  and  N_65
REMARK    4  A    between atoms: C_9  and  N_10
REMARK    5  A    between atoms: C_9  and  N_65
REMARK    6  A    between atoms: N_13  and  C_30
REMARK    7  A    between atoms: C_14  and  C_16
REMARK    8  A    between atoms: C_20  and  S_22
REMARK    9  A    between atoms: S_22  and  N_25
REMARK                            x       y       z     vdW  Elec       q    Type
REMARK                         _______ _______ _______ _____ _____    ______ ____
ROOT
ATOM      1  N   UNL     1      -4.665  -1.305   4.278  0.00  0.00    -0.257 N 
ATOM      2  C   UNL     1      -5.066  -0.324   5.112  0.00  0.00    +0.181 A 
ATOM      3  S   UNL     1      -6.151  -0.493   6.425  0.00  0.00    -0.011 S 
ATOM      4  N   UNL     1      -4.453   0.814   4.728  0.00  0.00    -0.271 N 
ATOM      5  C   UNL     1      -3.664   0.531   3.628  0.00  0.00    +0.167 A 
ATOM      6  N   UNL     1      -3.780  -0.738   3.351  0.00  0.00    -0.152 NA
ENDROOT
BRANCH   5   7
ATOM      7  C   UNL     1      -2.825   1.503   2.893  0.00  0.00    +0.021 A 
ATOM      8  C   UNL     1      -3.061   2.872   3.023  0.00  0.00    +0.012 A 
ATOM      9  C   UNL     1      -2.276   3.773   2.335  0.00  0.00    +0.003 A 
ATOM     10  C   UNL     1      -1.251   3.322   1.521  0.00  0.00    +0.028 A 
ATOM     11  C   UNL     1      -1.015   1.966   1.384  0.00  0.00    +0.106 A 
ATOM     12  C   UNL     1      -1.794   1.054   2.067  0.00  0.00    +0.040 A 
BRANCH  11  13
ATOM     13  S   UNL     1       0.287   1.401   0.340  0.00  0.00    +0.061 S 
ATOM     14  O   UNL     1       0.656   0.113   0.812  0.00  0.00    -0.153 OA
ATOM     15  O   UNL     1       1.218   2.470   0.238  0.00  0.00    -0.153 OA
BRANCH  13  16
ATOM     16  N   UNL     1      -0.354   1.187  -1.171  0.00  0.00    -0.177 NA
ATOM     17  C   UNL     1      -0.950  -0.057  -1.680  0.00  0.00    +0.109 C 
ATOM     18  C   UNL     1      -1.388   0.206  -3.136  0.00  0.00    +0.018 C 
ATOM     19  C   UNL     1      -0.495   1.405  -3.553  0.00  0.00    +0.018 C 
ATOM     20  C   UNL     1      -0.417   2.209  -2.231  0.00  0.00    +0.109 C 
ENDBRANCH  13  16
ENDBRANCH  11  13
ENDBRANCH   5   7
BRANCH   4  21
ATOM     21  C   UNL     1      -4.594   2.068   5.336  0.00  0.00    +0.050 A 
ATOM     22  C   UNL     1      -3.526   2.633   6.021  0.00  0.00    +0.026 A 
ATOM     23  C   UNL     1      -3.666   3.872   6.615  0.00  0.00    +0.002 A 
ATOM     24  C   UNL     1      -4.871   4.545   6.538  0.00  0.00    +0.000 A 
ATOM     25  C   UNL     1      -5.938   3.982   5.861  0.00  0.00    +0.002 A 
ATOM     26  C   UNL     1      -5.803   2.746   5.261  0.00  0.00    +0.026 A 
ENDBRANCH   4  21
BRANCH   1  27
ATOM     27  C   UNL     1      -5.079  -2.710   4.333  0.00  0.00    +0.072 C 
BRANCH  27  29
ATOM     28  C   UNL     1      -2.811  -3.514   4.600  0.00  0.00    -0.093 C 
ATOM     29  N   UNL     1      -4.152  -3.446   5.218  0.00  0.00    +0.394 N 
ATOM     30  H   UNL     1      -4.082  -2.950   6.114  0.00  0.00    -0.079 HD
BRANCH  29  31
ATOM     31  C   UNL     1      -4.664  -4.810   5.463  0.00  0.00    -0.041 C 
BRANCH  31  32
ATOM     32  C   UNL     1      -3.826  -5.459   6.534  0.00  0.00    -0.064 A 
ATOM     33  C   UNL     1      -2.716  -6.205   6.186  0.00  0.00    +0.002 A 
ATOM     34  C   UNL     1      -1.944  -6.796   7.168  0.00  0.00    +0.000 A 
ATOM     35  C   UNL     1      -2.288  -6.650   8.499  0.00  0.00    +0.000 A 
ATOM     36  C   UNL     1      -3.402  -5.909   8.847  0.00  0.00    +0.000 A 
ATOM     37  C   UNL     1      -4.170  -5.313   7.865  0.00  0.00    +0.002 A 
ENDBRANCH  31  32
ENDBRANCH  29  31
ENDBRANCH  27  29
ENDBRANCH   1  27
TORSDOF 8
