REMARK  Name = ZINC11916361
REMARK  8 active torsions:
REMARK  status: ('A' for Active; 'I' for Inactive)
REMARK    1  A    between atoms: C_1  and  C_2
REMARK    2  A    between atoms: C_5  and  O_30
REMARK    3  A    between atoms: C_6  and  C_8
REMARK    4  A    between atoms: N_16  and  C_26
REMARK    5  A    between atoms: C_17  and  C_19
REMARK    6  A    between atoms: C_26  and  C_27
REMARK    7  A    between atoms: C_27  and  C_28
REMARK    8  A    between atoms: C_28  and  O_29
REMARK                            x       y       z     vdW  Elec       q    Type
REMARK                         _______ _______ _______ _____ _____    ______ ____
ROOT
ATOM      1  C   UNL     1       0.273  -2.914   2.866  0.00  0.00    +0.102 A 
ATOM      2  C   UNL     1       0.255  -4.312   2.822  0.00  0.00    +0.035 A 
ATOM      3  C   UNL     1       0.183  -4.729   4.138  0.00  0.00    +0.126 A 
ATOM      4  N   UNL     1       0.160  -3.592   4.895  0.00  0.00    -0.272 N 
ATOM      5  H   UNL     1       0.112  -3.569   5.864  0.00  0.00    +0.189 HD
ATOM      6  N   UNL     1       0.218  -2.558   4.134  0.00  0.00    -0.173 NA
ATOM      7  C   UNL     1       0.161  -6.196   4.162  0.00  0.00    +0.265 C 
ATOM      8  O   UNL     1       0.100  -6.873   5.171  0.00  0.00    -0.268 OA
ATOM      9  N   UNL     1       0.218  -6.686   2.911  0.00  0.00    -0.285 N 
ATOM     10  C   UNL     1       0.281  -5.555   1.976  0.00  0.00    +0.141 C 
ENDROOT
BRANCH   1  16
ATOM     11  C   UNL     1      -1.312  -1.569  -1.673  0.00  0.00    +0.044 C 
ATOM     12  C   UNL     1      -0.413  -1.349  -0.484  0.00  0.00    -0.050 A 
ATOM     13  C   UNL     1       0.481  -0.293  -0.481  0.00  0.00    +0.007 A 
ATOM     14  C   UNL     1       1.309  -0.084   0.605  0.00  0.00    +0.046 A 
ATOM     15  C   UNL     1       1.248  -0.933   1.699  0.00  0.00    +0.126 A 
ATOM     16  C   UNL     1       0.345  -2.000   1.699  0.00  0.00    +0.044 A 
ATOM     17  C   UNL     1      -0.489  -2.198   0.602  0.00  0.00    +0.017 A 
BRANCH  15  18
ATOM     18  O   UNL     1       2.062  -0.728   2.767  0.00  0.00    -0.506 OA
ATOM     19  H   UNL     1       1.713  -0.099   3.413  0.00  0.00    +0.292 HD
ENDBRANCH  15  18
ENDBRANCH   1  16
BRANCH  10  20
ATOM     20  C   UNL     1       1.559  -5.612   1.178  0.00  0.00    -0.022 A 
ATOM     21  C   UNL     1       2.750  -5.930   1.803  0.00  0.00    +0.008 A 
ATOM     22  C   UNL     1       3.922  -5.983   1.072  0.00  0.00    +0.038 A 
ATOM     23  C   UNL     1       3.902  -5.718  -0.287  0.00  0.00    +0.123 A 
ATOM     24  C   UNL     1       2.708  -5.401  -0.912  0.00  0.00    +0.038 A 
ATOM     25  C   UNL     1       1.537  -5.353  -0.180  0.00  0.00    +0.008 A 
ATOM     26  F   UNL     1       5.047  -5.770  -1.002  0.00  0.00    -0.205 F 
ENDBRANCH  10  20
BRANCH   9  27
ATOM     27  C   UNL     1       0.216  -8.104   2.543  0.00  0.00    +0.111 C 
BRANCH  27  28
ATOM     28  C   UNL     1      -1.224  -8.577   2.342  0.00  0.00    +0.047 C 
BRANCH  28  29
ATOM     29  C   UNL     1      -1.226 -10.059   1.958  0.00  0.00    +0.157 C 
BRANCH  29  30
ATOM     30  O   UNL     1      -2.572 -10.500   1.770  0.00  0.00    -0.395 OA
ATOM     31  H   UNL     1      -2.649 -11.432   1.525  0.00  0.00    +0.209 HD
ENDBRANCH  29  30
ENDBRANCH  28  29
ENDBRANCH  27  28
ENDBRANCH   9  27
TORSDOF 7
