REMARK  Name = ZINC40316986
REMARK  13 active torsions:
REMARK  status: ('A' for Active; 'I' for Inactive)
REMARK    1  A    between atoms: C_1  and  C_2
REMARK    2  A    between atoms: C_2  and  C_3
REMARK    3  A    between atoms: C_2  and  C_4
REMARK    4  A    between atoms: C_2  and  C_5
REMARK    5  A    between atoms: C_8  and  C_11
REMARK    6  A    between atoms: C_11  and  N_12
REMARK    7  A    between atoms: N_12  and  C_13
REMARK    8  A    between atoms: N_12  and  C_26
REMARK    9  A    between atoms: C_13  and  C_14
REMARK   10  A    between atoms: C_14  and  C_16
REMARK   11  A    between atoms: C_14  and  O_25
REMARK   12  A    between atoms: C_16  and  O_17
REMARK   13  A    between atoms: O_17  and  C_18
REMARK                            x       y       z     vdW  Elec       q    Type
REMARK                         _______ _______ _______ _____ _____    ______ ____
ROOT
ATOM      1  N   UNL     1       2.631  -0.801  -5.860  0.00  0.00    +0.387 N 
ATOM      2  H   UNL     1       1.984  -0.046  -6.031  0.00  0.00    -0.081 HD
ENDROOT
BRANCH   1   3
ATOM      3  C   UNL     1       3.911  -0.252  -5.393  0.00  0.00    -0.045 C 
ATOM      4  C   UNL     1       3.668   0.689  -4.200  0.00  0.00    +0.009 C 
ATOM      5  C   UNL     1       4.946   1.512  -3.909  0.00  0.00    +0.164 C 
ATOM      6  S   UNL     1       5.753   1.604  -5.559  0.00  0.00    -0.033 S 
ATOM      7  O   UNL     1       7.008   0.941  -5.498  0.00  0.00    -0.174 OA
ATOM      8  O   UNL     1       5.692   2.944  -6.028  0.00  0.00    -0.174 OA
ATOM      9  C   UNL     1       4.576   0.573  -6.532  0.00  0.00    +0.151 C 
ENDBRANCH   1   3
BRANCH   1  10
ATOM     10  C   UNL     1       2.079  -1.697  -4.835  0.00  0.00    -0.042 C 
BRANCH  10  14
ATOM     11  C   UNL     1       0.850   0.598  -1.448  0.00  0.00    -0.042 A 
ATOM     12  C   UNL     1       0.372   0.912  -2.706  0.00  0.00    +0.004 A 
ATOM     13  C   UNL     1       0.770   0.170  -3.802  0.00  0.00    +0.002 A 
ATOM     14  C   UNL     1       1.647  -0.887  -3.640  0.00  0.00    -0.064 A 
ATOM     15  C   UNL     1       2.126  -1.200  -2.382  0.00  0.00    +0.002 A 
ATOM     16  C   UNL     1       1.731  -0.455  -1.287  0.00  0.00    +0.004 A 
BRANCH  11  18
ATOM     17  C   UNL     1       1.643   2.047   0.402  0.00  0.00    +0.015 C 
ATOM     18  C   UNL     1       0.417   1.407  -0.253  0.00  0.00    -0.013 C 
ATOM     19  C   UNL     1      -0.281   0.493   0.756  0.00  0.00    +0.015 C 
ATOM     20  C   UNL     1      -0.551   2.503  -0.704  0.00  0.00    +0.015 C 
ENDBRANCH  11  18
ENDBRANCH  10  14
ENDBRANCH   1  10
BRANCH   1  21
ATOM     21  C   UNL     1       2.846  -1.553  -7.104  0.00  0.00    -0.043 C 
BRANCH  21  22
ATOM     22  C   UNL     1       2.412  -0.700  -8.297  0.00  0.00    +0.135 C 
BRANCH  22  23
ATOM     23  O   UNL     1       0.999  -0.489  -8.243  0.00  0.00    -0.390 OA
ATOM     24  H   UNL     1       0.479  -1.304  -8.270  0.00  0.00    +0.210 HD
ENDBRANCH  22  23
BRANCH  22  25
ATOM     25  C   UNL     1       2.770  -1.422  -9.597  0.00  0.00    +0.258 C 
BRANCH  25  26
ATOM     26  O   UNL     1       2.471  -0.576 -10.710  0.00  0.00    -0.488 OA
BRANCH  26  27
ATOM     27  C   UNL     1       2.733  -1.071 -11.949  0.00  0.00    +0.135 A 
ATOM     28  C   UNL     1       3.261  -2.346 -12.091  0.00  0.00    +0.047 A 
ATOM     29  C   UNL     1       3.526  -2.846 -13.351  0.00  0.00    +0.004 A 
ATOM     30  C   UNL     1       3.266  -2.077 -14.470  0.00  0.00    +0.001 A 
ATOM     31  C   UNL     1       2.740  -0.806 -14.332  0.00  0.00    +0.019 A 
ATOM     32  C   UNL     1       2.467  -0.303 -13.074  0.00  0.00    +0.059 A 
ATOM     33 BR   UNL     1       1.740   1.432 -12.886  0.00  0.00    -0.047 Br
ENDBRANCH  26  27
ENDBRANCH  25  26
ENDBRANCH  22  25
ENDBRANCH  21  22
ENDBRANCH   1  21
TORSDOF 10
