REMARK  Name = ZINC06781832
REMARK  9 active torsions:
REMARK  status: ('A' for Active; 'I' for Inactive)
REMARK    1  A    between atoms: C_1  and  C_2
REMARK    2  A    between atoms: C_2  and  C_3
REMARK    3  A    between atoms: C_2  and  N_51
REMARK    4  A    between atoms: C_10  and  C_22
REMARK    5  A    between atoms: C_12  and  C_18
REMARK    6  A    between atoms: C_12  and  C_20
REMARK    7  A    between atoms: C_14  and  C_15
REMARK    8  A    between atoms: C_24  and  O_29
REMARK    9  A    between atoms: O_29  and  C_30
REMARK                            x       y       z     vdW  Elec       q    Type
REMARK                         _______ _______ _______ _____ _____    ______ ____
ROOT
ATOM      1  C   UNL     1       3.996  -0.022  -3.594  0.00  0.00    -0.051 C 
ATOM      2  C   UNL     1       4.873   0.076  -2.370  0.00  0.00    -0.044 C 
ATOM      3  C   UNL     1       4.490   0.803  -1.337  0.00  0.00    -0.051 C 
ATOM      4  C   UNL     1       3.221   1.605  -1.326  0.00  0.00    +0.010 C 
ATOM      5  C   UNL     1       2.337   1.365  -2.529  0.00  0.00    -0.070 C 
ATOM      6  C   UNL     1       2.488   1.318  -0.014  0.00  0.00    +0.067 C 
ATOM      7  C   UNL     1       3.355   1.793   1.153  0.00  0.00    +0.188 C 
ATOM      8  C   UNL     1       4.753   1.261   1.058  0.00  0.00    +0.065 C 
ATOM      9  C   UNL     1       5.304   0.806  -0.096  0.00  0.00    +0.163 C 
ATOM     10  N   UNL     1       5.513   1.234   2.194  0.00  0.00    -0.304 NA
ATOM     11  H   UNL     1       6.422   0.895   2.161  0.00  0.00    +0.186 HD
ATOM     12  N   UNL     1       2.593   0.046  -3.129  0.00  0.00    +0.384 N 
ATOM     13  H   UNL     1       2.438  -0.681  -2.421  0.00  0.00    -0.081 HD
ENDROOT
BRANCH   6  14
ATOM     14  C   UNL     1       1.174   2.055   0.002  0.00  0.00    -0.002 A 
ATOM     15  C   UNL     1       1.139   3.412  -0.260  0.00  0.00    +0.052 A 
ATOM     16  C   UNL     1      -0.070   4.090  -0.245  0.00  0.00    +0.121 A 
ATOM     17  C   UNL     1      -1.244   3.405   0.032  0.00  0.00    +0.048 A 
ATOM     18  C   UNL     1      -1.208   2.048   0.288  0.00  0.00    +0.042 A 
ATOM     19  C   UNL     1       0.001   1.373   0.278  0.00  0.00    +0.127 A 
ATOM     20  F   UNL     1       0.036   0.047   0.534  0.00  0.00    -0.205 F 
BRANCH  16  21
ATOM     21  O   UNL     1      -0.105   5.424  -0.502  0.00  0.00    -0.495 OA
ATOM     22  C   UNL     1      -1.386   6.058  -0.470  0.00  0.00    +0.277 C 
ENDBRANCH  16  21
ENDBRANCH   6  14
BRANCH  12  24
ATOM     23  C   UNL     1       2.049  -1.492  -4.961  0.00  0.00    -0.014 C 
ATOM     24  C   UNL     1       1.671  -0.183  -4.264  0.00  0.00    -0.074 C 
ATOM     25  C   UNL     1       0.241  -0.285  -3.730  0.00  0.00    -0.014 C 
ENDBRANCH  12  24
BRANCH   9  26
ATOM     26  C   UNL     1       6.656   0.334  -0.115  0.00  0.00    +0.076 C 
ATOM     27  N   UNL     1       7.728  -0.041  -0.130  0.00  0.00    -0.196 NA
ENDBRANCH   9  26
BRANCH   7  28
ATOM     28  C   UNL     1       3.399   3.264   1.150  0.00  0.00    +0.091 C 
ATOM     29  N   UNL     1       3.434   4.399   1.148  0.00  0.00    -0.195 NA
ENDBRANCH   7  28
BRANCH   7  30
ATOM     30  C   UNL     1       2.752   1.335   2.416  0.00  0.00    +0.091 C 
ATOM     31  N   UNL     1       2.287   0.982   3.390  0.00  0.00    -0.195 NA
ENDBRANCH   7  30
TORSDOF 6
