REMARK  Name = ZINC22242240
REMARK  6 active torsions:
REMARK  status: ('A' for Active; 'I' for Inactive)
REMARK    1  A    between atoms: C_11  and  C_30
REMARK    2  A    between atoms: C_14  and  C_16
REMARK    3  A    between atoms: C_16  and  N_17
REMARK    4  A    between atoms: N_17  and  C_18
REMARK    5  A    between atoms: N_17  and  C_27
REMARK    6  A    between atoms: C_18  and  C_19
REMARK                            x       y       z     vdW  Elec       q    Type
REMARK                         _______ _______ _______ _____ _____    ______ ____
ROOT
ATOM      1  C   UNL     1      -2.833  -2.928   0.646  0.00  0.00    +0.002 A 
ATOM      2  C   UNL     1      -3.074  -2.148  -0.470  0.00  0.00    +0.002 A 
ATOM      3  C   UNL     1      -2.867  -0.781  -0.424  0.00  0.00    +0.025 A 
ATOM      4  C   UNL     1      -2.415  -0.192   0.746  0.00  0.00    +0.058 A 
ATOM      5  C   UNL     1      -2.191  -0.977   1.878  0.00  0.00    +0.055 A 
ATOM      6  C   UNL     1      -2.392  -2.346   1.821  0.00  0.00    +0.025 A 
ATOM      7  N   UNL     1      -1.769  -0.362   3.062  0.00  0.00    -0.284 N 
ATOM      8  C   UNL     1      -0.732   0.504   3.053  0.00  0.00    +0.219 C 
ATOM      9  O   UNL     1      -0.430   1.093   4.070  0.00  0.00    -0.275 OA
ATOM     10  C   UNL     1       0.050   0.745   1.789  0.00  0.00    +0.128 C 
ATOM     11  C   UNL     1      -0.752   1.629   0.833  0.00  0.00    +0.194 C 
ATOM     12  N   UNL     1      -2.147   1.183   0.796  0.00  0.00    -0.259 N 
ATOM     13  C   UNL     1      -3.154   2.079   0.811  0.00  0.00    +0.204 C 
ATOM     14  O   UNL     1      -2.909   3.266   0.855  0.00  0.00    -0.277 OA
ATOM     15  H   UNL     1      -2.282  -0.583   4.010  0.00  0.00    +0.155 HD
ENDROOT
BRANCH  11  16
ATOM     16  C   UNL     1      -0.152   1.536  -0.571  0.00  0.00    +0.409 C 
ATOM     17  F   UNL     1      -0.199   0.210  -1.012  0.00  0.00    -0.169 F 
ATOM     18  F   UNL     1       1.178   1.970  -0.538  0.00  0.00    -0.169 F 
ATOM     19  F   UNL     1      -0.885   2.345  -1.446  0.00  0.00    -0.169 F 
ENDBRANCH  11  16
BRANCH  13  20
ATOM     20  C   UNL     1      -4.584   1.605   0.772  0.00  0.00    +0.020 C 
BRANCH  20  21
ATOM     21  N   UNL     1      -5.480   2.763   0.660  0.00  0.00    +0.390 N 
ATOM     22  H   UNL     1      -5.102   3.550   1.330  0.00  0.00    -0.080 HD
BRANCH  21  23
ATOM     23  C   UNL     1      -6.842   2.419   1.091  0.00  0.00    -0.068 C 
ATOM     24  C   UNL     1      -7.586   3.435   1.959  0.00  0.00    -0.017 C 
ATOM     25  C   UNL     1      -7.062   2.138   2.579  0.00  0.00    -0.017 C 
ENDBRANCH  21  23
BRANCH  21  26
ATOM     26  C   UNL     1      -5.481   3.298  -0.708  0.00  0.00    -0.038 C 
BRANCH  26  27
ATOM     27  C   UNL     1      -6.209   4.617  -0.732  0.00  0.00    -0.010 A 
ATOM     28  C   UNL     1      -7.572   4.652  -0.971  0.00  0.00    +0.126 A 
ATOM     29  C   UNL     1      -8.241   5.864  -0.987  0.00  0.00    +0.038 A 
ATOM     30  C   UNL     1      -7.545   7.040  -0.774  0.00  0.00    +0.004 A 
ATOM     31  C   UNL     1      -6.184   7.006  -0.541  0.00  0.00    +0.020 A 
ATOM     32  C   UNL     1      -5.515   5.795  -0.519  0.00  0.00    +0.045 A 
ATOM     33 CL   UNL     1      -3.804   5.753  -0.225  0.00  0.00    -0.083 Cl
ATOM     34  F   UNL     1      -8.250   3.503  -1.185  0.00  0.00    -0.205 F 
ENDBRANCH  26  27
ENDBRANCH  21  26
ENDBRANCH  20  21
ENDBRANCH  13  20
TORSDOF 6
