REMARK  Name = ZINC36289544
REMARK  14 active torsions:
REMARK  status: ('A' for Active; 'I' for Inactive)
REMARK    1  A    between atoms: C_1  and  C_2
REMARK    2  A    between atoms: C_4  and  C_25
REMARK    3  A    between atoms: C_7  and  C_15
REMARK    4  A    between atoms: C_9  and  C_14
REMARK    5  A    between atoms: C_11  and  C_12
REMARK    6  A    between atoms: C_11  and  O_13
REMARK    7  A    between atoms: C_17  and  O_23
REMARK    8  A    between atoms: C_20  and  O_21
REMARK    9  A    between atoms: O_21  and  C_22
REMARK   10  A    between atoms: O_23  and  C_24
REMARK   11  A    between atoms: C_27  and  O_33
REMARK   12  A    between atoms: C_30  and  O_31
REMARK   13  A    between atoms: O_31  and  C_32
REMARK   14  A    between atoms: O_33  and  C_34
REMARK                            x       y       z     vdW  Elec       q    Type
REMARK                         _______ _______ _______ _____ _____    ______ ____
ROOT
ATOM      1  C   UNL     1      -0.019   1.526   0.010  0.00  0.00    +0.009 C 
ATOM      2  C   UNL     1       0.002  -0.004   0.002  0.00  0.00    +0.008 C 
ATOM      3  C   UNL     1       0.720  -0.498  -1.256  0.00  0.00    -0.031 C 
ATOM      4  N   UNL     1       2.098   0.008  -1.268  0.00  0.00    +0.389 N 
ATOM      5  C   UNL     1       2.837  -0.533  -0.121  0.00  0.00    -0.031 C 
ATOM      6  C   UNL     1       2.201  -0.040   1.180  0.00  0.00    +0.008 C 
ATOM      7  C   UNL     1       0.745  -0.512   1.241  0.00  0.00    +0.066 C 
ATOM      8  C   UNL     1       0.704  -2.041   1.271  0.00  0.00    +0.042 C 
ATOM      9  C   UNL     1       2.973  -0.607   2.373  0.00  0.00    +0.009 C 
ATOM     10  H   UNL     1       2.551  -0.275  -2.123  0.00  0.00    -0.084 HD
ATOM     11  H   UNL     1       2.085   1.016  -1.214  0.00  0.00    -0.084 HD
ENDROOT
BRANCH   5  12
ATOM     12  C   UNL     1       4.270  -0.070  -0.185  0.00  0.00    -0.016 A 
ATOM     13  C   UNL     1       4.590   1.096  -0.853  0.00  0.00    +0.051 A 
ATOM     14  C   UNL     1       5.909   1.522  -0.911  0.00  0.00    +0.121 A 
ATOM     15  C   UNL     1       6.906   0.777  -0.299  0.00  0.00    +0.049 A 
ATOM     16  C   UNL     1       6.586  -0.388   0.369  0.00  0.00    +0.049 A 
ATOM     17  C   UNL     1       5.267  -0.812   0.431  0.00  0.00    +0.122 A 
BRANCH  17  18
ATOM     18  O   UNL     1       4.951  -1.957   1.094  0.00  0.00    -0.495 OA
ATOM     19  C   UNL     1       6.027  -2.671   1.705  0.00  0.00    +0.277 C 
ENDBRANCH  17  18
BRANCH  14  20
ATOM     20  O   UNL     1       6.224   2.670  -1.569  0.00  0.00    -0.495 OA
ATOM     21  C   UNL     1       7.602   3.049  -1.589  0.00  0.00    +0.277 C 
ENDBRANCH  14  20
ENDBRANCH   5  12
BRANCH   3  22
ATOM     22  C   UNL     1      -0.008  -0.000  -2.478  0.00  0.00    -0.016 A 
ATOM     23  C   UNL     1       0.467   1.101  -3.164  0.00  0.00    +0.051 A 
ATOM     24  C   UNL     1      -0.202   1.559  -4.288  0.00  0.00    +0.121 A 
ATOM     25  C   UNL     1      -1.349   0.912  -4.724  0.00  0.00    +0.049 A 
ATOM     26  C   UNL     1      -1.824  -0.189  -4.038  0.00  0.00    +0.049 A 
ATOM     27  C   UNL     1      -1.151  -0.650  -2.916  0.00  0.00    +0.122 A 
BRANCH  27  28
ATOM     28  O   UNL     1      -1.616  -1.737  -2.244  0.00  0.00    -0.495 OA
ATOM     29  C   UNL     1      -2.799  -2.358  -2.752  0.00  0.00    +0.277 C 
ENDBRANCH  27  28
BRANCH  24  30
ATOM     30  O   UNL     1       0.265   2.643  -4.963  0.00  0.00    -0.495 OA
ATOM     31  C   UNL     1      -0.474   3.059  -6.113  0.00  0.00    +0.277 C 
ENDBRANCH  24  30
ENDBRANCH   3  22
BRANCH   7  32
ATOM     32  O   UNL     1       0.122   0.007   2.418  0.00  0.00    -0.388 OA
ATOM     33  H   UNL     1       0.541  -0.275   3.242  0.00  0.00    +0.210 HD
ENDBRANCH   7  32
TORSDOF 7
