REMARK  Name = ZINC09836196
REMARK  6 active torsions:
REMARK  status: ('A' for Active; 'I' for Inactive)
REMARK    1  A    between atoms: C_1  and  C_2
REMARK    2  A    between atoms: C_7  and  N_12
REMARK    3  A    between atoms: C_9  and  C_11
REMARK    4  A    between atoms: C_13  and  C_15
REMARK    5  A    between atoms: C_15  and  O_33
REMARK    6  A    between atoms: N_25  and  C_26
REMARK                            x       y       z     vdW  Elec       q    Type
REMARK                         _______ _______ _______ _____ _____    ______ ____
ROOT
ATOM      1  C   UNL     1      -3.933   0.521  -2.077  0.00  0.00    +0.247 C 
ATOM      2  C   UNL     1      -4.845   1.594  -1.527  0.00  0.00    +0.034 A 
ATOM      3  C   UNL     1      -4.660   2.920  -1.844  0.00  0.00    +0.025 A 
ATOM      4  C   UNL     1      -5.516   3.876  -1.321  0.00  0.00    +0.018 A 
ATOM      5  C   UNL     1      -6.550   3.496  -0.485  0.00  0.00    +0.017 A 
ATOM      6  C   UNL     1      -6.736   2.166  -0.165  0.00  0.00    +0.025 A 
ATOM      7  C   UNL     1      -5.881   1.203  -0.687  0.00  0.00    +0.043 A 
ATOM      8  N   UNL     1      -6.053  -0.146  -0.376  0.00  0.00    -0.269 N 
ATOM      9  C   UNL     1      -5.256  -1.111  -0.853  0.00  0.00    +0.314 C 
ATOM     10  O   UNL     1      -5.481  -2.261  -0.528  0.00  0.00    -0.252 OA
ATOM     11  N   UNL     1      -4.219  -0.867  -1.674  0.00  0.00    -0.214 N 
ATOM     12 BR   UNL     1      -5.269   5.701  -1.752  0.00  0.00    -0.050 Br
ATOM     13  H   UNL     1      -6.783  -0.397   0.212  0.00  0.00    +0.156 HD
ENDROOT
BRANCH  11  14
ATOM     14  C   UNL     1      -3.422  -1.918  -2.140  0.00  0.00    +0.041 A 
ATOM     15  C   UNL     1      -3.677  -2.488  -3.380  0.00  0.00    +0.024 A 
ATOM     16  C   UNL     1      -2.884  -3.522  -3.840  0.00  0.00    +0.002 A 
ATOM     17  C   UNL     1      -1.845  -3.997  -3.061  0.00  0.00    +0.000 A 
ATOM     18  C   UNL     1      -1.592  -3.436  -1.823  0.00  0.00    +0.002 A 
ATOM     19  C   UNL     1      -2.377  -2.398  -1.360  0.00  0.00    +0.024 A 
ENDBRANCH  11  14
BRANCH   1  21
ATOM     20  N   UNL     1      -2.153   0.688  -0.368  0.00  0.00    -0.308 N 
ATOM     21  C   UNL     1      -2.524   0.847  -1.653  0.00  0.00    +0.269 C 
ATOM     22  O   UNL     1      -1.724   1.251  -2.470  0.00  0.00    -0.270 OA
ATOM     23  H   UNL     1      -2.793   0.364   0.285  0.00  0.00    +0.149 HD
BRANCH  20  29
ATOM     24  C   UNL     1       1.359  -0.273   2.978  0.00  0.00    +0.008 C 
ATOM     25  C   UNL     1       1.003   0.531   1.726  0.00  0.00    -0.009 C 
ATOM     26  C   UNL     1       1.111   2.027   2.032  0.00  0.00    +0.003 C 
ATOM     27  C   UNL     1       0.755   2.831   0.780  0.00  0.00    +0.002 C 
ATOM     28  C   UNL     1      -0.675   2.500   0.350  0.00  0.00    +0.022 C 
ATOM     29  C   UNL     1      -0.783   1.005   0.044  0.00  0.00    +0.076 C 
ATOM     30  C   UNL     1      -0.427   0.201   1.296  0.00  0.00    +0.009 C 
ATOM     31  C   UNL     1      -1.395   0.561   2.425  0.00  0.00    +0.009 C 
ENDBRANCH  20  29
ENDBRANCH   1  21
BRANCH   1  32
ATOM     32  O   UNL     1      -3.987   0.585  -3.503  0.00  0.00    -0.360 OA
ATOM     33  H   UNL     1      -3.757   1.452  -3.866  0.00  0.00    +0.213 HD
ENDBRANCH   1  32
TORSDOF 4
