REMARK  Name = ZINC07977621
REMARK  5 active torsions:
REMARK  status: ('A' for Active; 'I' for Inactive)
REMARK    1  A    between atoms: C_1  and  C_2
REMARK    2  A    between atoms: C_2  and  C_3
REMARK    3  A    between atoms: C_3  and  C_18
REMARK    4  A    between atoms: N_6  and  C_10
REMARK    5  A    between atoms: C_10  and  C_11
REMARK                            x       y       z     vdW  Elec       q    Type
REMARK                         _______ _______ _______ _____ _____    ______ ____
ROOT
ATOM      1  C   UNL     1       3.793   4.031  -3.464  0.00  0.00    +0.138 C 
ATOM      2  C   UNL     1       3.643   3.369  -2.109  0.00  0.00    +0.251 C 
ATOM      3  O   UNL     1       4.127   2.316  -1.751  0.00  0.00    -0.272 OA
ATOM      4  N   UNL     1       2.859   4.192  -1.386  0.00  0.00    -0.220 N 
ATOM      5  C   UNL     1       2.502   5.275  -2.086  0.00  0.00    +0.310 C 
ATOM      6  O   UNL     1       1.800   6.163  -1.645  0.00  0.00    -0.252 OA
ATOM      7  N   UNL     1       3.008   5.271  -3.332  0.00  0.00    -0.281 N 
ATOM      8  H   UNL     1       2.880   5.951  -4.012  0.00  0.00    +0.152 HD
ENDROOT
BRANCH   1   9
ATOM      9  C   UNL     1       3.227   3.159  -4.555  0.00  0.00    -0.015 A 
ATOM     10  C   UNL     1       4.059   2.314  -5.265  0.00  0.00    +0.007 A 
ATOM     11  C   UNL     1       3.539   1.509  -6.262  0.00  0.00    +0.020 A 
ATOM     12  C   UNL     1       2.188   1.557  -6.555  0.00  0.00    +0.041 A 
ATOM     13  C   UNL     1       1.357   2.407  -5.848  0.00  0.00    +0.020 A 
ATOM     14  C   UNL     1       1.877   3.207  -4.848  0.00  0.00    +0.007 A 
ATOM     15 CL   UNL     1       1.536   0.553  -7.812  0.00  0.00    -0.084 Cl
ENDBRANCH   1   9
BRANCH   1  17
ATOM     16  C   UNL     1       5.827   5.193  -2.596  0.00  0.00    +0.007 C 
ATOM     17  C   UNL     1       5.263   4.352  -3.742  0.00  0.00    +0.037 C 
ENDBRANCH   1  17
BRANCH   4  18
ATOM     18  C   UNL     1       2.452   3.936  -0.002  0.00  0.00    +0.153 C 
BRANCH  18  19
ATOM     19  C   UNL     1       1.157   3.166   0.007  0.00  0.00    -0.028 A 
ATOM     20  C   UNL     1       1.175   1.783   0.000  0.00  0.00    +0.005 A 
ATOM     21  C   UNL     1      -0.013   1.076   0.008  0.00  0.00    +0.002 A 
ATOM     22  C   UNL     1      -1.219   1.750   0.017  0.00  0.00    +0.020 A 
ATOM     23  C   UNL     1      -1.238   3.134   0.029  0.00  0.00    +0.041 A 
ATOM     24  C   UNL     1      -0.048   3.841   0.021  0.00  0.00    +0.025 A 
ATOM     25 CL   UNL     1      -2.752   3.982   0.047  0.00  0.00    -0.084 Cl
ENDBRANCH  18  19
ENDBRANCH   4  18
TORSDOF 4
