REMARK  Name = ZINC15127202
REMARK  14 active torsions:
REMARK  status: ('A' for Active; 'I' for Inactive)
REMARK    1  A    between atoms: C_1  and  C_2
REMARK    2  A    between atoms: C_2  and  N_3
REMARK    3  A    between atoms: N_3  and  C_4
REMARK    4  A    between atoms: C_7  and  S_23
REMARK    5  A    between atoms: C_9  and  N_10
REMARK    6  A    between atoms: N_10  and  C_11
REMARK    7  A    between atoms: C_11  and  C_12
REMARK    8  A    between atoms: N_14  and  C_15
REMARK    9  A    between atoms: C_19  and  C_21
REMARK   10  A    between atoms: S_23  and  N_26
REMARK   11  A    between atoms: N_26  and  C_27
REMARK   12  A    between atoms: N_26  and  C_29
REMARK   13  A    between atoms: C_27  and  C_28
REMARK   14  A    between atoms: C_29  and  C_30
REMARK                            x       y       z     vdW  Elec       q    Type
REMARK                         _______ _______ _______ _____ _____    ______ ____
ROOT
ATOM      1  C   UNL     1      -1.640  -1.848  -0.570  0.00  0.00    +0.048 A 
ATOM      2  C   UNL     1      -0.567  -2.726  -0.616  0.00  0.00    +0.027 A 
ATOM      3  C   UNL     1      -0.778  -4.084  -0.466  0.00  0.00    +0.030 A 
ATOM      4  C   UNL     1      -2.057  -4.572  -0.270  0.00  0.00    +0.107 A 
ATOM      5  C   UNL     1      -3.132  -3.704  -0.224  0.00  0.00    +0.053 A 
ATOM      6  C   UNL     1      -2.929  -2.340  -0.367  0.00  0.00    +0.051 A 
ENDROOT
BRANCH   4   7
ATOM      7  S   UNL     1      -2.317  -6.304  -0.080  0.00  0.00    +0.061 S 
ATOM      8  O   UNL     1      -3.664  -6.556  -0.455  0.00  0.00    -0.153 OA
ATOM      9  O   UNL     1      -1.218  -6.951  -0.707  0.00  0.00    -0.153 OA
BRANCH   7  10
ATOM     10  N   UNL     1      -2.204  -6.641   1.537  0.00  0.00    -0.177 NA
BRANCH  10  11
ATOM     11  C   UNL     1      -3.401  -6.590   2.381  0.00  0.00    +0.106 C 
ATOM     12  C   UNL     1      -4.000  -7.992   2.503  0.00  0.00    +0.022 C 
ENDBRANCH  10  11
BRANCH  10  13
ATOM     13  C   UNL     1      -0.909  -6.992   2.124  0.00  0.00    +0.106 C 
ATOM     14  C   UNL     1      -0.260  -5.737   2.714  0.00  0.00    +0.022 C 
ENDBRANCH  10  13
ENDBRANCH   7  10
ENDBRANCH   4   7
BRANCH   1  15
ATOM     15  N   UNL     1      -1.429  -0.472  -0.721  0.00  0.00    -0.343 N 
ATOM     16  H   UNL     1      -2.180   0.140  -0.689  0.00  0.00    +0.146 HD
BRANCH  15  18
ATOM     17  C   UNL     1      -0.121   1.565  -1.063  0.00  0.00    +0.024 C 
ATOM     18  C   UNL     1      -0.073   0.042  -0.928  0.00  0.00    +0.098 C 
ENDBRANCH  15  18
ENDBRANCH   1  15
BRANCH   6  19
ATOM     19  N   UNL     1      -4.016  -1.459  -0.314  0.00  0.00    -0.334 N 
ATOM     20  H   UNL     1      -3.873  -0.505  -0.418  0.00  0.00    +0.147 HD
BRANCH  19  21
ATOM     21  C   UNL     1      -5.370  -1.977  -0.100  0.00  0.00    +0.198 C 
BRANCH  21  22
ATOM     22  C   UNL     1      -6.350  -0.833  -0.084  0.00  0.00    +0.234 C 
ATOM     23  O   UNL     1      -5.956   0.305  -0.236  0.00  0.00    -0.274 OA
ATOM     24  N   UNL     1      -7.663  -1.072   0.099  0.00  0.00    -0.284 N 
ATOM     25  H   UNL     1      -7.988  -1.985   0.144  0.00  0.00    +0.155 HD
BRANCH  24  26
ATOM     26  C   UNL     1      -8.559  -0.004   0.224  0.00  0.00    +0.034 A 
ATOM     27  C   UNL     1      -8.154   1.175   0.837  0.00  0.00    +0.024 A 
ATOM     28  C   UNL     1      -9.039   2.229   0.954  0.00  0.00    +0.017 A 
ATOM     29  C   UNL     1     -10.330   2.108   0.472  0.00  0.00    +0.021 A 
ATOM     30  C   UNL     1     -10.737   0.933  -0.134  0.00  0.00    -0.035 A 
ATOM     31  C   UNL     1      -9.855  -0.123  -0.259  0.00  0.00    +0.027 A 
ATOM     32  C   UNL     1     -12.144   0.804  -0.658  0.00  0.00    +0.045 C 
ATOM     33 BR   UNL     1     -11.540   3.551   0.640  0.00  0.00    -0.050 Br
ENDBRANCH  24  26
ENDBRANCH  21  22
ENDBRANCH  19  21
ENDBRANCH   6  19
TORSDOF 10
