REMARK  Name = ZINC21231935
REMARK  9 active torsions:
REMARK  status: ('A' for Active; 'I' for Inactive)
REMARK    1  A    between atoms: C_1  and  C_2
REMARK    2  A    between atoms: C_5  and  N_9
REMARK    3  A    between atoms: C_7  and  C_8
REMARK    4  A    between atoms: C_18  and  S_19
REMARK    5  A    between atoms: S_19  and  C_20
REMARK    6  A    between atoms: C_20  and  C_22
REMARK    7  A    between atoms: C_20  and  C_25
REMARK    8  A    between atoms: C_22  and  C_23
REMARK    9  A    between atoms: C_22  and  C_24
REMARK                            x       y       z     vdW  Elec       q    Type
REMARK                         _______ _______ _______ _____ _____    ______ ____
ROOT
ATOM      1  N   UNL     1      -6.403   0.633  -1.117  0.00  0.00    -0.255 N 
ATOM      2  C   UNL     1      -6.940  -0.428  -1.746  0.00  0.00    +0.268 A 
ATOM      3  O   UNL     1      -7.644  -0.273  -2.728  0.00  0.00    -0.267 OA
ATOM      4  C   UNL     1      -6.678  -1.741  -1.241  0.00  0.00    +0.076 A 
ATOM      5  C   UNL     1      -7.160  -3.024  -1.758  0.00  0.00    -0.023 A 
ATOM      6  C   UNL     1      -6.770  -4.134  -1.100  0.00  0.00    -0.004 A 
ATOM      7  S   UNL     1      -5.752  -3.549   0.228  0.00  0.00    -0.073 S 
ATOM      8  C   UNL     1      -5.854  -1.808  -0.105  0.00  0.00    +0.117 A 
ATOM      9  N   UNL     1      -5.350  -0.721   0.467  0.00  0.00    -0.215 NA
ATOM     10  C   UNL     1      -5.606   0.477  -0.017  0.00  0.00    +0.178 A 
ATOM     11  C   UNL     1      -7.123  -5.553  -1.425  0.00  0.00    +0.043 C 
ATOM     12  C   UNL     1      -8.306  -5.546  -2.404  0.00  0.00    +0.005 C 
ATOM     13  C   UNL     1      -8.006  -4.549  -3.528  0.00  0.00    +0.005 C 
ATOM     14  C   UNL     1      -8.063  -3.121  -2.984  0.00  0.00    +0.037 C 
ENDROOT
BRANCH   1  19
ATOM     15  C   UNL     1      -7.446   5.854  -3.082  0.00  0.00    +0.044 C 
ATOM     16  C   UNL     1      -7.169   4.468  -2.560  0.00  0.00    -0.047 A 
ATOM     17  C   UNL     1      -7.996   3.913  -1.600  0.00  0.00    +0.005 A 
ATOM     18  C   UNL     1      -7.747   2.642  -1.123  0.00  0.00    +0.026 A 
ATOM     19  C   UNL     1      -6.660   1.922  -1.601  0.00  0.00    +0.052 A 
ATOM     20  C   UNL     1      -5.832   2.481  -2.565  0.00  0.00    +0.030 A 
ATOM     21  C   UNL     1      -6.088   3.752  -3.042  0.00  0.00    -0.046 A 
ATOM     22  C   UNL     1      -5.189   4.360  -4.088  0.00  0.00    +0.044 C 
ENDBRANCH   1  19
BRANCH  10  23
ATOM     23  S   UNL     1      -4.920   1.897   0.769  0.00  0.00    -0.074 S 
BRANCH  23  24
ATOM     24  C   UNL     1      -4.018   1.103   2.122  0.00  0.00    +0.143 C 
BRANCH  24  25
ATOM     25  C   UNL     1      -2.871   0.303   1.560  0.00  0.00    +0.234 C 
ATOM     26  O   UNL     1      -2.393   0.601   0.486  0.00  0.00    -0.274 OA
ATOM     27  N   UNL     1      -2.377  -0.744   2.250  0.00  0.00    -0.239 N 
ATOM     28  C   UNL     1      -1.355  -1.462   1.745  0.00  0.00    +0.303 C 
ATOM     29  O   UNL     1      -0.875  -1.164   0.669  0.00  0.00    -0.253 OA
ATOM     30  N   UNL     1      -0.864  -2.513   2.433  0.00  0.00    -0.313 N 
ATOM     31  H   UNL     1      -2.807  -1.011   3.226  0.00  0.00    +0.159 HD
ATOM     32  H   UNL     1      -0.030  -3.099   2.020  0.00  0.00    +0.146 HD
ATOM     33  H   UNL     1      -1.298  -2.783   3.407  0.00  0.00    +0.146 HD
ENDBRANCH  24  25
BRANCH  24  34
ATOM     34  C   UNL     1      -3.476   2.173   3.071  0.00  0.00    +0.005 C 
ATOM     35  C   UNL     1      -4.642   2.961   3.671  0.00  0.00    +0.009 C 
ATOM     36  C   UNL     1      -2.681   1.504   4.194  0.00  0.00    +0.009 C 
ENDBRANCH  24  34
ENDBRANCH  23  24
ENDBRANCH  10  23
TORSDOF 5
