REMARK  Name = ZINC03840521
REMARK  8 active torsions:
REMARK  status: ('A' for Active; 'I' for Inactive)
REMARK    1  A    between atoms: C_1  and  C_2
REMARK    2  A    between atoms: N_9  and  C_10
REMARK    3  A    between atoms: C_17  and  C_36
REMARK    4  A    between atoms: C_20  and  O_35
REMARK    5  A    between atoms: C_22  and  C_26
REMARK    6  A    between atoms: C_26  and  C_28
REMARK    7  A    between atoms: C_26  and  C_29
REMARK    8  A    between atoms: N_31  and  C_32
REMARK                            x       y       z     vdW  Elec       q    Type
REMARK                         _______ _______ _______ _____ _____    ______ ____
ROOT
ATOM      1  C   UNL     1       7.834   2.912  -1.296  0.00  0.00    +0.014 C 
ATOM      2  C   UNL     1       8.560   2.653   0.025  0.00  0.00    +0.042 C 
ATOM      3  C   UNL     1      10.054   2.866  -0.168  0.00  0.00    +0.057 A 
ATOM      4  C   UNL     1      10.943   2.013   0.400  0.00  0.00    +0.015 A 
ATOM      5  S   UNL     1      12.505   2.681  -0.109  0.00  0.00    -0.057 S 
ATOM      6  C   UNL     1      11.876   4.020  -1.022  0.00  0.00    +0.163 A 
ATOM      7  N   UNL     1      10.575   3.866  -0.878  0.00  0.00    -0.229 NA
ATOM      8  N   UNL     1      12.565   4.998  -1.722  0.00  0.00    -0.294 N 
ATOM      9  C   UNL     1      10.651   0.818   1.237  0.00  0.00    +0.051 C 
ATOM     10  C   UNL     1       9.177   0.869   1.685  0.00  0.00    -0.022 C 
ATOM     11  C   UNL     1       8.302   1.209   0.476  0.00  0.00    +0.033 C 
ATOM     12  C   UNL     1       6.820   1.105   0.852  0.00  0.00    +0.123 C 
ATOM     13  C   UNL     1       6.498  -0.298   1.361  0.00  0.00    +0.029 C 
ATOM     14  C   UNL     1       7.342  -0.576   2.609  0.00  0.00    +0.007 C 
ATOM     15  C   UNL     1       8.819  -0.520   2.223  0.00  0.00    +0.008 C 
ATOM     16  C   UNL     1       8.985   1.919   2.781  0.00  0.00    +0.012 C 
ATOM     17  H   UNL     1      12.080   5.640  -2.265  0.00  0.00    +0.154 HD
ENDROOT
BRANCH   8  18
ATOM     18  C   UNL     1      13.959   5.061  -1.647  0.00  0.00    +0.033 A 
ATOM     19  C   UNL     1      14.609   4.708  -0.470  0.00  0.00    +0.023 A 
ATOM     20  C   UNL     1      15.987   4.765  -0.400  0.00  0.00    +0.002 A 
ATOM     21  C   UNL     1      16.719   5.184  -1.496  0.00  0.00    +0.000 A 
ATOM     22  C   UNL     1      16.076   5.541  -2.667  0.00  0.00    +0.002 A 
ATOM     23  C   UNL     1      14.698   5.481  -2.745  0.00  0.00    +0.023 A 
ENDBRANCH   8  18
BRANCH  13  24
ATOM     24  C   UNL     1       5.012  -0.387   1.718  0.00  0.00    +0.077 C 
ATOM     25  C   UNL     1       4.714   0.544   2.895  0.00  0.00    +0.017 C 
BRANCH  24  26
ATOM     26  C   UNL     1       4.671  -1.804   2.099  0.00  0.00    +0.216 C 
ATOM     27  O   UNL     1       5.496  -2.683   1.968  0.00  0.00    -0.276 OA
ATOM     28  N   UNL     1       3.448  -2.095   2.584  0.00  0.00    -0.312 N 
ATOM     29  H   UNL     1       2.787  -1.392   2.689  0.00  0.00    +0.149 HD
BRANCH  28  30
ATOM     30  C   UNL     1       3.115  -3.473   2.955  0.00  0.00    +0.073 C 
ATOM     31  C   UNL     1       1.639  -3.874   2.933  0.00  0.00    +0.024 C 
ATOM     32  C   UNL     1       2.362  -3.689   4.269  0.00  0.00    +0.024 C 
ENDBRANCH  28  30
ENDBRANCH  24  26
ENDBRANCH  13  24
BRANCH  12  33
ATOM     33  O   UNL     1       6.019   1.385  -0.298  0.00  0.00    -0.391 OA
ATOM     34  H   UNL     1       5.071   1.437  -0.114  0.00  0.00    +0.210 HD
ENDBRANCH  12  33
TORSDOF 5
