REMARK  Name = ZINC45911776
REMARK  15 active torsions:
REMARK  status: ('A' for Active; 'I' for Inactive)
REMARK    1  A    between atoms: C_1  and  C_2
REMARK    2  A    between atoms: C_2  and  C_3
REMARK    3  A    between atoms: C_8  and  N_9
REMARK    4  A    between atoms: C_10  and  C_12
REMARK    5  A    between atoms: C_12  and  N_13
REMARK    6  A    between atoms: N_13  and  C_14
REMARK    7  A    between atoms: N_13  and  C_15
REMARK    8  A    between atoms: C_15  and  C_16
REMARK    9  A    between atoms: C_15  and  C_19
REMARK   10  A    between atoms: C_16  and  C_17
REMARK   11  A    between atoms: C_16  and  C_18
REMARK   12  A    between atoms: N_21  and  C_22
REMARK   13  A    between atoms: C_22  and  C_23
REMARK   14  A    between atoms: C_22  and  C_24
REMARK   15  A    between atoms: C_22  and  C_25
REMARK                            x       y       z     vdW  Elec       q    Type
REMARK                         _______ _______ _______ _____ _____    ______ ____
ROOT
ATOM      1  N   UNL     1       5.918  -0.607   0.969  0.00  0.00    +0.391 N 
ATOM      2  C   UNL     1       6.242   0.312  -0.131  0.00  0.00    -0.094 C 
ATOM      3  H   UNL     1       6.037  -1.559   0.657  0.00  0.00    -0.080 HD
ENDROOT
BRANCH   1   4
ATOM      4  C   UNL     1       4.525  -0.399   1.386  0.00  0.00    +0.020 C 
BRANCH   4   6
ATOM      5  N   UNL     1       2.264  -0.743   0.443  0.00  0.00    -0.287 N 
ATOM      6  C   UNL     1       3.599  -0.841   0.283  0.00  0.00    +0.201 C 
ATOM      7  O   UNL     1       4.054  -1.286  -0.750  0.00  0.00    -0.278 OA
ATOM      8  H   UNL     1       1.901  -0.325   1.240  0.00  0.00    +0.155 HD
BRANCH   5  14
ATOM      9  C   UNL     1       0.144  -1.714  -0.186  0.00  0.00    -0.026 A 
ATOM     10  C   UNL     1      -0.706  -2.202  -1.159  0.00  0.00    +0.005 A 
ATOM     11  C   UNL     1      -0.304  -2.229  -2.481  0.00  0.00    +0.000 A 
ATOM     12  C   UNL     1       0.951  -1.766  -2.835  0.00  0.00    +0.002 A 
ATOM     13  C   UNL     1       1.806  -1.276  -1.867  0.00  0.00    +0.023 A 
ATOM     14  C   UNL     1       1.403  -1.244  -0.539  0.00  0.00    +0.036 A 
BRANCH   9  16
ATOM     15  C   UNL     1      -0.879  -0.309   1.583  0.00  0.00    +0.009 C 
ATOM     16  C   UNL     1      -0.295  -1.685   1.255  0.00  0.00    +0.033 C 
ENDBRANCH   9  16
ENDBRANCH   5  14
ENDBRANCH   4   6
ENDBRANCH   1   4
BRANCH   1  17
ATOM     17  C   UNL     1       6.814  -0.347   2.104  0.00  0.00    +0.022 C 
BRANCH  17  18
ATOM     18  C   UNL     1       6.475  -1.284   3.235  0.00  0.00    +0.200 C 
ATOM     19  O   UNL     1       5.992  -2.371   2.998  0.00  0.00    -0.278 OA
ATOM     20  N   UNL     1       6.710  -0.915   4.509  0.00  0.00    -0.312 N 
ATOM     21  H   UNL     1       7.097  -0.045   4.699  0.00  0.00    +0.149 HD
BRANCH  20  22
ATOM     22  C   UNL     1       6.382  -1.825   5.609  0.00  0.00    +0.026 C 
ATOM     23  C   UNL     1       7.174  -3.125   5.449  0.00  0.00    +0.031 C 
ATOM     24  C   UNL     1       6.744  -1.168   6.942  0.00  0.00    +0.031 C 
ATOM     25  C   UNL     1       4.883  -2.135   5.584  0.00  0.00    +0.031 C 
ENDBRANCH  20  22
ENDBRANCH  17  18
BRANCH  17  26
ATOM     26  C   UNL     1       8.264  -0.573   1.671  0.00  0.00    -0.022 C 
ATOM     27  C   UNL     1       8.339  -1.796   0.755  0.00  0.00    +0.006 C 
ATOM     28  C   UNL     1       8.769   0.660   0.919  0.00  0.00    +0.006 C 
ENDBRANCH  17  26
ENDBRANCH   1  17
TORSDOF 8
