REMARK  Name = ZINC39676063
REMARK  7 active torsions:
REMARK  status: ('A' for Active; 'I' for Inactive)
REMARK    1  A    between atoms: C_1  and  C_2
REMARK    2  A    between atoms: C_7  and  C_10
REMARK    3  A    between atoms: C_14  and  C_23
REMARK    4  A    between atoms: N_25  and  C_26
REMARK    5  A    between atoms: C_26  and  C_27
REMARK    6  A    between atoms: N_30  and  C_32
REMARK    7  A    between atoms: C_32  and  C_33
REMARK                            x       y       z     vdW  Elec       q    Type
REMARK                         _______ _______ _______ _____ _____    ______ ____
ROOT
ATOM      1  C   UNL     1      -4.290  -2.550   2.367  0.00  0.00    +0.219 C 
ATOM      2  O   UNL     1      -4.688  -1.828   3.257  0.00  0.00    -0.275 OA
ATOM      3  N   UNL     1      -4.599  -3.862   2.376  0.00  0.00    -0.300 N 
ATOM      4  C   UNL     1      -4.116  -4.916   1.453  0.00  0.00    +0.121 C 
ATOM      5  C   UNL     1      -3.884  -6.149   2.354  0.00  0.00    +0.100 C 
ATOM      6  C   UNL     1      -4.796  -5.922   3.572  0.00  0.00    -0.004 C 
ATOM      7  C   UNL     1      -5.495  -4.579   3.316  0.00  0.00    +0.115 C 
ATOM      8  C   UNL     1      -5.826  -7.043   3.677  0.00  0.00    -0.010 C 
ATOM      9  C   UNL     1      -6.683  -6.827   4.927  0.00  0.00    -0.082 C 
ATOM     10  N   UNL     1      -5.823  -6.812   6.116  0.00  0.00    +0.379 N 
ATOM     11  C   UNL     1      -4.897  -5.675   6.051  0.00  0.00    -0.082 C 
ATOM     12  C   UNL     1      -3.964  -5.843   4.848  0.00  0.00    -0.010 C 
ATOM     13  H   UNL     1      -6.396  -6.731   6.943  0.00  0.00    -0.086 HD
ATOM     14  H   UNL     1      -5.296  -7.672   6.159  0.00  0.00    -0.086 HD
ENDROOT
BRANCH   1  21
ATOM     15  C   UNL     1      -3.567   1.462  -2.386  0.00  0.00    +0.109 C 
ATOM     16  C   UNL     1      -2.699   1.248  -1.173  0.00  0.00    +0.212 C 
ATOM     17  O   UNL     1      -2.018   2.156  -0.746  0.00  0.00    -0.276 OA
ATOM     18  N   UNL     1      -2.679   0.046  -0.562  0.00  0.00    -0.302 N 
ATOM     19  C   UNL     1      -3.494  -1.066  -1.071  0.00  0.00    +0.108 C 
ATOM     20  C   UNL     1      -4.354  -1.611   0.073  0.00  0.00    +0.032 C 
ATOM     21  C   UNL     1      -3.451  -1.982   1.252  0.00  0.00    +0.078 C 
ATOM     22  C   UNL     1      -2.721  -0.732   1.750  0.00  0.00    +0.032 C 
ATOM     23  C   UNL     1      -1.838  -0.178   0.622  0.00  0.00    +0.108 C 
ENDBRANCH   1  21
BRANCH   5  24
ATOM     24  C   UNL     1      -2.441  -6.221   2.783  0.00  0.00    +0.218 C 
ATOM     25  O   UNL     1      -1.808  -5.201   2.956  0.00  0.00    -0.275 OA
ATOM     26  N   UNL     1      -1.854  -7.419   2.974  0.00  0.00    -0.311 N 
ATOM     27  H   UNL     1      -2.361  -8.235   2.836  0.00  0.00    +0.149 HD
BRANCH  26  28
ATOM     28  C   UNL     1      -0.452  -7.490   3.391  0.00  0.00    +0.142 C 
BRANCH  28  29
ATOM     29  C   UNL     1      -0.042  -8.933   3.533  0.00  0.00    +0.007 A 
ATOM     30  C   UNL     1      -0.145  -9.707   4.694  0.00  0.00    +0.139 A 
ATOM     31  N   UNL     1       0.309 -10.905   4.427  0.00  0.00    -0.179 NA
ATOM     32  N   UNL     1       0.717 -10.931   3.087  0.00  0.00    -0.267 N 
ATOM     33  C   UNL     1       0.486  -9.711   2.559  0.00  0.00    +0.113 A 
BRANCH  32  34
ATOM     34  C   UNL     1       1.287 -12.081   2.382  0.00  0.00    +0.178 C 
BRANCH  34  35
ATOM     35  C   UNL     1       2.488 -12.589   3.137  0.00  0.00    -0.026 A 
ATOM     36  C   UNL     1       3.744 -12.082   2.859  0.00  0.00    +0.005 A 
ATOM     37  C   UNL     1       4.846 -12.548   3.551  0.00  0.00    +0.000 A 
ATOM     38  C   UNL     1       4.692 -13.519   4.523  0.00  0.00    +0.000 A 
ATOM     39  C   UNL     1       3.436 -14.025   4.801  0.00  0.00    +0.000 A 
ATOM     40  C   UNL     1       2.334 -13.557   4.112  0.00  0.00    +0.005 A 
ENDBRANCH  34  35
ENDBRANCH  32  34
ENDBRANCH  28  29
ENDBRANCH  26  28
ENDBRANCH   5  24
TORSDOF 6
