REMARK  Name = ZINC23173012
REMARK  5 active torsions:
REMARK  status: ('A' for Active; 'I' for Inactive)
REMARK    1  A    between atoms: C_3  and  S_7
REMARK    2  A    between atoms: S_7  and  N_10
REMARK    3  A    between atoms: C_13  and  C_16
REMARK    4  A    between atoms: N_18  and  N_19
REMARK    5  A    between atoms: C_20  and  C_22
REMARK                            x       y       z     vdW  Elec       q    Type
REMARK                         _______ _______ _______ _____ _____    ______ ____
ROOT
ATOM      1  C   UNL     1      -2.279   3.818  -5.646  0.00  0.00    +0.232 C 
ATOM      2  O   UNL     1      -2.109   2.644  -5.900  0.00  0.00    -0.274 OA
ATOM      3  N   UNL     1      -1.884   4.761  -6.523  0.00  0.00    -0.234 N 
ATOM      4  H   UNL     1      -2.039   5.826  -6.293  0.00  0.00    +0.173 HD
ENDROOT
BRANCH   1   8
ATOM      5  N   UNL     1      -3.119   4.337  -1.529  0.00  0.00    -0.176 NA
ATOM      6  C   UNL     1      -2.656   5.536  -2.241  0.00  0.00    +0.110 C 
ATOM      7  C   UNL     1      -1.971   5.097  -3.544  0.00  0.00    +0.030 C 
ATOM      8  C   UNL     1      -2.933   4.221  -4.349  0.00  0.00    +0.079 C 
ATOM      9  C   UNL     1      -3.282   2.968  -3.543  0.00  0.00    +0.030 C 
ATOM     10  C   UNL     1      -3.977   3.380  -2.242  0.00  0.00    +0.110 C 
BRANCH   5  11
ATOM     11  S   UNL     1      -2.688   4.072   0.048  0.00  0.00    +0.062 S 
ATOM     12  O   UNL     1      -3.682   3.222   0.603  0.00  0.00    -0.153 OA
ATOM     13  O   UNL     1      -2.376   5.342   0.602  0.00  0.00    -0.153 OA
BRANCH  11  16
ATOM     14  C   UNL     1      -0.013   1.076   0.008  0.00  0.00    +0.022 A 
ATOM     15  C   UNL     1      -1.218   1.762   0.017  0.00  0.00    +0.031 A 
ATOM     16  C   UNL     1      -1.188   3.147   0.029  0.00  0.00    +0.123 A 
ATOM     17  C   UNL     1       0.033   3.795   0.022  0.00  0.00    +0.139 A 
ATOM     18  N   UNL     1       1.159   3.110   0.008  0.00  0.00    -0.261 NA
ATOM     19  C   UNL     1       1.169   1.792   0.001  0.00  0.00    +0.111 A 
ENDBRANCH  11  16
ENDBRANCH   5  11
ENDBRANCH   1   8
BRANCH   3  20
ATOM     20  N   UNL     1      -1.276   4.386  -7.728  0.00  0.00    -0.234 N 
ATOM     21  C   UNL     1      -0.881   5.330  -8.606  0.00  0.00    +0.235 C 
ATOM     22  O   UNL     1      -1.051   6.504  -8.352  0.00  0.00    -0.274 OA
ATOM     23  H   UNL     1      -1.121   3.322  -7.959  0.00  0.00    +0.173 HD
BRANCH  21  24
ATOM     24  C   UNL     1      -0.227   4.927  -9.902  0.00  0.00    +0.049 C 
ATOM     25  C   UNL     1       1.051   4.139  -9.606  0.00  0.00    +0.019 C 
ATOM     26  C   UNL     1       1.715   3.730 -10.922  0.00  0.00    -0.009 C 
ATOM     27  C   UNL     1       2.063   4.982 -11.729  0.00  0.00    +0.007 C 
ATOM     28  C   UNL     1       0.786   5.770 -12.025  0.00  0.00    -0.009 C 
ATOM     29  C   UNL     1       0.122   6.179 -10.709  0.00  0.00    +0.019 C 
ATOM     30  C   UNL     1      -0.177   4.896 -12.831  0.00  0.00    +0.007 C 
ATOM     31  C   UNL     1      -0.526   3.643 -12.025  0.00  0.00    -0.009 C 
ATOM     32  C   UNL     1       0.752   2.856 -11.728  0.00  0.00    +0.007 C 
ATOM     33  C   UNL     1      -1.189   4.053 -10.709  0.00  0.00    +0.019 C 
ENDBRANCH  21  24
ENDBRANCH   3  20
TORSDOF 5
