REMARK  Name = ZINC35840038
REMARK  12 active torsions:
REMARK  status: ('A' for Active; 'I' for Inactive)
REMARK    1  A    between atoms: C_1  and  C_2
REMARK    2  A    between atoms: C_2  and  N_3
REMARK    3  A    between atoms: N_3  and  C_4
REMARK    4  A    between atoms: C_4  and  C_5
REMARK    5  A    between atoms: C_6  and  C_8
REMARK    6  A    between atoms: C_15  and  C_17
REMARK    7  A    between atoms: C_20  and  C_22
REMARK    8  A    between atoms: C_22  and  N_23
REMARK    9  A    between atoms: N_26  and  C_29
REMARK   10  A    between atoms: C_29  and  C_30
REMARK   11  A    between atoms: C_30  and  C_32
REMARK   12  A    between atoms: C_30  and  O_38
REMARK                            x       y       z     vdW  Elec       q    Type
REMARK                         _______ _______ _______ _____ _____    ______ ____
ROOT
ATOM      1  C   UNL     1      -6.003  -0.862  -1.012  0.00  0.00    +0.164 A 
ATOM      2  C   UNL     1      -6.942  -0.538  -0.081  0.00  0.00    +0.230 A 
ATOM      3  O   UNL     1      -8.132  -0.563  -0.701  0.00  0.00    -0.449 OA
ATOM      4  C   UNL     1      -7.930  -0.895  -1.984  0.00  0.00    +0.179 A 
ATOM      5  N   UNL     1      -6.659  -1.072  -2.185  0.00  0.00    -0.210 NA
ENDROOT
BRANCH   1  12
ATOM      6  C   UNL     1      -1.490  -0.404  -2.463  0.00  0.00    +0.092 C 
ATOM      7  C   UNL     1      -1.931  -0.511  -3.924  0.00  0.00    +0.016 C 
ATOM      8  C   UNL     1      -3.416  -0.161  -4.038  0.00  0.00    +0.020 C 
ATOM      9  C   UNL     1      -4.236  -1.157  -3.211  0.00  0.00    +0.108 C 
ATOM     10  N   UNL     1      -3.721  -1.166  -1.835  0.00  0.00    -0.295 N 
ATOM     11  C   UNL     1      -2.287  -1.402  -1.618  0.00  0.00    +0.121 C 
ATOM     12  C   UNL     1      -4.549  -0.960  -0.791  0.00  0.00    +0.268 C 
ATOM     13  O   UNL     1      -4.096  -0.856   0.333  0.00  0.00    -0.268 OA
BRANCH   6  15
ATOM     14  N   UNL     1       0.677  -0.323  -1.272  0.00  0.00    -0.302 N 
ATOM     15  C   UNL     1      -0.019  -0.717  -2.357  0.00  0.00    +0.220 C 
ATOM     16  O   UNL     1       0.537  -1.324  -3.247  0.00  0.00    -0.275 OA
BRANCH  14  18
ATOM     17  C   UNL     1       2.432  -1.836  -0.491  0.00  0.00    +0.024 C 
ATOM     18  C   UNL     1       2.127  -0.526  -1.220  0.00  0.00    +0.104 C 
ENDBRANCH  14  18
BRANCH  14  19
ATOM     19  C   UNL     1      -0.016   0.309  -0.147  0.00  0.00    +0.104 C 
ATOM     20  C   UNL     1      -0.130   1.814  -0.398  0.00  0.00    +0.024 C 
ENDBRANCH  14  19
ENDBRANCH   6  15
ENDBRANCH   1  12
BRANCH   4  21
ATOM     21  C   UNL     1      -9.007  -1.036  -3.029  0.00  0.00    +0.019 C 
BRANCH  21  22
ATOM     22  N   UNL     1      -9.497  -2.420  -3.044  0.00  0.00    +0.387 N 
ATOM     23  C   UNL     1      -8.416  -3.317  -3.474  0.00  0.00    -0.063 C 
ATOM     24  C   UNL     1      -8.920  -4.762  -3.471  0.00  0.00    +0.066 C 
ATOM     25  N   UNL     1     -10.068  -4.878  -4.382  0.00  0.00    -0.303 NA
ATOM     26  C   UNL     1     -11.149  -3.968  -3.978  0.00  0.00    +0.066 C 
ATOM     27  C   UNL     1     -10.626  -2.530  -3.976  0.00  0.00    -0.063 C 
ATOM     28  H   UNL     1      -9.800  -2.680  -2.117  0.00  0.00    -0.081 HD
BRANCH  25  29
ATOM     29  C   UNL     1     -10.547  -6.266  -4.450  0.00  0.00    +0.120 C 
BRANCH  29  30
ATOM     30  C   UNL     1     -11.568  -6.397  -5.582  0.00  0.00    +0.158 C 
BRANCH  30  31
ATOM     31  C   UNL     1     -12.149  -7.788  -5.575  0.00  0.00    -0.018 A 
ATOM     32  C   UNL     1     -11.441  -8.836  -6.132  0.00  0.00    +0.006 A 
ATOM     33  C   UNL     1     -11.975 -10.111  -6.125  0.00  0.00    +0.000 A 
ATOM     34  C   UNL     1     -13.216 -10.338  -5.561  0.00  0.00    +0.000 A 
ATOM     35  C   UNL     1     -13.924  -9.290  -5.004  0.00  0.00    +0.000 A 
ATOM     36  C   UNL     1     -13.389  -8.015  -5.006  0.00  0.00    +0.006 A 
ENDBRANCH  30  31
BRANCH  30  37
ATOM     37  O   UNL     1     -10.924  -6.157  -6.835  0.00  0.00    -0.386 OA
ATOM     38  H   UNL     1     -10.202  -6.769  -7.030  0.00  0.00    +0.210 HD
ENDBRANCH  30  37
ENDBRANCH  29  30
ENDBRANCH  25  29
ENDBRANCH  21  22
ENDBRANCH   4  21
TORSDOF 10
