REMARK  Name = ZINC38653008
REMARK  16 active torsions:
REMARK  status: ('A' for Active; 'I' for Inactive)
REMARK    1  A    between atoms: C_1  and  C_2
REMARK    2  A    between atoms: C_2  and  C_3
REMARK    3  A    between atoms: C_3  and  C_4
REMARK    4  A    between atoms: C_4  and  C_5
REMARK    5  A    between atoms: C_7  and  O_36
REMARK    6  A    between atoms: C_9  and  C_35
REMARK    7  A    between atoms: C_14  and  N_22
REMARK    8  A    between atoms: C_16  and  C_21
REMARK    9  A    between atoms: C_23  and  C_25
REMARK   10  A    between atoms: C_28  and  N_32
REMARK   11  A    between atoms: C_29  and  O_31
REMARK   12  A    between atoms: O_36  and  C_37
REMARK   13  A    between atoms: C_37  and  C_39
REMARK   14  A    between atoms: C_39  and  C_40
REMARK   15  A    between atoms: C_39  and  C_41
REMARK   16  A    between atoms: C_39  and  C_42
REMARK                            x       y       z     vdW  Elec       q    Type
REMARK                         _______ _______ _______ _____ _____    ______ ____
ROOT
ATOM      1  C   UNL     1      -2.854  -2.526  -0.011  0.00  0.00    +0.142 C 
ATOM      2  C   UNL     1      -2.830  -4.065   0.103  0.00  0.00    +0.230 C 
ATOM      3  C   UNL     1      -4.283  -4.566   0.026  0.00  0.00    +0.215 C 
ATOM      4  O   UNL     1      -4.414  -5.482  -1.052  0.00  0.00    -0.456 OA
ATOM      5  C   UNL     1      -4.333  -5.124  -2.333  0.00  0.00    +0.332 C 
ATOM      6  O   UNL     1      -3.658  -5.767  -3.101  0.00  0.00    -0.249 OA
ATOM      7  C   UNL     1      -5.093  -3.906  -2.823  0.00  0.00    +0.223 C 
ATOM      8  C   UNL     1      -4.071  -2.935  -3.448  0.00  0.00    +0.204 C 
ATOM      9  O   UNL     1      -3.072  -2.642  -2.459  0.00  0.00    -0.459 OA
ATOM     10  C   UNL     1      -3.552  -2.146  -1.296  0.00  0.00    +0.314 C 
ATOM     11  O   UNL     1      -4.517  -1.420  -1.281  0.00  0.00    -0.250 OA
ATOM     12  C   UNL     1      -3.416  -3.588  -4.667  0.00  0.00    +0.054 C 
ATOM     13  C   UNL     1      -4.651  -5.265   1.337  0.00  0.00    +0.056 C 
ENDROOT
BRANCH   7  14
ATOM     14  N   UNL     1      -6.078  -4.308  -3.830  0.00  0.00    -0.295 N 
ATOM     15  C   UNL     1      -7.293  -4.746  -3.446  0.00  0.00    +0.245 C 
ATOM     16  O   UNL     1      -7.572  -4.809  -2.264  0.00  0.00    -0.270 OA
ATOM     17  H   UNL     1      -5.856  -4.258  -4.773  0.00  0.00    +0.150 HD
BRANCH  15  18
ATOM     18  C   UNL     1      -8.286  -5.151  -4.461  0.00  0.00    +0.040 A 
ATOM     19  C   UNL     1      -7.965  -5.085  -5.819  0.00  0.00    +0.015 A 
ATOM     20  C   UNL     1      -8.892  -5.463  -6.765  0.00  0.00    +0.028 A 
ATOM     21  C   UNL     1     -10.148  -5.910  -6.372  0.00  0.00    +0.075 A 
ATOM     22  C   UNL     1     -10.474  -5.978  -5.017  0.00  0.00    +0.139 A 
ATOM     23  C   UNL     1      -9.546  -5.606  -4.064  0.00  0.00    +0.060 A 
BRANCH  21  24
ATOM     24  N   UNL     1     -11.085  -6.291  -7.335  0.00  0.00    -0.285 N 
ATOM     25  C   UNL     1     -10.672  -6.710  -8.548  0.00  0.00    +0.330 C 
ATOM     26  O   UNL     1      -9.488  -6.849  -8.771  0.00  0.00    -0.279 OA
ATOM     27  H   UNL     1     -12.032  -6.255  -7.131  0.00  0.00    +0.155 HD
ENDBRANCH  21  24
BRANCH  22  28
ATOM     28  O   UNL     1     -11.704  -6.415  -4.635  0.00  0.00    -0.505 OA
ATOM     29  H   UNL     1     -11.755  -7.370  -4.493  0.00  0.00    +0.292 HD
ENDBRANCH  22  28
ENDBRANCH  15  18
ENDBRANCH   7  14
BRANCH   1  30
ATOM     30  C   UNL     1      -1.422  -1.990  -0.026  0.00  0.00    +0.018 C 
BRANCH  30  31
ATOM     31  C   UNL     1      -1.450  -0.460  -0.023  0.00  0.00    +0.001 C 
BRANCH  31  33
ATOM     32  C   UNL     1      -0.047   1.607  -0.034  0.00  0.00    +0.004 C 
ATOM     33  C   UNL     1      -0.018   0.077  -0.038  0.00  0.00    -0.003 C 
ENDBRANCH  31  33
ENDBRANCH  30  31
ENDBRANCH   1  30
BRANCH   2  34
ATOM     34  O   UNL     1      -2.250  -4.448   1.352  0.00  0.00    -0.456 OA
BRANCH  34  35
ATOM     35  C   UNL     1      -1.595  -5.619   1.386  0.00  0.00    +0.313 C 
ATOM     36  O   UNL     1      -1.517  -6.297   0.389  0.00  0.00    -0.250 OA
BRANCH  35  37
ATOM     37  C   UNL     1      -0.958  -6.089   2.668  0.00  0.00    +0.059 C 
ATOM     38  C   UNL     1      -0.282  -7.442   2.436  0.00  0.00    +0.022 C 
ATOM     39  C   UNL     1       0.087  -5.068   3.122  0.00  0.00    +0.022 C 
ATOM     40  C   UNL     1      -2.032  -6.235   3.748  0.00  0.00    +0.022 C 
ENDBRANCH  35  37
ENDBRANCH  34  35
ENDBRANCH   2  34
TORSDOF 10
