REMARK  Name = ZINC09420981
REMARK  11 active torsions:
REMARK  status: ('A' for Active; 'I' for Inactive)
REMARK    1  A    between atoms: C_1  and  C_2
REMARK    2  A    between atoms: C_2  and  C_40
REMARK    3  A    between atoms: N_14  and  N_15
REMARK    4  A    between atoms: C_16  and  C_18
REMARK    5  A    between atoms: C_18  and  C_20
REMARK    6  A    between atoms: C_18  and  N_26
REMARK    7  A    between atoms: C_27  and  O_29
REMARK    8  A    between atoms: O_29  and  C_30
REMARK    9  A    between atoms: C_30  and  C_31
REMARK   10  A    between atoms: C_30  and  C_32
REMARK   11  A    between atoms: C_30  and  C_33
REMARK                            x       y       z     vdW  Elec       q    Type
REMARK                         _______ _______ _______ _____ _____    ______ ____
ROOT
ATOM      1  C   UNL     1       4.753  -0.923  -2.160  0.00  0.00    +0.055 C 
ATOM      2  C   UNL     1       4.811  -0.849  -0.633  0.00  0.00    +0.105 C 
ATOM      3  C   UNL     1       5.090   0.594  -0.195  0.00  0.00    +0.052 C 
ATOM      4  C   UNL     1       4.030   1.501  -0.827  0.00  0.00    +0.043 C 
ATOM      5  C   UNL     1       2.660   0.912  -0.604  0.00  0.00    -0.005 A 
ATOM      6  C   UNL     1       1.558   1.730  -0.764  0.00  0.00    +0.019 A 
ATOM      7  C   UNL     1       0.275   1.217  -0.575  0.00  0.00    +0.021 A 
ATOM      8  C   UNL     1       0.107  -0.131  -0.215  0.00  0.00    +0.141 A 
ATOM      9  C   UNL     1       1.216  -0.939  -0.057  0.00  0.00    +0.092 A 
ATOM     10  C   UNL     1       2.494  -0.420  -0.252  0.00  0.00    +0.128 A 
ATOM     11  O   UNL     1       3.555  -1.251  -0.084  0.00  0.00    -0.486 OA
ATOM     12  O   UNL     1      -1.145  -0.620  -0.028  0.00  0.00    -0.436 OA
ATOM     13  C   UNL     1      -2.147  -0.007  -0.719  0.00  0.00    +0.239 A 
ATOM     14  N   UNL     1      -3.109  -0.702  -1.270  0.00  0.00    -0.142 NA
ATOM     15  C   UNL     1      -2.115   1.462  -0.827  0.00  0.00    +0.020 A 
ATOM     16  C   UNL     1      -0.915   2.069  -0.752  0.00  0.00    -0.028 A 
ATOM     17  C   UNL     1      -0.746   3.560  -0.827  0.00  0.00    +0.036 C 
ATOM     18  C   UNL     1      -1.990   4.210  -1.433  0.00  0.00    +0.005 C 
ATOM     19  C   UNL     1      -3.223   3.688  -0.685  0.00  0.00    +0.005 C 
ATOM     20  C   UNL     1      -3.403   2.208  -1.025  0.00  0.00    +0.041 C 
ATOM     21  C   UNL     1       5.918  -1.769  -0.114  0.00  0.00    +0.055 C 
ENDROOT
BRANCH  14  22
ATOM     22  N   UNL     1      -4.265  -0.057  -1.729  0.00  0.00    -0.202 N 
ATOM     23  C   UNL     1      -5.199  -0.751  -2.409  0.00  0.00    +0.257 C 
ATOM     24  O   UNL     1      -5.039  -1.935  -2.624  0.00  0.00    -0.272 OA
ATOM     25  H   UNL     1      -4.393   0.890  -1.558  0.00  0.00    +0.177 HD
BRANCH  23  26
ATOM     26  C   UNL     1      -6.441  -0.057  -2.904  0.00  0.00    +0.194 C 
BRANCH  26  27
ATOM     27  C   UNL     1      -6.055   1.054  -3.846  0.00  0.00    -0.018 A 
ATOM     28  C   UNL     1      -5.730   0.766  -5.159  0.00  0.00    +0.006 A 
ATOM     29  C   UNL     1      -5.379   1.785  -6.024  0.00  0.00    +0.000 A 
ATOM     30  C   UNL     1      -5.347   3.092  -5.575  0.00  0.00    +0.000 A 
ATOM     31  C   UNL     1      -5.667   3.380  -4.262  0.00  0.00    +0.000 A 
ATOM     32  C   UNL     1      -6.021   2.361  -3.397  0.00  0.00    +0.006 A 
ENDBRANCH  26  27
BRANCH  26  33
ATOM     33  N   UNL     1      -7.292  -1.020  -3.607  0.00  0.00    -0.266 N 
ATOM     34  C   UNL     1      -8.620  -0.808  -3.696  0.00  0.00    +0.402 C 
ATOM     35  O   UNL     1      -9.112   0.182  -3.192  0.00  0.00    -0.226 OA
ATOM     36  H   UNL     1      -6.899  -1.811  -4.009  0.00  0.00    +0.153 HD
BRANCH  34  37
ATOM     37  O   UNL     1      -9.401  -1.694  -4.342  0.00  0.00    -0.445 OA
BRANCH  37  38
ATOM     38  C   UNL     1     -10.822  -1.401  -4.398  0.00  0.00    +0.107 C 
ATOM     39  C   UNL     1     -11.040  -0.065  -5.110  0.00  0.00    +0.055 C 
ATOM     40  C   UNL     1     -11.542  -2.512  -5.167  0.00  0.00    +0.055 C 
ATOM     41  C   UNL     1     -11.383  -1.320  -2.977  0.00  0.00    +0.055 C 
ENDBRANCH  37  38
ENDBRANCH  34  37
ENDBRANCH  26  33
ENDBRANCH  23  26
ENDBRANCH  14  22
TORSDOF 6
