REMARK  Name = ZINC16428054
REMARK  6 active torsions:
REMARK  status: ('A' for Active; 'I' for Inactive)
REMARK    1  A    between atoms: C_3  and  S_13
REMARK    2  A    between atoms: C_6  and  N_7
REMARK    3  A    between atoms: S_13  and  N_16
REMARK    4  A    between atoms: N_16  and  C_17
REMARK    5  A    between atoms: C_17  and  N_19
REMARK    6  A    between atoms: N_19  and  C_20
REMARK                            x       y       z     vdW  Elec       q    Type
REMARK                         _______ _______ _______ _____ _____    ______ ____
ROOT
ATOM      1  N   UNL     1      -1.197   2.366   0.021  0.00  0.00    -0.197 N 
ATOM      2  H   UNL     1      -1.210   3.336   0.026  0.00  0.00    +0.176 HD
ENDROOT
BRANCH   1   3
ATOM      3  S   UNL     1      -2.620   1.518   0.023  0.00  0.00    +0.074 S 
ATOM      4  O   UNL     1      -3.666   2.480   0.060  0.00  0.00    -0.150 OA
ATOM      5  O   UNL     1      -2.515   0.546  -1.009  0.00  0.00    -0.150 OA
BRANCH   3   8
ATOM      6  C   UNL     1      -3.341   0.524   3.847  0.00  0.00    +0.025 A 
ATOM      7  C   UNL     1      -3.280   1.216   2.654  0.00  0.00    +0.030 A 
ATOM      8  C   UNL     1      -2.696   0.632   1.544  0.00  0.00    +0.109 A 
ATOM      9  C   UNL     1      -2.178  -0.647   1.624  0.00  0.00    +0.030 A 
ATOM     10  C   UNL     1      -2.231  -1.342   2.816  0.00  0.00    +0.025 A 
ATOM     11  C   UNL     1      -2.816  -0.759   3.933  0.00  0.00    +0.030 A 
BRANCH  11  12
ATOM     12  N   UNL     1      -2.877  -1.461   5.138  0.00  0.00    -0.330 N 
ATOM     13  C   UNL     1      -2.250  -0.697   6.224  0.00  0.00    +0.105 C 
ATOM     14  C   UNL     1      -2.462  -1.427   7.553  0.00  0.00    +0.019 C 
ATOM     15  C   UNL     1      -1.844  -2.825   7.465  0.00  0.00    +0.003 C 
ATOM     16  C   UNL     1      -2.479  -3.583   6.296  0.00  0.00    +0.019 C 
ATOM     17  C   UNL     1      -2.266  -2.790   5.005  0.00  0.00    +0.105 C 
ENDBRANCH  11  12
ENDBRANCH   3   8
ENDBRANCH   1   3
BRANCH   1  18
ATOM     18  C   UNL     1      -0.021   1.708   0.011  0.00  0.00    +0.150 C 
ATOM     19  S   UNL     1       0.002  -0.004   0.002  0.00  0.00    -0.017 S 
BRANCH  18  20
ATOM     20  N   UNL     1       1.137   2.397   0.004  0.00  0.00    -0.322 N 
ATOM     21  H   UNL     1       1.124   3.367   0.009  0.00  0.00    +0.148 HD
BRANCH  20  22
ATOM     22  C   UNL     1       2.415   1.682  -0.012  0.00  0.00    +0.078 C 
ATOM     23  C   UNL     1       2.813   1.316   1.419  0.00  0.00    +0.010 C 
ATOM     24  C   UNL     1       4.148   0.569   1.403  0.00  0.00    +0.009 C 
ATOM     25  C   UNL     1       5.225   1.464   0.787  0.00  0.00    -0.010 C 
ATOM     26  C   UNL     1       5.365   2.740   1.620  0.00  0.00    +0.007 C 
ATOM     27  C   UNL     1       4.030   3.487   1.637  0.00  0.00    -0.010 C 
ATOM     28  C   UNL     1       2.952   2.592   2.252  0.00  0.00    +0.009 C 
ATOM     29  C   UNL     1       3.632   3.853   0.206  0.00  0.00    +0.009 C 
ATOM     30  C   UNL     1       3.493   2.578  -0.627  0.00  0.00    +0.010 C 
ATOM     31  C   UNL     1       4.828   1.831  -0.644  0.00  0.00    +0.009 C 
ENDBRANCH  20  22
ENDBRANCH  18  20
ENDBRANCH   1  18
TORSDOF 6
