REMARK  Name = ZINC60041172
REMARK  11 active torsions:
REMARK  status: ('A' for Active; 'I' for Inactive)
REMARK    1  A    between atoms: C_1  and  C_2
REMARK    2  A    between atoms: C_2  and  C_3
REMARK    3  A    between atoms: C_3  and  C_4
REMARK    4  A    between atoms: C_4  and  N_5
REMARK    5  A    between atoms: C_6  and  C_8
REMARK    6  A    between atoms: C_12  and  C_28
REMARK    7  A    between atoms: N_14  and  C_16
REMARK    8  A    between atoms: C_16  and  C_17
REMARK    9  A    between atoms: N_19  and  C_20
REMARK   10  A    between atoms: C_25  and  C_26
REMARK   11  A    between atoms: C_26  and  C_27
REMARK                            x       y       z     vdW  Elec       q    Type
REMARK                         _______ _______ _______ _____ _____    ______ ____
ROOT
ATOM      1  C   UNL     1       2.285  -4.309  -3.930  0.00  0.00    +0.058 C 
ATOM      2  C   UNL     1       1.554  -3.804  -5.178  0.00  0.00    +0.009 C 
ATOM      3  C   UNL     1       0.144  -4.401  -5.207  0.00  0.00    -0.015 C 
ATOM      4  C   UNL     1       0.241  -5.928  -5.170  0.00  0.00    -0.071 C 
ATOM      5  N   UNL     1       0.926  -6.348  -3.942  0.00  0.00    +0.388 N 
ATOM      6  C   UNL     1       2.304  -5.839  -3.939  0.00  0.00    -0.065 C 
ATOM      7  C   UNL     1      -1.166  -6.528  -5.199  0.00  0.00    -0.013 C 
ATOM      8  H   UNL     1       0.433  -5.983  -3.141  0.00  0.00    -0.081 HD
ENDROOT
BRANCH   1  10
ATOM      9  N   UNL     1       1.430  -2.500  -2.476  0.00  0.00    -0.315 N 
ATOM     10  C   UNL     1       1.570  -3.822  -2.696  0.00  0.00    +0.214 C 
ATOM     11  O   UNL     1       1.121  -4.620  -1.901  0.00  0.00    -0.276 OA
ATOM     12  H   UNL     1       1.790  -1.862  -3.112  0.00  0.00    +0.149 HD
BRANCH   9  13
ATOM     13  C   UNL     1       0.735  -2.026  -1.277  0.00  0.00    +0.104 C 
BRANCH  13  14
ATOM     14  C   UNL     1       0.715  -0.496  -1.269  0.00  0.00    +0.018 C 
BRANCH  14  16
ATOM     15  C   UNL     1      -0.031   1.528  -0.009  0.00  0.00    +0.004 C 
ATOM     16  C   UNL     1      -0.011  -0.002  -0.017  0.00  0.00    -0.002 C 
ENDBRANCH  14  16
ENDBRANCH  13  14
ENDBRANCH   9  13
ENDBRANCH   1  10
BRANCH   5  17
ATOM     17  C   UNL     1       0.948  -7.815  -3.872  0.00  0.00    +0.019 C 
BRANCH  17  18
ATOM     18  C   UNL     1       1.540  -8.247  -2.556  0.00  0.00    +0.201 C 
ATOM     19  O   UNL     1       1.908  -7.415  -1.754  0.00  0.00    -0.278 OA
ATOM     20  N   UNL     1       1.661  -9.559  -2.269  0.00  0.00    -0.287 N 
ATOM     21  H   UNL     1       1.295 -10.223  -2.874  0.00  0.00    +0.155 HD
BRANCH  20  22
ATOM     22  C   UNL     1       2.315  -9.962  -1.100  0.00  0.00    +0.036 A 
ATOM     23  C   UNL     1       3.260  -9.133  -0.510  0.00  0.00    +0.023 A 
ATOM     24  C   UNL     1       3.904  -9.534   0.644  0.00  0.00    +0.002 A 
ATOM     25  C   UNL     1       3.609 -10.760   1.212  0.00  0.00    +0.000 A 
ATOM     26  C   UNL     1       2.669 -11.588   0.627  0.00  0.00    +0.005 A 
ATOM     27  C   UNL     1       2.017 -11.190  -0.524  0.00  0.00    -0.026 A 
BRANCH  27  28
ATOM     28  C   UNL     1       0.987 -12.090  -1.157  0.00  0.00    +0.033 C 
ATOM     29  C   UNL     1       1.648 -12.930  -2.252  0.00  0.00    +0.009 C 
ENDBRANCH  27  28
ENDBRANCH  20  22
ENDBRANCH  17  18
ENDBRANCH   5  17
TORSDOF 8
