REMARK  Name = ZINC49184394
REMARK  5 active torsions:
REMARK  status: ('A' for Active; 'I' for Inactive)
REMARK    1  A    between atoms: C_1  and  C_2
REMARK    2  A    between atoms: C_5  and  C_7
REMARK    3  A    between atoms: C_7  and  C_9
REMARK    4  A    between atoms: C_7  and  N_10
REMARK    5  A    between atoms: C_12  and  N_18
REMARK                            x       y       z     vdW  Elec       q    Type
REMARK                         _______ _______ _______ _____ _____    ______ ____
ROOT
ATOM      1  N   UNL     1       2.136  -4.120  -0.998  0.00  0.00    -0.320 N 
ATOM      2  C   UNL     1       2.517  -5.340  -1.545  0.00  0.00    +0.150 A 
ATOM      3  C   UNL     1       3.590  -5.394  -2.430  0.00  0.00    +0.167 A 
ATOM      4  C   UNL     1       3.959  -6.614  -2.967  0.00  0.00    +0.053 A 
ATOM      5  C   UNL     1       3.240  -7.745  -2.599  0.00  0.00    +0.038 A 
ATOM      6  C   UNL     1       2.187  -7.618  -1.716  0.00  0.00    +0.128 A 
ATOM      7  N   UNL     1       1.860  -6.441  -1.215  0.00  0.00    -0.237 NA
ATOM      8 BR   UNL     1       3.700  -9.439  -3.303  0.00  0.00    -0.049 Br
ATOM      9  H   UNL     1       2.565  -3.302  -1.292  0.00  0.00    +0.148 HD
ENDROOT
BRANCH   3  10
ATOM     10  N   UNL     1       4.325  -4.161  -2.793  0.00  0.00    +0.060 N 
ATOM     11  O   UNL     1       4.727  -4.008  -3.922  0.00  0.00    -0.126 OA
ATOM     12  O   UNL     1       4.523  -3.308  -1.959  0.00  0.00    -0.126 OA
ENDBRANCH   3  10
BRANCH   1  13
ATOM     13  C   UNL     1       1.087  -4.072   0.024  0.00  0.00    +0.106 C 
ATOM     14  C   UNL     1       1.703  -4.330   1.400  0.00  0.00    +0.033 C 
BRANCH  13  19
ATOM     15  C   UNL     1      -0.439   1.381  -0.157  0.00  0.00    +0.051 C 
ATOM     16  C   UNL     1      -0.289  -0.117  -0.074  0.00  0.00    -0.013 A 
ATOM     17  C   UNL     1      -1.245  -1.061   0.106  0.00  0.00    +0.011 A 
ATOM     18  C   UNL     1      -0.873  -2.391   0.150  0.00  0.00    +0.013 A 
ATOM     19  C   UNL     1       0.437  -2.712   0.012  0.00  0.00    +0.010 A 
ATOM     20  S   UNL     1       1.191  -1.107  -0.195  0.00  0.00    -0.097 S 
ENDBRANCH  13  19
ENDBRANCH   1  13
TORSDOF 3
