REMARK  Name = ZINC02505965
REMARK  5 active torsions:
REMARK  status: ('A' for Active; 'I' for Inactive)
REMARK    1  A    between atoms: C_1  and  C_2
REMARK    2  A    between atoms: C_5  and  C_8
REMARK    3  A    between atoms: C_10  and  C_28
REMARK    4  A    between atoms: C_11  and  N_27
REMARK    5  A    between atoms: N_12  and  C_20
REMARK                            x       y       z     vdW  Elec       q    Type
REMARK                         _______ _______ _______ _____ _____    ______ ____
ROOT
ATOM      1  C   UNL     1      -2.615   3.912   0.350  0.00  0.00    +0.097 C 
ATOM      2  C   UNL     1      -2.975   3.309  -0.976  0.00  0.00    +0.077 C 
ATOM      3  C   UNL     1      -3.984   2.406  -1.086  0.00  0.00    +0.107 C 
ATOM      4  N   UNL     1      -4.701   2.033   0.029  0.00  0.00    -0.260 N 
ATOM      5  C   UNL     1      -4.700   2.818   1.152  0.00  0.00    +0.024 C 
ATOM      6  C   UNL     1      -3.731   3.737   1.349  0.00  0.00    +0.025 C 
ATOM      7  C   UNL     1      -3.733   4.558   2.489  0.00  0.00    +0.162 C 
ATOM      8  O   UNL     1      -2.840   5.368   2.642  0.00  0.00    -0.292 OA
ATOM      9  C   UNL     1      -4.819   4.454   3.525  0.00  0.00    +0.080 C 
ATOM     10  C   UNL     1      -6.104   3.962   2.851  0.00  0.00    +0.014 C 
ATOM     11  C   UNL     1      -5.810   2.631   2.157  0.00  0.00    +0.052 C 
ENDROOT
BRANCH   1  16
ATOM     12  C   UNL     1       2.154   1.345   2.364  0.00  0.00    +0.044 C 
ATOM     13  C   UNL     1       0.910   2.015   1.839  0.00  0.00    -0.050 A 
ATOM     14  C   UNL     1      -0.236   1.272   1.624  0.00  0.00    +0.003 A 
ATOM     15  C   UNL     1      -1.375   1.885   1.137  0.00  0.00    +0.005 A 
ATOM     16  C   UNL     1      -1.372   3.243   0.875  0.00  0.00    -0.035 A 
ATOM     17  C   UNL     1      -0.226   3.985   1.091  0.00  0.00    +0.005 A 
ATOM     18  C   UNL     1       0.915   3.371   1.572  0.00  0.00    +0.003 A 
ENDBRANCH   1  16
BRANCH   4  19
ATOM     19  C   UNL     1      -5.436   0.841   0.014  0.00  0.00    +0.040 A 
ATOM     20  C   UNL     1      -6.737   0.833  -0.472  0.00  0.00    +0.026 A 
ATOM     21  C   UNL     1      -7.459  -0.344  -0.490  0.00  0.00    +0.040 A 
ATOM     22  C   UNL     1      -6.890  -1.514  -0.014  0.00  0.00    +0.124 A 
ATOM     23  C   UNL     1      -5.595  -1.507   0.476  0.00  0.00    +0.040 A 
ATOM     24  C   UNL     1      -4.868  -0.333   0.491  0.00  0.00    +0.026 A 
ATOM     25  F   UNL     1      -7.600  -2.663  -0.029  0.00  0.00    -0.205 F 
ENDBRANCH   4  19
BRANCH   3  26
ATOM     26  N   UNL     1      -4.288   1.863  -2.311  0.00  0.00    -0.345 N 
ATOM     27  H   UNL     1      -5.062   1.286  -2.407  0.00  0.00    +0.144 HD
ATOM     28  H   UNL     1      -3.729   2.057  -3.080  0.00  0.00    +0.144 HD
ENDBRANCH   3  26
BRANCH   2  29
ATOM     29  C   UNL     1      -2.244   3.693  -2.146  0.00  0.00    +0.099 C 
ATOM     30  N   UNL     1      -1.664   3.998  -3.074  0.00  0.00    -0.191 NA
ENDBRANCH   2  29
TORSDOF 4
