REMARK  Name = ZINC36875994
REMARK  7 active torsions:
REMARK  status: ('A' for Active; 'I' for Inactive)
REMARK    1  A    between atoms: C_1  and  C_2
REMARK    2  A    between atoms: C_5  and  N_11
REMARK    3  A    between atoms: C_6  and  N_8
REMARK    4  A    between atoms: C_12  and  C_14
REMARK    5  A    between atoms: C_14  and  N_15
REMARK    6  A    between atoms: C_18  and  C_22
REMARK    7  A    between atoms: C_18  and  C_23
REMARK                            x       y       z     vdW  Elec       q    Type
REMARK                         _______ _______ _______ _____ _____    ______ ____
ROOT
ATOM      1  N   UNL     1      -0.349  -6.534  -2.680  0.00  0.00    -0.215 N 
ATOM      2  C   UNL     1      -1.531  -6.671  -3.313  0.00  0.00    +0.251 C 
ATOM      3  O   UNL     1      -2.636  -6.478  -2.851  0.00  0.00    -0.272 OA
ATOM      4  C   UNL     1      -1.193  -7.117  -4.721  0.00  0.00    +0.136 C 
ATOM      5  N   UNL     1       0.279  -7.186  -4.719  0.00  0.00    -0.281 N 
ATOM      6  C   UNL     1       0.678  -6.823  -3.486  0.00  0.00    +0.310 C 
ATOM      7  O   UNL     1       1.843  -6.768  -3.143  0.00  0.00    -0.252 OA
ATOM      8  C   UNL     1      -1.795  -8.494  -5.010  0.00  0.00    +0.047 C 
ATOM      9  H   UNL     1       0.848  -7.440  -5.462  0.00  0.00    +0.152 HD
ENDROOT
BRANCH   4  10
ATOM     10  C   UNL     1      -1.675  -6.104  -5.728  0.00  0.00    +0.003 A 
ATOM     11  C   UNL     1      -0.772  -5.489  -6.576  0.00  0.00    +0.009 A 
ATOM     12  C   UNL     1      -1.213  -4.561  -7.499  0.00  0.00    +0.020 A 
ATOM     13  C   UNL     1      -2.559  -4.246  -7.577  0.00  0.00    +0.042 A 
ATOM     14  C   UNL     1      -3.462  -4.862  -6.729  0.00  0.00    +0.040 A 
ATOM     15  C   UNL     1      -3.021  -5.795  -5.808  0.00  0.00    +0.048 A 
ATOM     16 CL   UNL     1      -4.154  -6.572  -4.748  0.00  0.00    -0.083 Cl
ATOM     17 CL   UNL     1      -3.112  -3.079  -8.736  0.00  0.00    -0.083 Cl
ENDBRANCH   4  10
BRANCH   1  18
ATOM     18  C   UNL     1      -0.207  -6.114  -1.284  0.00  0.00    +0.214 C 
BRANCH  18  20
ATOM     19  N   UNL     1       0.038  -3.996  -0.029  0.00  0.00    -0.282 N 
ATOM     20  C   UNL     1      -0.101  -4.612  -1.220  0.00  0.00    +0.235 C 
ATOM     21  O   UNL     1      -0.140  -3.957  -2.240  0.00  0.00    -0.274 OA
ATOM     22  H   UNL     1       0.151  -4.522   0.779  0.00  0.00    +0.155 HD
BRANCH  19  27
ATOM     23  C   UNL     1      -0.037   1.669   0.263  0.00  0.00    +0.044 C 
ATOM     24  C   UNL     1      -0.018   0.164   0.186  0.00  0.00    -0.048 A 
ATOM     25  C   UNL     1      -0.652  -0.482  -0.860  0.00  0.00    +0.005 A 
ATOM     26  C   UNL     1      -0.635  -1.861  -0.934  0.00  0.00    +0.026 A 
ATOM     27  C   UNL     1       0.020  -2.599   0.043  0.00  0.00    +0.064 A 
ATOM     28  C   UNL     1       0.655  -1.948   1.092  0.00  0.00    +0.148 A 
ATOM     29  C   UNL     1       0.639  -0.568   1.157  0.00  0.00    +0.038 A 
BRANCH  28  30
ATOM     30  N   UNL     1       1.354  -2.731   2.135  0.00  0.00    +0.058 N 
ATOM     31  O   UNL     1       1.825  -2.171   3.098  0.00  0.00    -0.126 OA
ATOM     32  O   UNL     1       1.454  -3.931   2.025  0.00  0.00    -0.126 OA
ENDBRANCH  28  30
ENDBRANCH  19  27
ENDBRANCH  18  20
ENDBRANCH   1  18
TORSDOF 5
