REMARK  Name = ZINC05595830
REMARK  9 active torsions:
REMARK  status: ('A' for Active; 'I' for Inactive)
REMARK    1  A    between atoms: C_1  and  C_2
REMARK    2  A    between atoms: C_5  and  C_7
REMARK    3  A    between atoms: C_10  and  C_11
REMARK    4  A    between atoms: C_10  and  O_18
REMARK    5  A    between atoms: N_23  and  C_24
REMARK    6  A    between atoms: C_24  and  C_25
REMARK    7  A    between atoms: C_25  and  N_48
REMARK    8  A    between atoms: C_26  and  N_48
REMARK    9  A    between atoms: C_27  and  N_48
REMARK                            x       y       z     vdW  Elec       q    Type
REMARK                         _______ _______ _______ _____ _____    ______ ____
ROOT
ATOM      1  C   UNL     1      -0.197   2.647   2.139  0.00  0.00    +0.180 C 
ATOM      2  C   UNL     1      -1.147   2.747   3.310  0.00  0.00    +0.074 C 
ATOM      3  C   UNL     1      -1.462   3.882   4.028  0.00  0.00    +0.133 C 
ATOM      4  C   UNL     1      -1.641   1.450   3.523  0.00  0.00    +0.249 C 
ATOM      5  O   UNL     1      -2.434   1.121   4.386  0.00  0.00    -0.282 OA
ATOM      6  C   UNL     1      -1.028   0.548   2.511  0.00  0.00    +0.288 C 
ATOM      7  O   UNL     1      -1.244  -0.643   2.419  0.00  0.00    -0.266 OA
ATOM      8  N   UNL     1      -0.199   1.244   1.715  0.00  0.00    -0.282 N 
ENDROOT
BRANCH   3   9
ATOM      9  C   UNL     1      -2.517   3.836   5.054  0.00  0.00    +0.017 A 
ATOM     10  C   UNL     1      -3.778   3.317   4.743  0.00  0.00    +0.013 A 
ATOM     11  C   UNL     1      -4.759   3.272   5.710  0.00  0.00    +0.021 A 
ATOM     12  C   UNL     1      -4.502   3.749   6.985  0.00  0.00    +0.041 A 
ATOM     13  C   UNL     1      -3.257   4.269   7.299  0.00  0.00    +0.021 A 
ATOM     14  C   UNL     1      -2.265   4.316   6.344  0.00  0.00    +0.013 A 
ATOM     15 CL   UNL     1      -5.745   3.693   8.195  0.00  0.00    -0.084 Cl
ENDBRANCH   3   9
BRANCH   1  20
ATOM     16  C   UNL     1       4.404   2.491   4.199  0.00  0.00    +0.086 C 
ATOM     17  C   UNL     1       3.191   2.989   3.456  0.00  0.00    +0.102 A 
ATOM     18  C   UNL     1       3.066   4.194   2.872  0.00  0.00    +0.045 A 
ATOM     19  C   UNL     1       1.778   4.236   2.289  0.00  0.00    +0.047 A 
ATOM     20  C   UNL     1       1.190   3.057   2.560  0.00  0.00    +0.130 A 
ATOM     21  O   UNL     1       2.052   2.304   3.264  0.00  0.00    -0.463 OA
ENDBRANCH   1  20
BRANCH   3  22
ATOM     22  O   UNL     1      -0.802   5.036   3.789  0.00  0.00    -0.506 OA
ATOM     23  H   UNL     1      -1.154   5.752   4.393  0.00  0.00    +0.292 HD
ENDBRANCH   3  22
BRANCH   8  24
ATOM     24  C   UNL     1       0.580   0.689   0.606  0.00  0.00    +0.091 C 
BRANCH  24  25
ATOM     25  C   UNL     1      -0.241   0.764  -0.683  0.00  0.00    -0.060 C 
BRANCH  25  28
ATOM     26  C   UNL     1      -0.292   0.044  -2.994  0.00  0.00    -0.097 C 
ATOM     27  C   UNL     1       1.717   1.041  -2.081  0.00  0.00    -0.097 C 
ATOM     28  N   UNL     1       0.550   0.182  -1.787  0.00  0.00    +0.377 N 
ATOM     29  H   UNL     1       0.883  -0.747  -1.505  0.00  0.00    -0.083 HD
ENDBRANCH  25  28
ENDBRANCH  24  25
ENDBRANCH   8  24
TORSDOF 6
