REMARK  Name = ZINC36626963
REMARK  5 active torsions:
REMARK  status: ('A' for Active; 'I' for Inactive)
REMARK    1  A    between atoms: C_1  and  C_2
REMARK    2  A    between atoms: C_4  and  C_28
REMARK    3  A    between atoms: C_12  and  C_14
REMARK    4  A    between atoms: C_14  and  N_15
REMARK    5  A    between atoms: C_21  and  C_24
REMARK                            x       y       z     vdW  Elec       q    Type
REMARK                         _______ _______ _______ _____ _____    ______ ____
ROOT
ATOM      1  C   UNL     1      -0.018   1.503   0.010  0.00  0.00    +0.044 C 
ATOM      2  C   UNL     1       0.002  -0.004   0.002  0.00  0.00    -0.049 A 
ATOM      3  C   UNL     1       0.006  -0.698  -1.199  0.00  0.00    +0.009 A 
ATOM      4  C   UNL     1       0.024  -2.068  -1.235  0.00  0.00    -0.024 A 
ATOM      5  C   UNL     1       0.040  -2.822  -0.038  0.00  0.00    +0.083 A 
ATOM      6  C   UNL     1       0.036  -2.081   1.166  0.00  0.00    +0.041 A 
ATOM      7  C   UNL     1       0.023  -0.709   1.191  0.00  0.00    +0.020 A 
ATOM      8  S   UNL     1       0.059  -3.361   2.397  0.00  0.00    -0.052 S 
ATOM      9  C   UNL     1       0.073  -4.752   1.275  0.00  0.00    +0.165 A 
ATOM     10  N   UNL     1       0.059  -4.165   0.101  0.00  0.00    -0.224 NA
ATOM     11  N   UNL     1       0.093  -6.106   1.569  0.00  0.00    -0.263 N 
ATOM     12  C   UNL     1       0.104  -6.517   2.853  0.00  0.00    +0.237 C 
ATOM     13  O   UNL     1       0.097  -5.701   3.750  0.00  0.00    -0.274 OA
ATOM     14  C   UNL     1       0.027  -2.779  -2.563  0.00  0.00    +0.046 C 
ATOM     15  H   UNL     1       0.099  -6.758   0.851  0.00  0.00    +0.157 HD
ENDROOT
BRANCH  12  16
ATOM     16  C   UNL     1       0.125  -7.989   3.172  0.00  0.00    +0.214 C 
BRANCH  16  17
ATOM     17  N   UNL     1       0.134  -8.173   4.626  0.00  0.00    -0.215 N 
ATOM     18  C   UNL     1       1.254  -8.248   5.374  0.00  0.00    +0.247 C 
ATOM     19  O   UNL     1       2.401  -8.178   4.987  0.00  0.00    -0.273 OA
ATOM     20  C   UNL     1       0.778  -8.436   6.796  0.00  0.00    +0.113 C 
ATOM     21  C   UNL     1       1.237  -7.274   7.669  0.00  0.00    +0.035 C 
ATOM     22  C   UNL     1       0.719  -7.468   9.096  0.00  0.00    +0.006 C 
ATOM     23  C   UNL     1       1.252  -8.789   9.655  0.00  0.00    -0.014 C 
ATOM     24  C   UNL     1       0.763  -9.948   8.783  0.00  0.00    +0.006 C 
ATOM     25  C   UNL     1       1.282  -9.763   7.354  0.00  0.00    +0.035 C 
ATOM     26  C   UNL     1       0.744  -8.979  11.086  0.00  0.00    +0.007 C 
ATOM     27  N   UNL     1      -0.686  -8.448   6.683  0.00  0.00    -0.285 N 
ATOM     28  C   UNL     1      -0.969  -8.283   5.377  0.00  0.00    +0.310 C 
ATOM     29  O   UNL     1      -2.098  -8.241   4.929  0.00  0.00    -0.252 OA
ATOM     30  H   UNL     1      -1.324  -8.551   7.407  0.00  0.00    +0.151 HD
ENDBRANCH  16  17
ENDBRANCH  12  16
TORSDOF 2
