REMARK  Name = ZINC28827334
REMARK  3 active torsions:
REMARK  status: ('A' for Active; 'I' for Inactive)
REMARK    1  A    between atoms: C_3  and  C_9
REMARK    2  A    between atoms: C_13  and  N_19
REMARK    3  A    between atoms: C_25  and  N_28
REMARK                            x       y       z     vdW  Elec       q    Type
REMARK                         _______ _______ _______ _____ _____    ______ ____
ROOT
ATOM      1  N   UNL     1      -0.011   0.966   0.003  0.00  0.00    -0.288 N 
ATOM      2  C   UNL     1      -1.187   1.624   0.017  0.00  0.00    +0.303 C 
ATOM      3  O   UNL     1      -1.206   2.835   0.119  0.00  0.00    -0.253 OA
ATOM      4  N   UNL     1      -2.344   0.939  -0.084  0.00  0.00    -0.285 N 
ATOM      5  C   UNL     1      -3.627   1.647  -0.179  0.00  0.00    +0.111 C 
ATOM      6  C   UNL     1      -4.566   1.123   0.906  0.00  0.00    +0.044 C 
ATOM      7  C   UNL     1      -4.677  -0.399   0.791  0.00  0.00    +0.095 C 
ATOM      8  C   UNL     1      -3.298  -1.030   0.997  0.00  0.00    +0.044 C 
ATOM      9  C   UNL     1      -2.345  -0.531  -0.093  0.00  0.00    +0.111 C 
ATOM     10  H   UNL     1       0.004  -0.134  -0.004  0.00  0.00    +0.151 HD
ENDROOT
BRANCH   7  11
ATOM     11  N   UNL     1      -5.601  -0.900   1.812  0.00  0.00    -0.288 N 
ATOM     12  C   UNL     1      -6.778  -1.603   1.573  0.00  0.00    +0.089 A 
ATOM     13  C   UNL     1      -7.423  -2.030   0.422  0.00  0.00    +0.031 A 
ATOM     14  C   UNL     1      -8.614  -2.726   0.556  0.00  0.00    +0.022 A 
ATOM     15  C   UNL     1      -9.117  -2.969   1.821  0.00  0.00    +0.113 A 
ATOM     16  N   UNL     1      -8.484  -2.552   2.900  0.00  0.00    -0.236 NA
ATOM     17  C   UNL     1      -7.344  -1.885   2.820  0.00  0.00    +0.159 A 
ATOM     18  N   UNL     1      -6.492  -1.344   3.775  0.00  0.00    -0.291 N 
ATOM     19  H   UNL     1      -6.734  -1.438   4.844  0.00  0.00    +0.172 HD
ATOM     20  C   UNL     1      -5.454  -0.765   3.144  0.00  0.00    +0.329 A 
ATOM     21  O   UNL     1      -4.525  -0.203   3.693  0.00  0.00    -0.246 OA
ENDBRANCH   7  11
BRANCH   1  25
ATOM     22  C   UNL     1       4.233   2.504  -0.144  0.00  0.00    +0.039 C 
ATOM     23  C   UNL     1       3.455   1.735  -1.195  0.00  0.00    +0.012 C 
ATOM     24  C   UNL     1       2.354   0.860  -0.624  0.00  0.00    +0.032 C 
ATOM     25  C   UNL     1       1.248   1.716  -0.003  0.00  0.00    +0.160 C 
ATOM     26  C   UNL     1       1.641   2.061   1.417  0.00  0.00    +0.233 C 
ATOM     27  O   UNL     1       1.055   1.550   2.348  0.00  0.00    -0.274 OA
ATOM     28  N   UNL     1       2.634   2.919   1.650  0.00  0.00    -0.313 N 
ATOM     29  C   UNL     1       3.348   3.554   0.530  0.00  0.00    +0.112 C 
ATOM     30  H   UNL     1       2.919   3.152   2.687  0.00  0.00    +0.149 HD
BRANCH  22  33
ATOM     31  C   UNL     1       6.264   4.744  -2.406  0.00  0.00    +0.003 A 
ATOM     32  C   UNL     1       5.191   4.110  -1.808  0.00  0.00    +0.007 A 
ATOM     33  C   UNL     1       5.404   3.191  -0.799  0.00  0.00    -0.005 A 
ATOM     34  C   UNL     1       6.694   2.896  -0.393  0.00  0.00    +0.162 A 
ATOM     35  C   UNL     1       7.771   3.528  -0.996  0.00  0.00    +0.159 A 
ATOM     36  C   UNL     1       7.553   4.452  -2.003  0.00  0.00    +0.041 A 
ATOM     37  F   UNL     1       9.031   3.242  -0.601  0.00  0.00    -0.202 F 
ATOM     38  F   UNL     1       6.904   1.994   0.591  0.00  0.00    -0.202 F 
ENDBRANCH  22  33
ENDBRANCH   1  25
TORSDOF 3
