REMARK  Name = ZINC32620482
REMARK  6 active torsions:
REMARK  status: ('A' for Active; 'I' for Inactive)
REMARK    1  A    between atoms: C_1  and  C_2
REMARK    2  A    between atoms: C_5  and  C_26
REMARK    3  A    between atoms: C_6  and  N_8
REMARK    4  A    between atoms: C_13  and  N_17
REMARK    5  A    between atoms: N_17  and  C_18
REMARK    6  A    between atoms: C_18  and  C_19
REMARK                            x       y       z     vdW  Elec       q    Type
REMARK                         _______ _______ _______ _____ _____    ______ ____
ROOT
ATOM      1  N   UNL     1       1.493  -5.964  -4.863  0.00  0.00    -0.214 N 
ATOM      2  C   UNL     1       1.732  -5.611  -3.566  0.00  0.00    +0.168 A 
ATOM      3  C   UNL     1       1.774  -4.203  -3.534  0.00  0.00    +0.079 A 
ATOM      4  C   UNL     1       1.553  -3.753  -4.854  0.00  0.00    +0.148 A 
ATOM      5  N   UNL     1       1.390  -4.792  -5.624  0.00  0.00    -0.172 NA
ATOM      6  C   UNL     1       2.009  -3.571  -2.298  0.00  0.00    +0.133 A 
ATOM      7  N   UNL     1       2.184  -4.331  -1.223  0.00  0.00    -0.220 NA
ATOM      8  C   UNL     1       2.130  -5.649  -1.301  0.00  0.00    +0.225 A 
ATOM      9  N   UNL     1       1.914  -6.285  -2.432  0.00  0.00    -0.216 NA
ENDROOT
BRANCH   1  15
ATOM     10  C   UNL     1       3.204 -10.568  -5.095  0.00  0.00    +0.044 C 
ATOM     11  C   UNL     1       2.189  -9.523  -5.478  0.00  0.00    -0.048 A 
ATOM     12  C   UNL     1       1.136  -9.855  -6.311  0.00  0.00    +0.004 A 
ATOM     13  C   UNL     1       0.202  -8.899  -6.665  0.00  0.00    +0.006 A 
ATOM     14  C   UNL     1       0.318  -7.608  -6.187  0.00  0.00    -0.025 A 
ATOM     15  C   UNL     1       1.373  -7.272  -5.350  0.00  0.00    +0.071 A 
ATOM     16  C   UNL     1       2.313  -8.233  -5.001  0.00  0.00    +0.031 A 
ATOM     17  C   UNL     1      -0.701  -6.567  -6.573  0.00  0.00    +0.046 C 
ENDBRANCH   1  15
BRANCH   6  18
ATOM     18  N   UNL     1       2.062  -2.194  -2.208  0.00  0.00    -0.324 N 
ATOM     19  H   UNL     1       1.920  -1.577  -3.107  0.00  0.00    +0.148 HD
BRANCH  18  20
ATOM     20  C   UNL     1       2.307  -1.554  -0.912  0.00  0.00    +0.138 C 
BRANCH  20  21
ATOM     21  C   UNL     1       2.317  -0.057  -1.086  0.00  0.00    -0.030 A 
ATOM     22  C   UNL     1       1.142   0.661  -0.957  0.00  0.00    +0.008 A 
ATOM     23  C   UNL     1       1.150   2.034  -1.115  0.00  0.00    +0.038 A 
ATOM     24  C   UNL     1       2.334   2.690  -1.402  0.00  0.00    +0.123 A 
ATOM     25  C   UNL     1       3.510   1.971  -1.530  0.00  0.00    +0.038 A 
ATOM     26  C   UNL     1       3.500   0.598  -1.372  0.00  0.00    +0.008 A 
ATOM     27  F   UNL     1       2.343   4.032  -1.556  0.00  0.00    -0.205 F 
ENDBRANCH  20  21
ENDBRANCH  18  20
ENDBRANCH   6  18
TORSDOF 4
