REMARK  Name = ZINC33959583
REMARK  11 active torsions:
REMARK  status: ('A' for Active; 'I' for Inactive)
REMARK    1  A    between atoms: C_4  and  C_7
REMARK    2  A    between atoms: N_9  and  C_10
REMARK    3  A    between atoms: C_10  and  C_11
REMARK    4  A    between atoms: C_11  and  C_12
REMARK    5  A    between atoms: C_12  and  C_13
REMARK    6  A    between atoms: C_13  and  C_14
REMARK    7  A    between atoms: C_14  and  C_16
REMARK    8  A    between atoms: C_14  and  N_33
REMARK    9  A    between atoms: N_18  and  N_19
REMARK   10  A    between atoms: C_20  and  C_21
REMARK   11  A    between atoms: C_24  and  C_26
REMARK                            x       y       z     vdW  Elec       q    Type
REMARK                         _______ _______ _______ _____ _____    ______ ____
ROOT
ATOM      1  C   UNL     1       7.208  -7.155  -0.036  0.00  0.00    +0.021 C 
ENDROOT
BRANCH   1   2
ATOM      2  N   UNL     1       7.828  -6.880   1.267  0.00  0.00    +0.387 N 
ATOM      3  C   UNL     1       7.844  -5.432   1.504  0.00  0.00    -0.078 C 
ATOM      4  C   UNL     1       8.415  -5.145   2.894  0.00  0.00    -0.019 C 
ATOM      5  C   UNL     1       9.843  -5.693   2.977  0.00  0.00    -0.004 C 
ATOM      6  C   UNL     1       9.823  -7.190   2.655  0.00  0.00    -0.019 C 
ATOM      7  C   UNL     1       9.200  -7.401   1.274  0.00  0.00    -0.078 C 
ATOM      8  H   UNL     1       7.294  -7.332   1.994  0.00  0.00    -0.081 HD
ENDBRANCH   1   2
BRANCH   1   9
ATOM      9  C   UNL     1       7.072  -8.644  -0.224  0.00  0.00    +0.219 C 
ATOM     10  O   UNL     1       7.103  -9.382   0.739  0.00  0.00    -0.276 OA
ATOM     11  N   UNL     1       6.917  -9.156  -1.461  0.00  0.00    -0.208 N 
ATOM     12  H   UNL     1       6.892  -8.566  -2.230  0.00  0.00    +0.177 HD
BRANCH  11  13
ATOM     13  N   UNL     1       6.791 -10.540  -1.635  0.00  0.00    -0.185 NA
ATOM     14  C   UNL     1       6.640 -11.035  -2.830  0.00  0.00    +0.176 C 
BRANCH  14  15
ATOM     15  C   UNL     1       6.508 -12.482  -3.012  0.00  0.00    +0.148 A 
ATOM     16  C   UNL     1       6.350 -13.134  -4.215  0.00  0.00    +0.051 A 
ATOM     17  C   UNL     1       6.267 -14.502  -3.925  0.00  0.00    +0.050 A 
ATOM     18  C   UNL     1       6.375 -14.632  -2.572  0.00  0.00    +0.137 A 
ATOM     19  O   UNL     1       6.527 -13.408  -2.032  0.00  0.00    -0.454 OA
BRANCH  18  20
ATOM     20  C   UNL     1       6.340 -15.904  -1.824  0.00  0.00    +0.036 A 
ATOM     21  C   UNL     1       5.317 -16.827  -2.057  0.00  0.00    +0.013 A 
ATOM     22  C   UNL     1       5.290 -18.014  -1.355  0.00  0.00    +0.001 A 
ATOM     23  C   UNL     1       6.272 -18.292  -0.420  0.00  0.00    +0.001 A 
ATOM     24  C   UNL     1       7.287 -17.383  -0.182  0.00  0.00    +0.021 A 
ATOM     25  C   UNL     1       7.332 -16.194  -0.883  0.00  0.00    +0.052 A 
ATOM     26 CL   UNL     1       8.611 -15.058  -0.590  0.00  0.00    -0.083 Cl
ENDBRANCH  18  20
ENDBRANCH  14  15
ENDBRANCH  11  13
ENDBRANCH   1   9
BRANCH   1  27
ATOM     27  C   UNL     1       5.823  -6.506  -0.089  0.00  0.00    -0.006 C 
BRANCH  27  28
ATOM     28  C   UNL     1       4.966  -7.041   1.060  0.00  0.00    +0.000 C 
BRANCH  28  29
ATOM     29  C   UNL     1       3.623  -6.308   1.078  0.00  0.00    +0.019 C 
BRANCH  29  30
ATOM     30  C   UNL     1       2.765  -6.842   2.227  0.00  0.00    +0.104 C 
BRANCH  30  33
ATOM     31  C   UNL     1       0.556  -6.447   3.176  0.00  0.00    +0.244 C 
ATOM     32  O   UNL     1       0.790  -7.306   4.003  0.00  0.00    -0.270 OA
ATOM     33  N   UNL     1       1.479  -6.140   2.244  0.00  0.00    -0.311 N 
ATOM     34  H   UNL     1       1.292  -5.454   1.584  0.00  0.00    +0.149 HD
BRANCH  31  38
ATOM     35  C   UNL     1      -3.171  -4.411   3.226  0.00  0.00    +0.000 A 
ATOM     36  C   UNL     1      -2.908  -5.389   4.169  0.00  0.00    +0.001 A 
ATOM     37  C   UNL     1      -1.700  -6.054   4.158  0.00  0.00    +0.013 A 
ATOM     38  C   UNL     1      -0.741  -5.739   3.193  0.00  0.00    +0.037 A 
ATOM     39  C   UNL     1      -1.013  -4.751   2.245  0.00  0.00    +0.013 A 
ATOM     40  C   UNL     1      -2.226  -4.093   2.267  0.00  0.00    +0.001 A 
ENDBRANCH  31  38
ENDBRANCH  30  33
ENDBRANCH  29  30
ENDBRANCH  28  29
ENDBRANCH  27  28
ENDBRANCH   1  27
TORSDOF 11
