REMARK  Name = ZINC43548366
REMARK  8 active torsions:
REMARK  status: ('A' for Active; 'I' for Inactive)
REMARK    1  A    between atoms: C_1  and  C_2
REMARK    2  A    between atoms: N_9  and  C_10
REMARK    3  A    between atoms: C_17  and  C_36
REMARK    4  A    between atoms: C_20  and  O_35
REMARK    5  A    between atoms: C_22  and  C_26
REMARK    6  A    between atoms: C_26  and  C_28
REMARK    7  A    between atoms: C_26  and  C_29
REMARK    8  A    between atoms: N_31  and  C_32
REMARK                            x       y       z     vdW  Elec       q    Type
REMARK                         _______ _______ _______ _____ _____    ______ ____
ROOT
ATOM      1  C   UNL     1       0.018   1.676   0.381  0.00  0.00    +0.014 C 
ATOM      2  C   UNL     1       0.009   0.152   0.244  0.00  0.00    +0.042 C 
ATOM      3  C   UNL     1      -1.427  -0.344   0.192  0.00  0.00    +0.057 A 
ATOM      4  C   UNL     1      -1.794  -1.468   0.856  0.00  0.00    +0.015 A 
ATOM      5  S   UNL     1      -3.518  -1.599   0.474  0.00  0.00    -0.057 S 
ATOM      6  C   UNL     1      -3.634  -0.223  -0.491  0.00  0.00    +0.163 A 
ATOM      7  N   UNL     1      -2.408   0.254  -0.480  0.00  0.00    -0.229 NA
ATOM      8  N   UNL     1      -4.751   0.284  -1.139  0.00  0.00    -0.294 N 
ATOM      9  C   UNL     1      -0.932  -2.350   1.693  0.00  0.00    +0.051 C 
ATOM     10  C   UNL     1       0.535  -1.995   1.437  0.00  0.00    -0.022 C 
ATOM     11  C   UNL     1       0.719  -0.474   1.450  0.00  0.00    +0.033 C 
ATOM     12  C   UNL     1       2.223  -0.182   1.319  0.00  0.00    +0.123 C 
ATOM     13  C   UNL     1       2.713  -0.725  -0.025  0.00  0.00    +0.029 C 
ATOM     14  C   UNL     1       2.485  -2.235  -0.094  0.00  0.00    +0.007 C 
ATOM     15  C   UNL     1       0.996  -2.544   0.089  0.00  0.00    +0.008 C 
ATOM     16  C   UNL     1       1.399  -2.596   2.548  0.00  0.00    +0.012 C 
ATOM     17  H   UNL     1      -4.661   1.038  -1.742  0.00  0.00    +0.154 HD
ENDROOT
BRANCH   8  18
ATOM     18  C   UNL     1      -6.006  -0.291  -0.922  0.00  0.00    +0.033 A 
ATOM     19  C   UNL     1      -6.332  -0.797   0.330  0.00  0.00    +0.023 A 
ATOM     20  C   UNL     1      -7.573  -1.365   0.541  0.00  0.00    +0.002 A 
ATOM     21  C   UNL     1      -8.490  -1.431  -0.492  0.00  0.00    +0.000 A 
ATOM     22  C   UNL     1      -8.168  -0.928  -1.739  0.00  0.00    +0.002 A 
ATOM     23  C   UNL     1      -6.931  -0.353  -1.956  0.00  0.00    +0.023 A 
ENDBRANCH   8  18
BRANCH  13  24
ATOM     24  C   UNL     1       4.207  -0.431  -0.177  0.00  0.00    +0.077 C 
ATOM     25  C   UNL     1       4.438   1.080  -0.121  0.00  0.00    +0.017 C 
BRANCH  24  26
ATOM     26  C   UNL     1       4.691  -0.965  -1.501  0.00  0.00    +0.216 C 
ATOM     27  O   UNL     1       3.918  -1.525  -2.249  0.00  0.00    -0.276 OA
ATOM     28  N   UNL     1       5.984  -0.820  -1.853  0.00  0.00    -0.312 N 
ATOM     29  H   UNL     1       6.603  -0.373  -1.255  0.00  0.00    +0.149 HD
BRANCH  28  30
ATOM     30  C   UNL     1       6.455  -1.339  -3.140  0.00  0.00    +0.073 C 
ATOM     31  C   UNL     1       7.790  -2.087  -3.154  0.00  0.00    +0.024 C 
ATOM     32  C   UNL     1       7.693  -0.683  -3.755  0.00  0.00    +0.024 C 
ENDBRANCH  28  30
ENDBRANCH  24  26
ENDBRANCH  13  24
BRANCH  12  33
ATOM     33  O   UNL     1       2.930  -0.821   2.384  0.00  0.00    -0.391 OA
ATOM     34  H   UNL     1       3.886  -0.678   2.362  0.00  0.00    +0.210 HD
ENDBRANCH  12  33
TORSDOF 5
