REMARK  Name = ZINC36899682
REMARK  3 active torsions:
REMARK  status: ('A' for Active; 'I' for Inactive)
REMARK    1  A    between atoms: C_4  and  O_18
REMARK    2  A    between atoms: C_5  and  N_7
REMARK    3  A    between atoms: O_18  and  C_19
REMARK                            x       y       z     vdW  Elec       q    Type
REMARK                         _______ _______ _______ _____ _____    ______ ____
ROOT
ATOM      1  N   UNL     1       1.234  -2.084  -0.021  0.00  0.00    -0.277 N 
ATOM      2  C   UNL     1       1.252  -2.913   1.090  0.00  0.00    +0.075 A 
ATOM      3  C   UNL     1       1.255  -2.687   2.458  0.00  0.00    +0.029 A 
ATOM      4  C   UNL     1       1.276  -3.756   3.331  0.00  0.00    +0.017 A 
ATOM      5  C   UNL     1       1.294  -5.057   2.848  0.00  0.00    +0.020 A 
ATOM      6  C   UNL     1       1.292  -5.299   1.492  0.00  0.00    +0.045 A 
ATOM      7  C   UNL     1       1.270  -4.228   0.596  0.00  0.00    +0.092 A 
ATOM      8  N   UNL     1       1.262  -4.146  -0.761  0.00  0.00    -0.214 NA
ATOM      9  C   UNL     1       1.235  -2.889  -1.127  0.00  0.00    +0.199 A 
ATOM     10  N   UNL     1       1.215  -2.443  -2.432  0.00  0.00    -0.329 N 
ATOM     11 BR   UNL     1       1.323  -6.507   4.061  0.00  0.00    -0.050 Br
ATOM     12  H   UNL     1       1.198  -1.492  -2.619  0.00  0.00    +0.145 HD
ATOM     13  H   UNL     1       1.217  -3.082  -3.162  0.00  0.00    +0.145 HD
ENDROOT
BRANCH   1  18
ATOM     14  C   UNL     1      -0.017   1.378   0.010  0.00  0.00    +0.002 A 
ATOM     15  C   UNL     1       1.169   2.089   0.002  0.00  0.00    +0.004 A 
ATOM     16  C   UNL     1       2.380   1.421  -0.013  0.00  0.00    +0.048 A 
ATOM     17  C   UNL     1       2.407   0.036  -0.021  0.00  0.00    +0.151 A 
ATOM     18  C   UNL     1       1.213  -0.681  -0.013  0.00  0.00    +0.092 A 
ATOM     19  C   UNL     1       0.002  -0.004   0.002  0.00  0.00    +0.030 A 
BRANCH  17  20
ATOM     20  O   UNL     1       3.596  -0.623  -0.036  0.00  0.00    -0.432 OA
BRANCH  20  21
ATOM     21  C   UNL     1       4.780   0.177  -0.044  0.00  0.00    +0.541 C 
ATOM     22  F   UNL     1       4.786   0.991  -1.182  0.00  0.00    -0.166 F 
ATOM     23  F   UNL     1       4.809   0.979   1.103  0.00  0.00    -0.166 F 
ENDBRANCH  20  21
ENDBRANCH  17  20
ENDBRANCH   1  18
TORSDOF 3
