REMARK  Name = ZINC09575609
REMARK  7 active torsions:
REMARK  status: ('A' for Active; 'I' for Inactive)
REMARK    1  A    between atoms: C_1  and  C_2
REMARK    2  A    between atoms: N_11  and  C_15
REMARK    3  A    between atoms: C_15  and  C_16
REMARK    4  A    between atoms: N_18  and  C_19
REMARK    5  A    between atoms: C_24  and  S_25
REMARK    6  A    between atoms: S_25  and  C_26
REMARK    7  A    between atoms: C_26  and  C_27
REMARK                            x       y       z     vdW  Elec       q    Type
REMARK                         _______ _______ _______ _____ _____    ______ ____
ROOT
ATOM      1  C   UNL     1      -3.622   3.133  -0.050  0.00  0.00    +0.235 C 
ATOM      2  O   UNL     1      -3.609   1.920  -0.057  0.00  0.00    -0.274 OA
ATOM      3  N   UNL     1      -2.465   3.819   0.045  0.00  0.00    -0.283 N 
ATOM      4  H   UNL     1      -2.479   4.786   0.116  0.00  0.00    +0.155 HD
ENDROOT
BRANCH   3   5
ATOM      5  C   UNL     1      -1.242   3.134   0.041  0.00  0.00    +0.047 A 
ATOM      6  C   UNL     1      -1.142   1.886   0.637  0.00  0.00    +0.024 A 
ATOM      7  C   UNL     1       0.066   1.215   0.637  0.00  0.00    +0.002 A 
ATOM      8  C   UNL     1       1.176   1.779   0.034  0.00  0.00    +0.001 A 
ATOM      9  C   UNL     1       1.085   3.020  -0.567  0.00  0.00    +0.016 A 
ATOM     10  C   UNL     1      -0.123   3.704  -0.567  0.00  0.00    +0.029 A 
BRANCH  10  11
ATOM     11  S   UNL     1      -0.243   5.286  -1.332  0.00  0.00    -0.119 S 
BRANCH  11  12
ATOM     12  C   UNL     1       1.429   5.595  -1.966  0.00  0.00    +0.109 C 
BRANCH  12  13
ATOM     13  C   UNL     1       1.466   6.935  -2.654  0.00  0.00    -0.037 A 
ATOM     14  C   UNL     1       1.192   7.026  -4.006  0.00  0.00    +0.004 A 
ATOM     15  C   UNL     1       1.221   8.257  -4.635  0.00  0.00    +0.000 A 
ATOM     16  C   UNL     1       1.534   9.394  -3.915  0.00  0.00    +0.000 A 
ATOM     17  C   UNL     1       1.813   9.303  -2.565  0.00  0.00    +0.000 A 
ATOM     18  C   UNL     1       1.778   8.073  -1.934  0.00  0.00    +0.004 A 
ENDBRANCH  12  13
ENDBRANCH  11  12
ENDBRANCH  10  11
ENDBRANCH   3   5
BRANCH   1  19
ATOM     19  C   UNL     1      -4.931   3.873  -0.148  0.00  0.00    +0.214 C 
BRANCH  19  29
ATOM     20  C   UNL     1      -5.989  -0.399  -0.848  0.00  0.00    +0.010 C 
ATOM     21  C   UNL     1      -7.311   0.057  -1.470  0.00  0.00    +0.018 C 
ATOM     22  C   UNL     1      -8.434  -0.886  -1.030  0.00  0.00    +0.006 C 
ATOM     23  C   UNL     1      -9.758  -0.416  -1.636  0.00  0.00    +0.000 C 
ATOM     24  C   UNL     1     -10.072   0.999  -1.146  0.00  0.00    +0.003 C 
ATOM     25  C   UNL     1      -8.955   1.949  -1.586  0.00  0.00    +0.035 C 
ATOM     26  C   UNL     1      -7.626   1.476  -1.007  0.00  0.00    +0.115 C 
ATOM     27  C   UNL     1      -6.516   2.423  -1.400  0.00  0.00    +0.247 C 
ATOM     28  O   UNL     1      -6.141   2.688  -2.522  0.00  0.00    -0.273 OA
ATOM     29  N   UNL     1      -6.031   2.910  -0.240  0.00  0.00    -0.215 N 
ATOM     30  C   UNL     1      -6.682   2.409   0.817  0.00  0.00    +0.310 C 
ATOM     31  O   UNL     1      -6.427   2.701   1.969  0.00  0.00    -0.252 OA
ATOM     32  N   UNL     1      -7.651   1.544   0.460  0.00  0.00    -0.285 N 
ATOM     33  H   UNL     1      -8.248   1.063   1.054  0.00  0.00    +0.151 HD
ENDBRANCH  19  29
ENDBRANCH   1  19
TORSDOF 6
