REMARK  Name = ZINC29836722
REMARK  9 active torsions:
REMARK  status: ('A' for Active; 'I' for Inactive)
REMARK    1  A    between atoms: C_1  and  C_2
REMARK    2  A    between atoms: C_5  and  C_8
REMARK    3  A    between atoms: C_8  and  C_10
REMARK    4  A    between atoms: C_8  and  N_13
REMARK    5  A    between atoms: C_14  and  C_16
REMARK    6  A    between atoms: C_16  and  N_17
REMARK    7  A    between atoms: N_20  and  S_23
REMARK    8  A    between atoms: S_23  and  C_26
REMARK    9  A    between atoms: C_34  and  C_36
REMARK                            x       y       z     vdW  Elec       q    Type
REMARK                         _______ _______ _______ _____ _____    ______ ____
ROOT
ATOM      1  N   UNL     1       1.068  -2.188  -0.020  0.00  0.00    +0.387 N 
ATOM      2  C   UNL     1       0.435  -2.618   1.234  0.00  0.00    -0.061 C 
ATOM      3  C   UNL     1       0.029  -4.090   1.118  0.00  0.00    +0.091 C 
ATOM      4  N   UNL     1       1.210  -4.871   0.718  0.00  0.00    -0.180 NA
ATOM      5  C   UNL     1       1.978  -4.420  -0.452  0.00  0.00    +0.091 C 
ATOM      6  C   UNL     1       2.308  -2.934  -0.274  0.00  0.00    -0.061 C 
ATOM      7  H   UNL     1       0.370  -2.409  -0.841  0.00  0.00    -0.081 HD
ENDROOT
BRANCH   4   8
ATOM      8  S   UNL     1       1.662  -6.221   1.563  0.00  0.00    +0.063 S 
ATOM      9  O   UNL     1       0.495  -6.701   2.217  0.00  0.00    -0.153 OA
ATOM     10  O   UNL     1       2.419  -7.025   0.669  0.00  0.00    -0.153 OA
BRANCH   8  11
ATOM     11  C   UNL     1       2.769  -5.697   2.830  0.00  0.00    +0.131 A 
ATOM     12  C   UNL     1       2.420  -5.825   4.139  0.00  0.00    +0.031 A 
ATOM     13  C   UNL     1       3.280  -5.417   5.156  0.00  0.00    +0.003 A 
ATOM     14  C   UNL     1       4.497  -4.877   4.867  0.00  0.00    +0.010 A 
ATOM     15  C   UNL     1       4.890  -4.730   3.528  0.00  0.00    +0.003 A 
ATOM     16  C   UNL     1       4.019  -5.150   2.492  0.00  0.00    +0.097 A 
ATOM     17  N   UNL     1       4.387  -5.007   1.214  0.00  0.00    -0.253 NA
ATOM     18  C   UNL     1       5.549  -4.493   0.894  0.00  0.00    +0.114 A 
ATOM     19  C   UNL     1       6.455  -4.065   1.863  0.00  0.00    -0.032 A 
ATOM     20  C   UNL     1       6.139  -4.178   3.187  0.00  0.00    +0.015 A 
ATOM     21  C   UNL     1       7.780  -3.479   1.450  0.00  0.00    +0.045 C 
ENDBRANCH   8  11
ENDBRANCH   4   8
BRANCH   1  22
ATOM     22  C   UNL     1       1.317  -0.740  -0.015  0.00  0.00    +0.019 C 
BRANCH  22  24
ATOM     23  N   UNL     1      -0.016   1.344   0.009  0.00  0.00    -0.310 N 
ATOM     24  C   UNL     1       0.002  -0.004   0.002  0.00  0.00    +0.197 C 
ATOM     25  O   UNL     1      -1.040  -0.625   0.009  0.00  0.00    -0.278 OA
ATOM     26  H   UNL     1       0.929   1.907   0.008  0.00  0.00    +0.149 HD
BRANCH  23  27
ATOM     27  C   UNL     1      -1.295   2.059   0.019  0.00  0.00    +0.106 C 
BRANCH  27  32
ATOM     28  C   UNL     1      -0.553   7.295   2.348  0.00  0.00    +0.044 C 
ATOM     29  C   UNL     1      -0.747   5.930   1.741  0.00  0.00    -0.050 A 
ATOM     30  C   UNL     1      -1.882   5.197   2.034  0.00  0.00    +0.004 A 
ATOM     31  C   UNL     1      -2.059   3.944   1.477  0.00  0.00    +0.006 A 
ATOM     32  C   UNL     1      -1.102   3.425   0.626  0.00  0.00    -0.027 A 
ATOM     33  C   UNL     1       0.035   4.155   0.337  0.00  0.00    +0.006 A 
ATOM     34  C   UNL     1       0.210   5.410   0.890  0.00  0.00    +0.004 A 
ENDBRANCH  27  32
BRANCH  27  35
ATOM     35  C   UNL     1      -1.808   2.206  -1.414  0.00  0.00    +0.014 C 
ATOM     36  C   UNL     1      -3.245   1.764  -1.699  0.00  0.00    +0.006 C 
ATOM     37  C   UNL     1      -2.070   0.923  -2.206  0.00  0.00    +0.006 C 
ENDBRANCH  27  35
ENDBRANCH  23  27
ENDBRANCH  22  24
ENDBRANCH   1  22
TORSDOF 7
