REMARK  Name = ZINC20352600
REMARK  10 active torsions:
REMARK  status: ('A' for Active; 'I' for Inactive)
REMARK    1  A    between atoms: C_1  and  C_2
REMARK    2  A    between atoms: C_7  and  N_8
REMARK    3  A    between atoms: N_8  and  C_9
REMARK    4  A    between atoms: C_9  and  C_11
REMARK    5  A    between atoms: C_9  and  C_12
REMARK    6  A    between atoms: N_14  and  N_15
REMARK    7  A    between atoms: C_16  and  C_17
REMARK    8  A    between atoms: C_21  and  C_24
REMARK    9  A    between atoms: C_22  and  O_23
REMARK   10  A    between atoms: C_24  and  C_25
REMARK                            x       y       z     vdW  Elec       q    Type
REMARK                         _______ _______ _______ _____ _____    ______ ____
ROOT
ATOM      1  C   UNL     1       0.646   0.107   4.758  0.00  0.00    +0.252 C 
ATOM      2  O   UNL     1       1.018   1.232   4.498  0.00  0.00    -0.272 OA
ATOM      3  N   UNL     1       0.769  -0.370   6.013  0.00  0.00    -0.205 N 
ATOM      4  H   UNL     1       0.471  -1.269   6.221  0.00  0.00    +0.177 HD
ENDROOT
BRANCH   1   5
ATOM      5  C   UNL     1       0.047  -0.757   3.679  0.00  0.00    +0.155 C 
ATOM      6  C   UNL     1      -1.381  -1.143   4.068  0.00  0.00    +0.038 C 
BRANCH   5   7
ATOM      7  N   UNL     1       0.025  -0.016   2.415  0.00  0.00    -0.333 N 
ATOM      8  H   UNL     1       0.012   0.954   2.422  0.00  0.00    +0.147 HD
BRANCH   7  15
ATOM      9  C   UNL     1      -0.018   1.503   0.010  0.00  0.00    +0.045 C 
ATOM     10  C   UNL     1       0.002  -0.004   0.002  0.00  0.00    -0.029 A 
ATOM     11  C   UNL     1       0.006  -0.689  -1.198  0.00  0.00    +0.019 A 
ATOM     12  C   UNL     1       0.024  -2.072  -1.206  0.00  0.00    +0.014 A 
ATOM     13  C   UNL     1       0.039  -2.774  -0.014  0.00  0.00    +0.016 A 
ATOM     14  C   UNL     1       0.035  -2.095   1.189  0.00  0.00    +0.024 A 
ATOM     15  C   UNL     1       0.023  -0.706   1.200  0.00  0.00    +0.031 A 
ATOM     16  I   UNL     1       0.030  -3.106  -3.028  0.00  0.00    -0.044 I 
ENDBRANCH   7  15
ENDBRANCH   5   7
ENDBRANCH   1   5
BRANCH   3  17
ATOM     17  N   UNL     1       1.325   0.434   7.016  0.00  0.00    -0.188 NA
ATOM     18  C   UNL     1       1.444  -0.025   8.225  0.00  0.00    +0.142 C 
BRANCH  18  19
ATOM     19  C   UNL     1       2.029   0.820   9.280  0.00  0.00    +0.036 A 
ATOM     20  C   UNL     1       2.163   0.328  10.580  0.00  0.00    +0.013 A 
ATOM     21  C   UNL     1       2.713   1.124  11.563  0.00  0.00    +0.001 A 
ATOM     22  C   UNL     1       3.132   2.409  11.267  0.00  0.00    +0.007 A 
ATOM     23  C   UNL     1       3.005   2.908   9.985  0.00  0.00    -0.002 A 
ATOM     24  C   UNL     1       2.460   2.120   8.984  0.00  0.00    +0.129 A 
BRANCH  24  25
ATOM     25  O   UNL     1       2.340   2.607   7.722  0.00  0.00    -0.506 OA
ATOM     26  H   UNL     1       1.502   3.060   7.553  0.00  0.00    +0.292 HD
ENDBRANCH  24  25
BRANCH  23  27
ATOM     27  C   UNL     1       3.464   4.309   9.673  0.00  0.00    +0.065 C 
BRANCH  27  28
ATOM     28  C   UNL     1       2.295   5.255   9.771  0.00  0.00    -0.030 C 
ATOM     29  C   UNL     1       2.363   6.302  10.556  0.00  0.00    +0.004 C 
ENDBRANCH  27  28
ENDBRANCH  23  27
ENDBRANCH  18  19
ENDBRANCH   3  17
TORSDOF 8
