REMARK  Name = ZINC15004487
REMARK  16 active torsions:
REMARK  status: ('A' for Active; 'I' for Inactive)
REMARK    1  A    between atoms: C_1  and  C_2
REMARK    2  A    between atoms: C_2  and  C_3
REMARK    3  A    between atoms: C_2  and  C_4
REMARK    4  A    between atoms: C_4  and  C_5
REMARK    5  A    between atoms: C_5  and  N_6
REMARK    6  A    between atoms: C_7  and  C_9
REMARK    7  A    between atoms: N_11  and  C_26
REMARK    8  A    between atoms: C_13  and  C_16
REMARK    9  A    between atoms: N_18  and  C_19
REMARK   10  A    between atoms: C_19  and  C_20
REMARK   11  A    between atoms: C_20  and  C_21
REMARK   12  A    between atoms: C_20  and  C_22
REMARK   13  A    between atoms: C_20  and  C_23
REMARK   14  A    between atoms: C_23  and  N_71
REMARK   15  A    between atoms: C_24  and  N_71
REMARK   16  A    between atoms: C_25  and  N_71
REMARK                            x       y       z     vdW  Elec       q    Type
REMARK                         _______ _______ _______ _____ _____    ______ ____
ROOT
ATOM      1  C   UNL     1       2.731   1.323   1.816  0.00  0.00    +0.100 A 
ATOM      2  C   UNL     1       2.787  -0.052   1.882  0.00  0.00    +0.102 A 
ATOM      3  N   UNL     1       3.931  -0.718   1.661  0.00  0.00    -0.349 N 
ATOM      4  C   UNL     1       5.092  -0.112   1.362  0.00  0.00    +0.102 A 
ATOM      5  C   UNL     1       5.182   1.259   1.263  0.00  0.00    +0.100 A 
ATOM      6  C   UNL     1       3.965   2.057   1.488  0.00  0.00    +0.206 A 
ATOM      7  O   UNL     1       3.979   3.274   1.410  0.00  0.00    -0.286 OA
ENDROOT
BRANCH   3   8
ATOM      8  C   UNL     1       3.913  -2.180   1.748  0.00  0.00    +0.087 C 
ATOM      9  C   UNL     1       2.884  -2.756   0.753  0.00  0.00    +0.025 C 
ATOM     10  C   UNL     1       2.264  -3.961   1.505  0.00  0.00    +0.002 C 
ATOM     11  C   UNL     1       2.173  -3.445   2.963  0.00  0.00    +0.002 C 
ATOM     12  C   UNL     1       3.461  -2.618   3.152  0.00  0.00    +0.025 C 
ENDBRANCH   3   8
BRANCH   1  14
ATOM     13  N   UNL     1       0.348   1.352   2.355  0.00  0.00    -0.311 N 
ATOM     14  C   UNL     1       1.469   2.041   2.062  0.00  0.00    +0.249 C 
ATOM     15  O   UNL     1       1.437   3.255   1.999  0.00  0.00    -0.270 OA
ATOM     16  H   UNL     1       0.373   0.384   2.405  0.00  0.00    +0.149 HD
BRANCH  13  17
ATOM     17  C   UNL     1      -0.909   2.066   2.593  0.00  0.00    +0.105 C 
BRANCH  17  18
ATOM     18  C   UNL     1      -2.019   1.057   2.897  0.00  0.00    +0.022 C 
BRANCH  18  20
ATOM     19  C   UNL     1      -3.768   2.509   1.861  0.00  0.00    +0.007 C 
ATOM     20  C   UNL     1      -3.332   1.802   3.146  0.00  0.00    -0.016 C 
ATOM     21  C   UNL     1      -4.411   0.805   3.571  0.00  0.00    +0.007 C 
ENDBRANCH  18  20
ENDBRANCH  17  18
ENDBRANCH  13  17
ENDBRANCH   1  14
BRANCH   5  22
ATOM     22  C   UNL     1       6.462   1.911   0.934  0.00  0.00    +0.249 C 
ATOM     23  O   UNL     1       6.524   3.122   0.851  0.00  0.00    -0.270 OA
ATOM     24  N   UNL     1       7.564   1.163   0.727  0.00  0.00    -0.311 N 
ATOM     25  H   UNL     1       7.515   0.197   0.793  0.00  0.00    +0.149 HD
BRANCH  24  26
ATOM     26  C   UNL     1       8.837   1.811   0.400  0.00  0.00    +0.109 C 
BRANCH  26  27
ATOM     27  C   UNL     1       9.919   0.745   0.215  0.00  0.00    -0.034 C 
ATOM     28  C   UNL     1      10.072  -0.056   1.509  0.00  0.00    +0.010 C 
ATOM     29  C   UNL     1       9.519  -0.196  -0.923  0.00  0.00    +0.010 C 
BRANCH  27  30
ATOM     30  C   UNL     1      11.248   1.422  -0.126  0.00  0.00    -0.072 C 
BRANCH  30  33
ATOM     31  C   UNL     1      12.372  -0.216  -1.510  0.00  0.00    -0.097 C 
ATOM     32  C   UNL     1      13.610   0.990   0.185  0.00  0.00    -0.097 C 
ATOM     33  N   UNL     1      12.306   0.390  -0.164  0.00  0.00    +0.376 N 
ATOM     34  H   UNL     1      12.082  -0.342   0.520  0.00  0.00    -0.083 HD
ENDBRANCH  30  33
ENDBRANCH  27  30
ENDBRANCH  26  27
ENDBRANCH  24  26
ENDBRANCH   5  22
TORSDOF 10
