REMARK  Name = ZINC62832833
REMARK  6 active torsions:
REMARK  status: ('A' for Active; 'I' for Inactive)
REMARK    1  A    between atoms: C_1  and  C_2
REMARK    2  A    between atoms: C_2  and  C_3
REMARK    3  A    between atoms: C_3  and  C_5
REMARK    4  A    between atoms: C_3  and  N_10
REMARK    5  A    between atoms: C_11  and  C_13
REMARK    6  A    between atoms: C_20  and  N_23
REMARK                            x       y       z     vdW  Elec       q    Type
REMARK                         _______ _______ _______ _____ _____    ______ ____
ROOT
ATOM      1  C   UNL     1      -3.314   1.420   2.663  0.00  0.00    +0.062 A 
ATOM      2  C   UNL     1      -3.404   0.658   3.791  0.00  0.00    +0.096 A 
ATOM      3  N   UNL     1      -4.075   1.337   4.751  0.00  0.00    -0.360 N 
ATOM      4  H   UNL     1      -4.263   0.998   5.641  0.00  0.00    +0.165 HD
ATOM      5  C   UNL     1      -4.454   2.582   4.286  0.00  0.00    +0.047 A 
ATOM      6  C   UNL     1      -3.992   2.694   2.965  0.00  0.00    +0.014 A 
ATOM      7  C   UNL     1      -4.226   3.859   2.238  0.00  0.00    +0.033 A 
ATOM      8  C   UNL     1      -4.914   4.905   2.828  0.00  0.00    +0.025 A 
ATOM      9  C   UNL     1      -5.369   4.793   4.139  0.00  0.00    +0.025 A 
ATOM     10  C   UNL     1      -5.148   3.641   4.861  0.00  0.00    +0.028 A 
ENDROOT
BRANCH   1  12
ATOM     11  N   UNL     1      -2.082  -0.162   1.273  0.00  0.00    -0.304 N 
ATOM     12  C   UNL     1      -2.664   1.047   1.400  0.00  0.00    +0.247 C 
ATOM     13  O   UNL     1      -2.651   1.829   0.468  0.00  0.00    -0.270 OA
ATOM     14  H   UNL     1      -2.092  -0.785   2.016  0.00  0.00    +0.150 HD
BRANCH  11  15
ATOM     15  C   UNL     1      -1.433  -0.534   0.013  0.00  0.00    +0.110 C 
BRANCH  15  16
ATOM     16  C   UNL     1      -1.416  -2.035  -0.119  0.00  0.00    +0.010 A 
ATOM     17  C   UNL     1      -1.625  -2.797  -1.220  0.00  0.00    +0.013 A 
ATOM     18  C   UNL     1      -1.558  -4.173  -1.105  0.00  0.00    +0.008 A 
ATOM     19  C   UNL     1      -1.286  -4.719   0.105  0.00  0.00    +0.045 A 
ATOM     20  S   UNL     1      -1.108  -3.270   1.132  0.00  0.00    -0.100 S 
ENDBRANCH  15  16
BRANCH  15  22
ATOM     21  C   UNL     1      -0.019   1.526   0.010  0.00  0.00    +0.006 C 
ATOM     22  C   UNL     1       0.002  -0.004   0.002  0.00  0.00    +0.024 C 
ENDBRANCH  15  22
ENDBRANCH  11  15
ENDBRANCH   1  12
BRANCH   8  23
ATOM     23  N   UNL     1      -5.154   6.079   2.104  0.00  0.00    -0.358 N 
ATOM     24  H   UNL     1      -4.837   6.158   1.190  0.00  0.00    +0.142 HD
ATOM     25  H   UNL     1      -5.636   6.813   2.516  0.00  0.00    +0.142 HD
ENDBRANCH   8  23
TORSDOF 5
