REMARK  Name = ZINC03785843
REMARK  9 active torsions:
REMARK  status: ('A' for Active; 'I' for Inactive)
REMARK    1  A    between atoms: C_1  and  C_2
REMARK    2  A    between atoms: C_2  and  C_4
REMARK    3  A    between atoms: C_2  and  N_50
REMARK    4  A    between atoms: C_4  and  C_5
REMARK    5  A    between atoms: C_16  and  C_17
REMARK    6  A    between atoms: C_16  and  N_50
REMARK    7  A    between atoms: C_17  and  C_19
REMARK    8  A    between atoms: C_17  and  O_26
REMARK    9  A    between atoms: C_22  and  O_25
REMARK                            x       y       z     vdW  Elec       q    Type
REMARK                         _______ _______ _______ _____ _____    ______ ____
ROOT
ATOM      1  N   UNL     1       5.633  -0.019  -0.808  0.00  0.00    +0.383 N 
ATOM      2  H   UNL     1       6.636   0.017  -0.592  0.00  0.00    -0.085 HD
ATOM      3  H   UNL     1       5.374   0.799  -1.371  0.00  0.00    -0.085 HD
ENDROOT
BRANCH   1   5
ATOM      4  C   UNL     1       5.630  -0.781   1.525  0.00  0.00    -0.014 C 
ATOM      5  C   UNL     1       4.864  -0.007   0.451  0.00  0.00    -0.074 C 
BRANCH   5   6
ATOM      6  C   UNL     1       4.670   1.441   0.906  0.00  0.00    -0.008 C 
BRANCH   6   7
ATOM      7  C   UNL     1       3.764   2.171  -0.087  0.00  0.00    +0.018 C 
ATOM      8  C   UNL     1       4.470   2.267  -1.437  0.00  0.00    +0.008 C 
ATOM      9  C   UNL     1       3.647   3.183  -2.350  0.00  0.00    +0.005 C 
ATOM     10  C   UNL     1       3.759   4.613  -1.827  0.00  0.00    +0.035 C 
ATOM     11  C   UNL     1       3.439   4.665  -0.356  0.00  0.00    -0.044 A 
ATOM     12  C   UNL     1       3.449   3.545   0.445  0.00  0.00    -0.041 A 
ATOM     13  C   UNL     1       3.157   3.663   1.798  0.00  0.00    +0.004 A 
ATOM     14  C   UNL     1       2.853   4.893   2.344  0.00  0.00    +0.000 A 
ATOM     15  C   UNL     1       2.838   6.017   1.539  0.00  0.00    +0.000 A 
ATOM     16  C   UNL     1       3.129   5.901   0.196  0.00  0.00    +0.004 A 
ENDBRANCH   6   7
ENDBRANCH   5   6
ENDBRANCH   1   5
BRANCH   1  17
ATOM     17  C   UNL     1       5.344  -1.247  -1.572  0.00  0.00    -0.046 C 
BRANCH  17  18
ATOM     18  C   UNL     1       6.154  -1.233  -2.870  0.00  0.00    +0.128 C 
BRANCH  18  19
ATOM     19  C   UNL     1       5.864  -2.485  -3.657  0.00  0.00    -0.021 A 
ATOM     20  C   UNL     1       4.764  -2.535  -4.493  0.00  0.00    +0.009 A 
ATOM     21  C   UNL     1       4.500  -3.679  -5.221  0.00  0.00    +0.046 A 
ATOM     22  C   UNL     1       5.333  -4.783  -5.103  0.00  0.00    +0.117 A 
ATOM     23  C   UNL     1       6.433  -4.731  -4.259  0.00  0.00    +0.046 A 
ATOM     24  C   UNL     1       6.696  -3.583  -3.538  0.00  0.00    +0.009 A 
BRANCH  22  25
ATOM     25  O   UNL     1       5.072  -5.911  -5.813  0.00  0.00    -0.507 OA
ATOM     26  H   UNL     1       4.500  -6.542  -5.354  0.00  0.00    +0.292 HD
ENDBRANCH  22  25
ENDBRANCH  18  19
BRANCH  18  27
ATOM     27  O   UNL     1       5.792  -0.088  -3.645  0.00  0.00    -0.389 OA
ATOM     28  H   UNL     1       4.857  -0.060  -3.892  0.00  0.00    +0.210 HD
ENDBRANCH  18  27
ENDBRANCH  17  18
ENDBRANCH   1  17
TORSDOF 8
