REMARK  Name = ZINC08017404
REMARK  5 active torsions:
REMARK  status: ('A' for Active; 'I' for Inactive)
REMARK    1  A    between atoms: C_1  and  C_2
REMARK    2  A    between atoms: C_2  and  C_4
REMARK    3  A    between atoms: C_2  and  S_13
REMARK    4  A    between atoms: N_6  and  C_7
REMARK    5  A    between atoms: S_13  and  C_14
REMARK                            x       y       z     vdW  Elec       q    Type
REMARK                         _______ _______ _______ _____ _____    ______ ____
ROOT
ATOM      1  S   UNL     1       0.851  -0.589  -1.490  0.00  0.00    -0.075 S 
ENDROOT
BRANCH   1   2
ATOM      2  C   UNL     1      -0.189  -0.057  -2.809  0.00  0.00    +0.170 A 
ATOM      3  N   UNL     1       0.158  -0.342  -4.095  0.00  0.00    -0.302 N 
ATOM      4  H   UNL     1       0.969  -0.840  -4.283  0.00  0.00    +0.171 HD
ATOM      5  C   UNL     1      -0.635   0.072  -5.103  0.00  0.00    +0.255 A 
ATOM      6  O   UNL     1      -0.338  -0.169  -6.262  0.00  0.00    -0.267 OA
ATOM      7  C   UNL     1      -1.813   0.788  -4.801  0.00  0.00    +0.038 A 
ATOM      8  C   UNL     1      -2.115   1.038  -3.501  0.00  0.00    +0.052 A 
ATOM      9  N   UNL     1      -1.293   0.606  -2.537  0.00  0.00    -0.228 NA
ATOM     10  C   UNL     1      -3.359   1.777  -3.083  0.00  0.00    +0.056 C 
ATOM     11  C   UNL     1      -3.944   2.554  -4.261  0.00  0.00    +0.006 C 
ATOM     12  C   UNL     1      -4.079   1.599  -5.452  0.00  0.00    +0.005 C 
ATOM     13  C   UNL     1      -2.677   1.245  -5.946  0.00  0.00    +0.042 C 
ENDBRANCH   1   2
BRANCH   1  15
ATOM     14  C   UNL     1      -0.019   1.526   0.010  0.00  0.00    +0.029 C 
ATOM     15  C   UNL     1       0.002  -0.004   0.002  0.00  0.00    +0.137 C 
BRANCH  15  16
ATOM     16  C   UNL     1       0.731  -0.503   1.223  0.00  0.00    +0.226 C 
ATOM     17  O   UNL     1       1.911  -0.775   1.156  0.00  0.00    -0.275 OA
ATOM     18  N   UNL     1       0.071  -0.647   2.389  0.00  0.00    -0.312 N 
ATOM     19  H   UNL     1      -0.872  -0.430   2.443  0.00  0.00    +0.149 HD
BRANCH  18  20
ATOM     20  C   UNL     1       0.780  -1.133   3.576  0.00  0.00    +0.073 C 
ATOM     21  C   UNL     1       0.801  -2.663   3.568  0.00  0.00    +0.022 C 
ATOM     22  C   UNL     1       1.541  -3.169   4.808  0.00  0.00    +0.002 C 
ATOM     23  C   UNL     1       0.825  -2.676   6.066  0.00  0.00    +0.000 C 
ATOM     24  C   UNL     1       0.804  -1.146   6.075  0.00  0.00    +0.002 C 
ATOM     25  C   UNL     1       0.064  -0.639   4.835  0.00  0.00    +0.022 C 
ENDBRANCH  18  20
ENDBRANCH  15  16
ENDBRANCH   1  15
TORSDOF 4
