REMARK  Name = ZINC14160118
REMARK  6 active torsions:
REMARK  status: ('A' for Active; 'I' for Inactive)
REMARK    1  A    between atoms: C_1  and  C_2
REMARK    2  A    between atoms: C_4  and  C_37
REMARK    3  A    between atoms: N_10  and  C_11
REMARK    4  A    between atoms: N_13  and  C_14
REMARK    5  A    between atoms: C_27  and  C_30
REMARK    6  A    between atoms: C_30  and  C_31
REMARK                            x       y       z     vdW  Elec       q    Type
REMARK                         _______ _______ _______ _____ _____    ______ ____
ROOT
ATOM      1  C   UNL     1       1.942  -1.714   3.112  0.00  0.00    +0.066 C 
ATOM      2  C   UNL     1       1.408  -2.510   1.949  0.00  0.00    +0.044 A 
ATOM      3  C   UNL     1       1.662  -3.869   1.853  0.00  0.00    +0.046 A 
ATOM      4  C   UNL     1       1.151  -4.563   0.767  0.00  0.00    +0.044 A 
ATOM      5  N   UNL     1       0.442  -3.911  -0.140  0.00  0.00    -0.219 NA
ATOM      6  C   UNL     1       0.218  -2.611  -0.018  0.00  0.00    +0.222 A 
ATOM      7  N   UNL     1       0.696  -1.918   1.004  0.00  0.00    -0.219 NA
ATOM      8  N   UNL     1      -0.530  -1.959  -0.989  0.00  0.00    -0.258 N 
ATOM      9  C   UNL     1      -0.683  -0.601  -0.936  0.00  0.00    +0.183 C 
ATOM     10  N   UNL     1      -1.475   0.010  -1.802  0.00  0.00    -0.134 NA
ATOM     11  N   UNL     1      -0.018   0.124   0.008  0.00  0.00    -0.305 N 
ATOM     12  C   UNL     1      -0.662   0.461   1.285  0.00  0.00    +0.108 C 
ATOM     13  C   UNL     1      -0.579   1.976   1.496  0.00  0.00    +0.023 C 
ATOM     14  C   UNL     1       0.882   2.421   1.393  0.00  0.00    -0.004 C 
ATOM     15  C   UNL     1       1.419   2.097  -0.004  0.00  0.00    +0.023 C 
ATOM     16  C   UNL     1       1.357   0.584  -0.231  0.00  0.00    +0.108 C 
ATOM     17  C   UNL     1       1.401  -6.042   0.621  0.00  0.00    +0.066 C 
ATOM     18  H   UNL     1      -0.945  -2.466  -1.704  0.00  0.00    +0.157 HD
ENDROOT
BRANCH  10  19
ATOM     19  C   UNL     1      -1.520   1.349  -1.841  0.00  0.00    +0.326 C 
ATOM     20  O   UNL     1      -0.902   2.003  -1.019  0.00  0.00    -0.251 OA
ATOM     21  N   UNL     1      -2.247   1.972  -2.789  0.00  0.00    -0.292 N 
ATOM     22  H   UNL     1      -2.738   1.451  -3.444  0.00  0.00    +0.151 HD
BRANCH  21  23
ATOM     23  C   UNL     1      -2.296   3.436  -2.832  0.00  0.00    +0.037 C 
ATOM     24  C   UNL     1      -2.872   3.965  -1.517  0.00  0.00    +0.029 C 
ATOM     25  C   UNL     1      -2.923   5.494  -1.562  0.00  0.00    -0.008 C 
ATOM     26  C   UNL     1      -3.811   5.941  -2.724  0.00  0.00    +0.007 C 
ATOM     27  C   UNL     1      -3.235   5.411  -4.039  0.00  0.00    -0.008 C 
ATOM     28  C   UNL     1      -3.184   3.882  -3.994  0.00  0.00    +0.029 C 
ATOM     29  C   UNL     1      -1.822   5.963  -4.236  0.00  0.00    +0.007 C 
ATOM     30  C   UNL     1      -0.933   5.516  -3.073  0.00  0.00    -0.008 C 
ATOM     31  C   UNL     1      -1.510   6.045  -1.758  0.00  0.00    +0.007 C 
ATOM     32  C   UNL     1      -0.882   3.987  -3.029  0.00  0.00    +0.029 C 
ENDBRANCH  21  23
ENDBRANCH  10  19
BRANCH  14  33
ATOM     33  C   UNL     1       0.973   3.929   1.636  0.00  0.00    +0.038 C 
BRANCH  33  34
ATOM     34  C   UNL     1       0.560   4.235   3.053  0.00  0.00    -0.047 A 
ATOM     35  C   UNL     1      -0.763   4.507   3.344  0.00  0.00    +0.003 A 
ATOM     36  C   UNL     1      -1.142   4.783   4.644  0.00  0.00    +0.000 A 
ATOM     37  C   UNL     1      -0.196   4.796   5.652  0.00  0.00    +0.000 A 
ATOM     38  C   UNL     1       1.128   4.528   5.361  0.00  0.00    +0.000 A 
ATOM     39  C   UNL     1       1.506   4.248   4.061  0.00  0.00    +0.003 A 
ENDBRANCH  33  34
ENDBRANCH  14  33
TORSDOF 4
