REMARK  Name = ZINC00405760
REMARK  4 active torsions:
REMARK  status: ('A' for Active; 'I' for Inactive)
REMARK    1  A    between atoms: C_2  and  C_3
REMARK    2  A    between atoms: C_3  and  C_4
REMARK    3  A    between atoms: C_8  and  C_11
REMARK    4  A    between atoms: C_9  and  O_10
REMARK                            x       y       z     vdW  Elec       q    Type
REMARK                         _______ _______ _______ _____ _____    ______ ____
ROOT
ATOM      1  C   UNL     1      -4.586  -1.439  -1.971  0.00  0.00    +0.191 C 
ATOM      2  N   UNL     1      -3.898  -2.437  -1.133  0.00  0.00    -0.322 N 
ATOM      3  C   UNL     1      -2.814  -3.122  -1.687  0.00  0.00    +0.038 A 
ATOM      4  C   UNL     1      -1.823  -3.667  -0.904  0.00  0.00    +0.023 A 
ATOM      5  C   UNL     1      -0.758  -4.349  -1.489  0.00  0.00    +0.002 A 
ATOM      6  C   UNL     1      -0.666  -4.494  -2.841  0.00  0.00    +0.009 A 
ATOM      7  C   UNL     1      -1.657  -3.947  -3.675  0.00  0.00    -0.014 A 
ATOM      8  C   UNL     1      -2.741  -3.256  -3.089  0.00  0.00    +0.024 A 
ATOM      9  C   UNL     1      -3.746  -2.701  -3.909  0.00  0.00    +0.038 A 
ATOM     10  C   UNL     1      -3.655  -2.837  -5.274  0.00  0.00    +0.023 A 
ATOM     11  C   UNL     1      -2.582  -3.518  -5.844  0.00  0.00    +0.002 A 
ATOM     12  C   UNL     1      -1.600  -4.066  -5.074  0.00  0.00    +0.009 A 
ATOM     13  N   UNL     1      -4.808  -2.027  -3.304  0.00  0.00    -0.322 N 
ATOM     14  H   UNL     1      -4.189  -2.613  -0.225  0.00  0.00    +0.148 HD
ATOM     15  H   UNL     1      -5.667  -1.948  -3.748  0.00  0.00    +0.148 HD
ENDROOT
BRANCH   1  20
ATOM     16  C   UNL     1      -2.170   1.352  -1.144  0.00  0.00    -0.002 A 
ATOM     17  C   UNL     1      -2.158   2.062  -2.329  0.00  0.00    +0.007 A 
ATOM     18  C   UNL     1      -2.930   1.641  -3.396  0.00  0.00    +0.001 A 
ATOM     19  C   UNL     1      -3.715   0.508  -3.280  0.00  0.00    +0.011 A 
ATOM     20  C   UNL     1      -3.730  -0.205  -2.097  0.00  0.00    +0.032 A 
ATOM     21  C   UNL     1      -2.952   0.212  -1.027  0.00  0.00    +0.127 A 
BRANCH  21  22
ATOM     22  O   UNL     1      -2.960  -0.491   0.136  0.00  0.00    -0.506 OA
ATOM     23  H   UNL     1      -3.635  -0.202   0.765  0.00  0.00    +0.292 HD
ENDBRANCH  21  22
BRANCH  16  24
ATOM     24  C   UNL     1      -1.328   1.812   0.018  0.00  0.00    +0.065 C 
BRANCH  24  26
ATOM     25  C   UNL     1       1.113   1.746   0.001  0.00  0.00    +0.004 C 
ATOM     26  C   UNL     1      -0.013   1.076   0.008  0.00  0.00    -0.030 C 
ENDBRANCH  24  26
ENDBRANCH  16  24
ENDBRANCH   1  20
TORSDOF 4
