REMARK  Name = ZINC67225278
REMARK  6 active torsions:
REMARK  status: ('A' for Active; 'I' for Inactive)
REMARK    1  A    between atoms: C_1  and  C_2
REMARK    2  A    between atoms: C_3  and  C_30
REMARK    3  A    between atoms: N_19  and  C_20
REMARK    4  A    between atoms: C_20  and  C_21
REMARK    5  A    between atoms: N_32  and  C_33
REMARK    6  A    between atoms: N_32  and  C_34
REMARK                            x       y       z     vdW  Elec       q    Type
REMARK                         _______ _______ _______ _____ _____    ______ ____
ROOT
ATOM      1  C   UNL     1       0.986   1.721  -0.689  0.00  0.00    +0.079 C 
ATOM      2  C   UNL     1       0.778   0.205  -0.702  0.00  0.00    +0.190 C 
ATOM      3  C   UNL     1       1.044  -0.333  -2.115  0.00  0.00    +0.162 C 
ATOM      4  C   UNL     1       0.691  -1.829  -2.095  0.00  0.00    +0.123 C 
ATOM      5  C   UNL     1       1.479  -2.488  -0.985  0.00  0.00    +0.018 A 
ATOM      6  C   UNL     1       1.733  -3.846  -1.058  0.00  0.00    +0.029 A 
ATOM      7  C   UNL     1       2.444  -4.475  -0.053  0.00  0.00    +0.043 A 
ATOM      8  C   UNL     1       2.904  -3.744   1.028  0.00  0.00    +0.043 A 
ATOM      9  C   UNL     1       2.654  -2.389   1.103  0.00  0.00    +0.084 A 
ATOM     10  C   UNL     1       1.940  -1.752   0.091  0.00  0.00    +0.147 A 
ATOM     11  O   UNL     1       1.696  -0.406   0.200  0.00  0.00    -0.466 OA
ATOM     12 CL   UNL     1       3.231  -1.476   2.462  0.00  0.00    -0.080 Cl
ATOM     13 CL   UNL     1       2.761  -6.179  -0.149  0.00  0.00    -0.083 Cl
ATOM     14  N   UNL     1      -0.740  -1.944  -1.769  0.00  0.00    -0.318 N 
ATOM     15  C   UNL     1      -1.292  -1.097  -0.883  0.00  0.00    +0.137 C 
ATOM     16  S   UNL     1      -2.935  -1.307  -0.454  0.00  0.00    -0.019 S 
ATOM     17  N   UNL     1      -0.601  -0.098  -0.327  0.00  0.00    -0.270 N 
ATOM     18  H   UNL     1      -1.283  -2.628  -2.191  0.00  0.00    +0.148 HD
ENDROOT
BRANCH   3  19
ATOM     19  C   UNL     1       2.497  -0.150  -2.471  0.00  0.00    +0.226 C 
ATOM     20  O   UNL     1       3.326  -0.034  -1.593  0.00  0.00    -0.275 OA
ATOM     21  N   UNL     1       2.875  -0.115  -3.764  0.00  0.00    -0.307 N 
ATOM     22  C   UNL     1       4.298  -0.061  -4.110  0.00  0.00    +0.131 C 
ATOM     23  C   UNL     1       1.863  -0.131  -4.823  0.00  0.00    +0.131 C 
ENDBRANCH   3  19
BRANCH  17  24
ATOM     24  C   UNL     1      -1.256   0.725   0.692  0.00  0.00    +0.145 C 
BRANCH  24  25
ATOM     25  C   UNL     1      -0.912   0.196   2.061  0.00  0.00    -0.026 A 
ATOM     26  C   UNL     1      -1.692  -0.789   2.636  0.00  0.00    +0.009 A 
ATOM     27  C   UNL     1      -1.380  -1.277   3.892  0.00  0.00    +0.050 A 
ATOM     28  C   UNL     1      -0.284  -0.779   4.577  0.00  0.00    +0.166 A 
ATOM     29  C   UNL     1       0.502   0.214   3.997  0.00  0.00    +0.167 A 
ATOM     30  C   UNL     1       0.186   0.695   2.736  0.00  0.00    +0.054 A 
ATOM     31  O   UNL     1       1.509   0.534   4.862  0.00  0.00    -0.453 OA
ATOM     32  C   UNL     1       1.095   0.020   6.141  0.00  0.00    +0.466 C 
ATOM     33  O   UNL     1       0.231  -1.082   5.804  0.00  0.00    -0.453 OA
ENDBRANCH  24  25
ENDBRANCH  17  24
TORSDOF 3
