REMARK  Name = ZINC39465590
REMARK  5 active torsions:
REMARK  status: ('A' for Active; 'I' for Inactive)
REMARK    1  A    between atoms: C_1  and  C_2
REMARK    2  A    between atoms: C_2  and  O_3
REMARK    3  A    between atoms: O_3  and  P_4
REMARK    4  A    between atoms: C_12  and  C_21
REMARK    5  A    between atoms: C_26  and  O_27
REMARK                            x       y       z     vdW  Elec       q    Type
REMARK                         _______ _______ _______ _____ _____    ______ ____
ROOT
ATOM      1  P   UNL     1       0.877  -2.026  -1.510  0.00  0.00    +0.421 P 
ATOM      2  O   UNL     1      -0.398  -2.757  -1.343  0.00  0.00    -0.239 OA
ATOM      3  N   UNL     1       2.043  -2.672  -0.531  0.00  0.00    -0.156 NA
ATOM      4  N   UNL     1       3.351  -2.423  -0.884  0.00  0.00    -0.224 NA
ATOM      5  C   UNL     1       4.257  -3.079   0.071  0.00  0.00    +0.108 C 
ATOM      6  C   UNL     1       5.668  -2.526  -0.131  0.00  0.00    +0.052 C 
ATOM      7  C   UNL     1       6.047  -2.623  -1.587  0.00  0.00    -0.041 A 
ATOM      8  C   UNL     1       7.387  -2.550  -1.925  0.00  0.00    +0.013 A 
ATOM      9  C   UNL     1       7.779  -2.635  -3.258  0.00  0.00    -0.001 A 
ATOM     10  C   UNL     1       6.812  -2.793  -4.249  0.00  0.00    +0.022 A 
ATOM     11  C   UNL     1       5.480  -2.864  -3.901  0.00  0.00    +0.020 A 
ATOM     12  C   UNL     1       5.093  -2.779  -2.570  0.00  0.00    -0.023 A 
ATOM     13  C   UNL     1       3.623  -2.865  -2.251  0.00  0.00    +0.130 C 
ATOM     14  C   UNL     1       2.842  -2.023  -3.266  0.00  0.00    +0.196 C 
ATOM     15  O   UNL     1       1.432  -2.205  -3.029  0.00  0.00    -0.294 OA
ATOM     16  I   UNL     1       7.381  -2.924  -6.261  0.00  0.00    -0.043 I 
ATOM     17  H   UNL     1       1.817  -3.199   0.251  0.00  0.00    +0.153 HD
ENDROOT
BRANCH   9  18
ATOM     18  C   UNL     1       9.215  -2.557  -3.620  0.00  0.00    +0.025 A 
ATOM     19  C   UNL     1      10.095  -3.557  -3.212  0.00  0.00    +0.012 A 
ATOM     20  C   UNL     1      11.430  -3.481  -3.552  0.00  0.00    +0.001 A 
ATOM     21  C   UNL     1      11.900  -2.414  -4.298  0.00  0.00    +0.004 A 
ATOM     22  C   UNL     1      11.036  -1.416  -4.708  0.00  0.00    +0.046 A 
ATOM     23  C   UNL     1       9.691  -1.484  -4.379  0.00  0.00    +0.125 A 
BRANCH  23  24
ATOM     24  O   UNL     1       8.840  -0.507  -4.787  0.00  0.00    -0.506 OA
ATOM     25  H   UNL     1       8.756   0.228  -4.163  0.00  0.00    +0.292 HD
ENDBRANCH  23  24
ENDBRANCH   9  18
BRANCH   1  26
ATOM     26  O   UNL     1       0.671  -0.465  -1.174  0.00  0.00    -0.296 OA
BRANCH  26  28
ATOM     27  C   UNL     1      -0.019   1.526   0.010  0.00  0.00    +0.035 C 
ATOM     28  C   UNL     1       0.002  -0.004   0.002  0.00  0.00    +0.168 C 
ENDBRANCH  26  28
ENDBRANCH   1  26
TORSDOF 4
