REMARK  Name = ZINC16070634
REMARK  9 active torsions:
REMARK  status: ('A' for Active; 'I' for Inactive)
REMARK    1  A    between atoms: C_1  and  C_2
REMARK    2  A    between atoms: C_2  and  C_3
REMARK    3  A    between atoms: C_3  and  N_4
REMARK    4  A    between atoms: C_13  and  S_14
REMARK    5  A    between atoms: S_14  and  C_15
REMARK    6  A    between atoms: C_15  and  C_17
REMARK    7  A    between atoms: C_15  and  C_18
REMARK    8  A    between atoms: C_30  and  C_31
REMARK    9  A    between atoms: C_30  and  C_32
REMARK                            x       y       z     vdW  Elec       q    Type
REMARK                         _______ _______ _______ _____ _____    ______ ____
ROOT
ATOM      1  C   UNL     1       2.437   3.545   3.911  0.00  0.00    +0.137 C 
ATOM      2  C   UNL     1       3.694   2.827   3.415  0.00  0.00    +0.029 C 
ENDROOT
BRANCH   1   3
ATOM      3  C   UNL     1       2.439   4.966   3.407  0.00  0.00    +0.234 C 
ATOM      4  O   UNL     1       1.570   5.342   2.650  0.00  0.00    -0.274 OA
ATOM      5  N   UNL     1       3.407   5.818   3.798  0.00  0.00    -0.255 N 
ATOM      6  C   UNL     1       3.554   7.075   3.191  0.00  0.00    +0.059 A 
ATOM      7  C   UNL     1       3.183   7.284   1.877  0.00  0.00    +0.025 A 
ATOM      8  C   UNL     1       3.340   8.536   1.310  0.00  0.00    +0.002 A 
ATOM      9  C   UNL     1       3.863   9.577   2.055  0.00  0.00    +0.002 A 
ATOM     10  C   UNL     1       4.230   9.377   3.373  0.00  0.00    +0.025 A 
ATOM     11  C   UNL     1       4.075   8.127   3.950  0.00  0.00    +0.055 A 
ATOM     12  N   UNL     1       4.436   7.904   5.284  0.00  0.00    -0.282 N 
ATOM     13  C   UNL     1       4.551   6.653   5.766  0.00  0.00    +0.241 C 
ATOM     14  O   UNL     1       4.822   6.484   6.936  0.00  0.00    -0.273 OA
ATOM     15  C   UNL     1       4.348   5.458   4.870  0.00  0.00    +0.113 C 
ATOM     16  C   UNL     1       3.774   4.298   5.686  0.00  0.00    +0.042 C 
ATOM     17  C   UNL     1       5.687   5.043   4.258  0.00  0.00    +0.042 C 
ATOM     18  H   UNL     1       4.605   8.661   5.867  0.00  0.00    +0.155 HD
ENDBRANCH   1   3
BRANCH   1  19
ATOM     19  S   UNL     1       0.968   2.688   3.292  0.00  0.00    -0.075 S 
BRANCH  19  29
ATOM     20  N   UNL     1       0.202   0.172   3.941  0.00  0.00    -0.287 N 
ATOM     21  C   UNL     1       0.293  -1.015   4.569  0.00  0.00    +0.263 A 
ATOM     22  O   UNL     1      -0.552  -1.876   4.393  0.00  0.00    -0.267 OA
ATOM     23  C   UNL     1       1.400  -1.252   5.443  0.00  0.00    +0.076 A 
ATOM     24  C   UNL     1       1.697  -2.467   6.220  0.00  0.00    -0.023 A 
ATOM     25  C   UNL     1       2.805  -2.448   6.977  0.00  0.00    -0.004 A 
ATOM     26  S   UNL     1       3.515  -0.839   6.715  0.00  0.00    -0.073 S 
ATOM     27  C   UNL     1       2.313  -0.196   5.580  0.00  0.00    +0.117 A 
ATOM     28  N   UNL     1       2.163   0.955   4.936  0.00  0.00    -0.216 NA
ATOM     29  C   UNL     1       1.136   1.148   4.132  0.00  0.00    +0.173 A 
ATOM     30  C   UNL     1       3.008  -3.741   7.721  0.00  0.00    +0.043 C 
ATOM     31  C   UNL     1       2.094  -4.753   6.995  0.00  0.00    +0.010 C 
ATOM     32  C   UNL     1       1.016  -3.828   6.396  0.00  0.00    +0.037 C 
BRANCH  20  33
ATOM     33  C   UNL     1      -0.925   0.423   3.039  0.00  0.00    +0.127 C 
BRANCH  33  35
ATOM     34  C   UNL     1      -1.726   0.253   0.678  0.00  0.00    +0.005 C 
ATOM     35  C   UNL     1      -0.549  -0.009   1.620  0.00  0.00    +0.018 C 
ENDBRANCH  33  35
ENDBRANCH  20  33
ENDBRANCH  19  29
ENDBRANCH   1  19
TORSDOF 5
