REMARK  Name = ZINC33297921
REMARK  12 active torsions:
REMARK  status: ('A' for Active; 'I' for Inactive)
REMARK    1  A    between atoms: C_1  and  C_2
REMARK    2  A    between atoms: C_2  and  C_3
REMARK    3  A    between atoms: N_5  and  C_6
REMARK    4  A    between atoms: C_7  and  C_32
REMARK    5  A    between atoms: C_10  and  C_11
REMARK    6  A    between atoms: C_12  and  C_13
REMARK    7  A    between atoms: C_16  and  S_19
REMARK    8  A    between atoms: S_19  and  N_22
REMARK    9  A    between atoms: N_22  and  C_23
REMARK   10  A    between atoms: C_24  and  C_31
REMARK   11  A    between atoms: C_26  and  C_30
REMARK   12  A    between atoms: C_28  and  C_29
REMARK                            x       y       z     vdW  Elec       q    Type
REMARK                         _______ _______ _______ _____ _____    ______ ____
ROOT
ATOM      1  C   UNL     1       1.243   5.572  -2.862  0.00  0.00    -0.025 A 
ATOM      2  C   UNL     1      -0.148   5.628  -2.986  0.00  0.00    +0.010 A 
ATOM      3  C   UNL     1      -0.947   5.088  -2.001  0.00  0.00    +0.029 A 
ATOM      4  C   UNL     1      -0.375   4.492  -0.890  0.00  0.00    +0.109 A 
ATOM      5  C   UNL     1       1.002   4.438  -0.758  0.00  0.00    +0.029 A 
ATOM      6  C   UNL     1       1.814   4.968  -1.738  0.00  0.00    +0.010 A 
ENDROOT
BRANCH   4   7
ATOM      7  S   UNL     1      -1.404   3.805   0.364  0.00  0.00    +0.072 S 
ATOM      8  O   UNL     1      -2.590   4.587   0.389  0.00  0.00    -0.150 OA
ATOM      9  O   UNL     1      -0.584   3.628   1.511  0.00  0.00    -0.150 OA
BRANCH   7  10
ATOM     10  N   UNL     1      -1.846   2.291  -0.140  0.00  0.00    -0.216 N 
ATOM     11  H   UNL     1      -2.909   2.047  -0.282  0.00  0.00    +0.174 HD
BRANCH  10  12
ATOM     12  C   UNL     1      -0.869   1.323  -0.384  0.00  0.00    +0.054 A 
ATOM     13  C   UNL     1      -0.107   1.380  -1.545  0.00  0.00    -0.028 A 
ATOM     14  C   UNL     1       0.854   0.418  -1.786  0.00  0.00    +0.008 A 
ATOM     15  C   UNL     1       1.059  -0.600  -0.873  0.00  0.00    -0.050 A 
ATOM     16  C   UNL     1       0.303  -0.660   0.283  0.00  0.00    +0.008 A 
ATOM     17  C   UNL     1      -0.660   0.299   0.530  0.00  0.00    -0.028 A 
ATOM     18  C   UNL     1      -1.483   0.233   1.791  0.00  0.00    +0.046 C 
ATOM     19  C   UNL     1       2.110  -1.648  -1.139  0.00  0.00    +0.044 C 
ATOM     20  C   UNL     1      -0.331   2.490  -2.540  0.00  0.00    +0.046 C 
ENDBRANCH  10  12
ENDBRANCH   7  10
ENDBRANCH   4   7
BRANCH   1  22
ATOM     21  C   UNL     1       3.205   5.486  -4.316  0.00  0.00    +0.051 C 
ATOM     22  C   UNL     1       2.103   6.147  -3.910  0.00  0.00    +0.011 C 
BRANCH  21  27
ATOM     23  C   UNL     1       4.513   3.295  -4.188  0.00  0.00    +0.103 A 
ATOM     24  C   UNL     1       4.168   2.046  -3.621  0.00  0.00    +0.102 A 
ATOM     25  N   UNL     1       2.971   2.180  -3.123  0.00  0.00    -0.081 NA
ATOM     26  O   UNL     1       2.527   3.292  -3.281  0.00  0.00    -0.353 OA
ATOM     27  C   UNL     1       3.396   4.084  -3.942  0.00  0.00    +0.182 A 
ATOM     28  C   UNL     1       5.019   0.803  -3.596  0.00  0.00    +0.071 C 
BRANCH  23  31
ATOM     29  C   UNL     1       6.880   3.166  -4.410  0.00  0.00    +0.217 C 
ATOM     30  O   UNL     1       6.906   2.332  -3.530  0.00  0.00    -0.275 OA
ATOM     31  N   UNL     1       5.699   3.652  -4.842  0.00  0.00    -0.281 N 
ATOM     32  H   UNL     1       5.667   4.328  -5.709  0.00  0.00    +0.155 HD
BRANCH  29  34
ATOM     33  C   UNL     1       9.350   2.952  -4.356  0.00  0.00    +0.013 C 
ATOM     34  C   UNL     1       8.166   3.658  -5.021  0.00  0.00    +0.093 C 
ENDBRANCH  29  34
ENDBRANCH  23  31
ENDBRANCH  21  27
ENDBRANCH   1  22
TORSDOF 7
