REMARK  Name = ZINC36491252
REMARK  17 active torsions:
REMARK  status: ('A' for Active; 'I' for Inactive)
REMARK    1  A    between atoms: C_1  and  C_2
REMARK    2  A    between atoms: C_2  and  C_4
REMARK    3  A    between atoms: N_6  and  C_7
REMARK    4  A    between atoms: N_6  and  C_13
REMARK    5  A    between atoms: C_13  and  C_15
REMARK    6  A    between atoms: C_13  and  C_24
REMARK    7  A    between atoms: C_16  and  O_23
REMARK    8  A    between atoms: C_18  and  O_22
REMARK    9  A    between atoms: C_20  and  O_21
REMARK   10  A    between atoms: N_26  and  C_27
REMARK   11  A    between atoms: C_27  and  C_28
REMARK   12  A    between atoms: C_27  and  C_29
REMARK   13  A    between atoms: C_27  and  C_30
REMARK   14  A    between atoms: C_30  and  C_31
REMARK   15  A    between atoms: C_31  and  C_32
REMARK   16  A    between atoms: C_31  and  C_33
REMARK   17  A    between atoms: C_31  and  C_34
REMARK                            x       y       z     vdW  Elec       q    Type
REMARK                         _______ _______ _______ _____ _____    ______ ____
ROOT
ATOM      1  C   UNL     1      -0.160   2.228  -2.141  0.00  0.00    +0.200 C 
ENDROOT
BRANCH   1   2
ATOM      2  C   UNL     1      -0.750   3.068  -1.038  0.00  0.00    +0.065 A 
ATOM      3  C   UNL     1      -0.660   2.644   0.280  0.00  0.00    +0.129 A 
ATOM      4  C   UNL     1      -1.203   3.417   1.295  0.00  0.00    +0.091 A 
ATOM      5  C   UNL     1      -1.836   4.614   0.993  0.00  0.00    +0.124 A 
ATOM      6  C   UNL     1      -1.925   5.037  -0.324  0.00  0.00    +0.091 A 
ATOM      7  C   UNL     1      -1.378   4.267  -1.339  0.00  0.00    +0.129 A 
BRANCH   7   8
ATOM      8  O   UNL     1      -1.462   4.684  -2.630  0.00  0.00    -0.506 OA
ATOM      9  H   UNL     1      -2.288   4.440  -3.070  0.00  0.00    +0.292 HD
ENDBRANCH   7   8
BRANCH   5  10
ATOM     10  O   UNL     1      -2.369   5.370   1.988  0.00  0.00    -0.507 OA
ATOM     11  H   UNL     1      -1.756   6.017   2.362  0.00  0.00    +0.292 HD
ENDBRANCH   5  10
BRANCH   3  12
ATOM     12  O   UNL     1      -0.040   1.472   0.576  0.00  0.00    -0.506 OA
ATOM     13  H   UNL     1       0.890   1.570   0.822  0.00  0.00    +0.292 HD
ENDBRANCH   3  12
ENDBRANCH   1   2
BRANCH   1  14
ATOM     14  C   UNL     1       1.337   2.402  -2.159  0.00  0.00    +0.239 C 
ATOM     15  O   UNL     1       2.061   1.429  -2.155  0.00  0.00    -0.273 OA
ATOM     16  N   UNL     1       1.871   3.640  -2.179  0.00  0.00    -0.308 N 
ATOM     17  H   UNL     1       1.292   4.418  -2.182  0.00  0.00    +0.149 HD
BRANCH  16  18
ATOM     18  C   UNL     1       3.326   3.809  -2.196  0.00  0.00    +0.030 C 
ATOM     19  C   UNL     1       3.926   3.200  -0.928  0.00  0.00    +0.031 C 
ATOM     20  C   UNL     1       3.907   3.105  -3.424  0.00  0.00    +0.031 C 
BRANCH  18  21
ATOM     21  C   UNL     1       3.665   5.300  -2.256  0.00  0.00    +0.031 C 
BRANCH  21  22
ATOM     22  C   UNL     1       3.202   5.876  -3.595  0.00  0.00    -0.036 C 
ATOM     23  C   UNL     1       1.855   5.259  -3.977  0.00  0.00    +0.010 C 
ATOM     24  C   UNL     1       3.052   7.394  -3.474  0.00  0.00    +0.010 C 
ATOM     25  C   UNL     1       4.237   5.551  -4.675  0.00  0.00    +0.010 C 
ENDBRANCH  21  22
ENDBRANCH  18  21
ENDBRANCH  16  18
ENDBRANCH   1  14
BRANCH   1  28
ATOM     26  C   UNL     1      -1.708   0.349  -2.221  0.00  0.00    +0.243 C 
ATOM     27  O   UNL     1      -1.889  -0.849  -2.336  0.00  0.00    -0.270 OA
ATOM     28  N   UNL     1      -0.484   0.819  -1.909  0.00  0.00    -0.279 N 
BRANCH  28  29
ATOM     29  C   UNL     1       0.522  -0.080  -1.337  0.00  0.00    +0.077 C 
ATOM     30  C   UNL     1       1.121  -0.947  -2.447  0.00  0.00    +0.022 C 
ATOM     31  C   UNL     1       2.171  -1.885  -1.851  0.00  0.00    +0.002 C 
ATOM     32  C   UNL     1       1.515  -2.784  -0.800  0.00  0.00    +0.000 C 
ATOM     33  C   UNL     1       0.916  -1.918   0.309  0.00  0.00    +0.002 C 
ATOM     34  C   UNL     1      -0.135  -0.979  -0.287  0.00  0.00    +0.022 C 
ENDBRANCH  28  29
BRANCH  26  36
ATOM     35  C   UNL     1      -2.611   2.764  -2.242  0.00  0.00    +0.048 C 
ATOM     36  C   UNL     1      -2.826   1.284  -2.421  0.00  0.00    +0.004 C 
ATOM     37  C   UNL     1      -4.026   0.822  -2.760  0.00  0.00    +0.017 C 
ENDBRANCH  26  36
ENDBRANCH   1  28
TORSDOF 11
