REMARK  Name = ZINC25329366
REMARK  13 active torsions:
REMARK  status: ('A' for Active; 'I' for Inactive)
REMARK    1  A    between atoms: C_1  and  C_2
REMARK    2  A    between atoms: C_2  and  C_30
REMARK    3  A    between atoms: C_4  and  N_10
REMARK    4  A    between atoms: C_6  and  C_8
REMARK    5  A    between atoms: C_6  and  C_9
REMARK    6  A    between atoms: N_10  and  C_11
REMARK    7  A    between atoms: C_11  and  C_12
REMARK    8  A    between atoms: C_12  and  C_14
REMARK    9  A    between atoms: C_12  and  O_29
REMARK   10  A    between atoms: C_14  and  O_15
REMARK   11  A    between atoms: O_15  and  C_16
REMARK   12  A    between atoms: C_16  and  C_17
REMARK   13  A    between atoms: C_16  and  C_23
REMARK                            x       y       z     vdW  Elec       q    Type
REMARK                         _______ _______ _______ _____ _____    ______ ____
ROOT
ATOM      1  C   UNL     1       0.029   7.083  -2.543  0.00  0.00    +0.154 C 
ENDROOT
BRANCH   1   2
ATOM      2  O   UNL     1       1.356   7.555  -2.298  0.00  0.00    -0.388 OA
ATOM      3  H   UNL     1       1.556   8.636  -2.255  0.00  0.00    +0.210 HD
ENDBRANCH   1   2
BRANCH   1   4
ATOM      4  C   UNL     1       0.026   5.553  -2.553  0.00  0.00    +0.114 C 
BRANCH   4   5
ATOM      5  N   UNL     1       0.376   5.054  -1.216  0.00  0.00    -0.311 NA
ATOM      6  H   UNL     1      -0.363   5.431  -0.494  0.00  0.00    +0.122 HD
BRANCH   5  10
ATOM      7  C   UNL     1      -0.958   0.983  -2.263  0.00  0.00    -0.010 C 
ATOM      8  C   UNL     1      -1.049   1.551  -0.842  0.00  0.00    -0.072 C 
ATOM      9  C   UNL     1      -1.030   3.077  -0.900  0.00  0.00    +0.006 C 
ATOM     10  C   UNL     1       0.383   3.582  -1.188  0.00  0.00    +0.051 C 
ATOM     11  C   UNL     1       1.307   3.104  -0.068  0.00  0.00    +0.006 C 
ATOM     12  C   UNL     1       1.318   1.579  -0.002  0.00  0.00    -0.072 C 
ATOM     13  N   UNL     1      -0.012   1.005   0.008  0.00  0.00    +0.386 N 
ATOM     14  C   UNL     1       2.027   1.175   1.309  0.00  0.00    -0.010 C 
ATOM     15  C   UNL     1       2.153   1.022  -1.161  0.00  0.00    -0.010 C 
ATOM     16  C   UNL     1      -2.418   1.125  -0.266  0.00  0.00    -0.010 C 
ATOM     17  H   UNL     1      -0.322   1.079   1.060  0.00  0.00    -0.084 HD
ATOM     18  H   UNL     1       0.156  -0.051  -0.252  0.00  0.00    -0.084 HD
ENDBRANCH   5  10
ENDBRANCH   4   5
ENDBRANCH   1   4
BRANCH   1  19
ATOM     19  C   UNL     1      -0.455   7.603  -3.898  0.00  0.00    +0.193 C 
BRANCH  19  20
ATOM     20  O   UNL     1      -0.564   9.027  -3.851  0.00  0.00    -0.365 OA
BRANCH  20  21
ATOM     21  C   UNL     1      -1.011   9.616  -5.073  0.00  0.00    +0.178 C 
BRANCH  21  22
ATOM     22  C   UNL     1      -2.515   9.707  -5.066  0.00  0.00    -0.015 A 
ATOM     23  C   UNL     1      -3.181  10.059  -3.906  0.00  0.00    +0.006 A 
ATOM     24  C   UNL     1      -4.561  10.147  -3.901  0.00  0.00    +0.000 A 
ATOM     25  C   UNL     1      -5.275   9.872  -5.052  0.00  0.00    +0.000 A 
ATOM     26  C   UNL     1      -4.610   9.514  -6.210  0.00  0.00    +0.000 A 
ATOM     27  C   UNL     1      -3.230   9.432  -6.217  0.00  0.00    +0.006 A 
ENDBRANCH  21  22
BRANCH  21  28
ATOM     28  C   UNL     1      -0.425  10.998  -5.208  0.00  0.00    -0.015 A 
ATOM     29  C   UNL     1      -0.246  11.786  -4.086  0.00  0.00    +0.006 A 
ATOM     30  C   UNL     1       0.296  13.051  -4.209  0.00  0.00    +0.000 A 
ATOM     31  C   UNL     1       0.648  13.534  -5.455  0.00  0.00    +0.000 A 
ATOM     32  C   UNL     1       0.464  12.749  -6.578  0.00  0.00    +0.000 A 
ATOM     33  C   UNL     1      -0.073  11.481  -6.454  0.00  0.00    +0.006 A 
ENDBRANCH  21  28
ENDBRANCH  20  21
ENDBRANCH  19  20
ENDBRANCH   1  19
TORSDOF 9
