REMARK  Name = ZINC39685913
REMARK  14 active torsions:
REMARK  status: ('A' for Active; 'I' for Inactive)
REMARK    1  A    between atoms: C_1  and  C_2
REMARK    2  A    between atoms: C_2  and  C_3
REMARK    3  A    between atoms: C_2  and  C_4
REMARK    4  A    between atoms: C_4  and  C_6
REMARK    5  A    between atoms: C_4  and  N_13
REMARK    6  A    between atoms: N_8  and  C_9
REMARK    7  A    between atoms: C_9  and  C_10
REMARK    8  A    between atoms: C_9  and  C_11
REMARK    9  A    between atoms: C_9  and  C_12
REMARK   10  A    between atoms: C_14  and  C_16
REMARK   11  A    between atoms: C_27  and  C_29
REMARK   12  A    between atoms: C_29  and  C_30
REMARK   13  A    between atoms: C_30  and  O_31
REMARK   14  A    between atoms: O_31  and  C_32
REMARK                            x       y       z     vdW  Elec       q    Type
REMARK                         _______ _______ _______ _____ _____    ______ ____
ROOT
ATOM      1  C   UNL     1      -0.364  -3.815   1.827  0.00  0.00    +0.100 C 
ATOM      2  C   UNL     1       1.013  -4.083   1.180  0.00  0.00    +0.121 C 
ATOM      3  N   UNL     1       1.994  -3.785   2.250  0.00  0.00    -0.300 N 
ATOM      4  C   UNL     1       1.368  -4.319   3.483  0.00  0.00    +0.115 C 
ATOM      5  C   UNL     1      -0.128  -3.974   3.338  0.00  0.00    -0.004 C 
ATOM      6  C   UNL     1      -0.987  -5.108   3.891  0.00  0.00    -0.010 C 
ATOM      7  C   UNL     1      -0.778  -5.209   5.404  0.00  0.00    -0.082 C 
ATOM      8  N   UNL     1      -1.146  -3.936   6.037  0.00  0.00    +0.379 N 
ATOM      9  C   UNL     1      -0.254  -2.869   5.569  0.00  0.00    -0.082 C 
ATOM     10  C   UNL     1      -0.440  -2.668   4.063  0.00  0.00    -0.010 C 
ATOM     11  C   UNL     1       3.187  -3.168   2.129  0.00  0.00    +0.218 C 
ATOM     12  O   UNL     1       3.883  -2.997   3.107  0.00  0.00    -0.276 OA
ATOM     13  H   UNL     1      -2.099  -3.706   5.797  0.00  0.00    -0.086 HD
ATOM     14  H   UNL     1      -1.066  -4.025   7.039  0.00  0.00    -0.086 HD
ENDROOT
BRANCH   1  16
ATOM     15  N   UNL     1      -2.146  -2.141   1.451  0.00  0.00    -0.303 N 
ATOM     16  C   UNL     1      -0.828  -2.416   1.514  0.00  0.00    +0.219 C 
ATOM     17  O   UNL     1      -0.015  -1.537   1.318  0.00  0.00    -0.275 OA
ATOM     18  H   UNL     1      -2.796  -2.844   1.607  0.00  0.00    +0.149 HD
BRANCH  15  19
ATOM     19  C   UNL     1      -2.597  -0.781   1.146  0.00  0.00    +0.161 C 
BRANCH  19  20
ATOM     20  C   UNL     1      -3.977  -0.571   1.712  0.00  0.00    +0.234 C 
ATOM     21  O   UNL     1      -4.660  -1.526   2.017  0.00  0.00    -0.274 OA
ATOM     22  N   UNL     1      -4.454   0.679   1.881  0.00  0.00    -0.309 N 
ATOM     23  H   UNL     1      -3.884   1.443   1.700  0.00  0.00    +0.149 HD
BRANCH  22  24
ATOM     24  C   UNL     1      -5.831   0.883   2.336  0.00  0.00    +0.026 C 
ATOM     25  C   UNL     1      -6.017   0.229   3.707  0.00  0.00    +0.031 C 
ATOM     26  C   UNL     1      -6.116   2.382   2.444  0.00  0.00    +0.031 C 
ATOM     27  C   UNL     1      -6.798   0.250   1.334  0.00  0.00    +0.031 C 
ENDBRANCH  22  24
ENDBRANCH  19  20
BRANCH  19  29
ATOM     28  C   UNL     1      -1.218  -0.719  -0.937  0.00  0.00    +0.009 C 
ATOM     29  C   UNL     1      -2.633  -0.584  -0.371  0.00  0.00    +0.012 C 
ATOM     30  C   UNL     1      -3.538  -1.643  -1.002  0.00  0.00    +0.009 C 
ENDBRANCH  19  29
ENDBRANCH  15  19
ENDBRANCH   1  16
BRANCH  11  31
ATOM     31  C   UNL     1       3.655  -2.692   0.778  0.00  0.00    +0.124 C 
BRANCH  31  32
ATOM     32  C   UNL     1       5.028  -2.032   0.918  0.00  0.00    +0.168 C 
BRANCH  32  33
ATOM     33  O   UNL     1       5.473  -1.581  -0.363  0.00  0.00    -0.382 OA
ATOM     34  C   UNL     1       6.753  -0.946  -0.343  0.00  0.00    +0.194 C 
ENDBRANCH  32  33
ENDBRANCH  31  32
ENDBRANCH  11  31
TORSDOF 8
