REMARK  Name = ZINC38573926
REMARK  11 active torsions:
REMARK  status: ('A' for Active; 'I' for Inactive)
REMARK    1  A    between atoms: C_1  and  O_2
REMARK    2  A    between atoms: O_2  and  C_3
REMARK    3  A    between atoms: C_6  and  C_11
REMARK    4  A    between atoms: C_8  and  O_9
REMARK    5  A    between atoms: O_9  and  C_10
REMARK    6  A    between atoms: N_13  and  C_14
REMARK    7  A    between atoms: C_14  and  C_16
REMARK    8  A    between atoms: C_14  and  C_20
REMARK    9  A    between atoms: C_16  and  C_17
REMARK   10  A    between atoms: C_17  and  S_18
REMARK   11  A    between atoms: S_18  and  C_19
REMARK                            x       y       z     vdW  Elec       q    Type
REMARK                         _______ _______ _______ _____ _____    ______ ____
ROOT
ATOM      1  C   UNL     1      -7.397  -2.570   0.055  0.00  0.00    +0.160 C 
ENDROOT
BRANCH   1   2
ATOM      2  C   UNL     1      -8.394  -1.577  -0.486  0.00  0.00    +0.236 C 
ATOM      3  O   UNL     1      -8.086  -0.409  -0.600  0.00  0.00    -0.274 OA
ATOM      4  N   UNL     1      -9.627  -1.987  -0.844  0.00  0.00    -0.300 N 
ATOM      5  C   UNL     1     -10.054  -3.373  -0.607  0.00  0.00    +0.106 C 
ATOM      6  C   UNL     1     -11.369  -3.355   0.180  0.00  0.00    +0.009 C 
ATOM      7  C   UNL     1     -12.393  -2.499  -0.566  0.00  0.00    -0.037 C 
ATOM      8  C   UNL     1     -11.880  -1.064  -0.685  0.00  0.00    +0.009 C 
ATOM      9  C   UNL     1     -10.572  -1.055  -1.474  0.00  0.00    +0.106 C 
ATOM     10  C   UNL     1     -13.722  -2.511   0.192  0.00  0.00    +0.140 C 
ATOM     11  C   UNL     1     -14.213  -3.955   0.141  0.00  0.00    +0.042 C 
ATOM     12  N   UNL     1     -14.388  -4.313   1.352  0.00  0.00    -0.243 NA
ATOM     13  C   UNL     1     -13.997  -3.348   2.221  0.00  0.00    +0.216 C 
ATOM     14  N   UNL     1     -13.566  -2.256   1.625  0.00  0.00    -0.264 NA
ATOM     15  C   UNL     1     -14.291  -4.712  -1.161  0.00  0.00    +0.034 C 
ATOM     16  C   UNL     1     -12.940  -4.486  -1.865  0.00  0.00    -0.076 C 
ATOM     17  N   UNL     1     -12.619  -3.057  -1.907  0.00  0.00    +0.385 N 
ATOM     18  H   UNL     1     -13.383  -2.563  -2.343  0.00  0.00    -0.085 HD
ATOM     19  H   UNL     1     -11.787  -2.925  -2.462  0.00  0.00    -0.085 HD
ENDBRANCH   1   2
BRANCH   1  22
ATOM     20  C   UNL     1      -5.022  -2.977  -0.304  0.00  0.00    +0.245 C 
ATOM     21  O   UNL     1      -5.233  -4.165  -0.153  0.00  0.00    -0.270 OA
ATOM     22  N   UNL     1      -6.038  -2.096  -0.220  0.00  0.00    -0.300 N 
ATOM     23  H   UNL     1      -5.870  -1.149  -0.340  0.00  0.00    +0.150 HD
BRANCH  20  27
ATOM     24  C   UNL     1      -1.082  -1.598  -1.099  0.00  0.00    +0.162 A 
ATOM     25  C   UNL     1      -2.130  -0.692  -1.012  0.00  0.00    +0.050 A 
ATOM     26  C   UNL     1      -3.409  -1.136  -0.755  0.00  0.00    +0.017 A 
ATOM     27  C   UNL     1      -3.653  -2.500  -0.581  0.00  0.00    +0.040 A 
ATOM     28  C   UNL     1      -2.598  -3.412  -0.668  0.00  0.00    +0.062 A 
ATOM     29  C   UNL     1      -1.319  -2.961  -0.931  0.00  0.00    +0.162 A 
BRANCH  24  31
ATOM     30  C   UNL     1       0.349   0.254  -1.513  0.00  0.00    +0.277 C 
ATOM     31  O   UNL     1       0.177  -1.156  -1.353  0.00  0.00    -0.491 OA
ENDBRANCH  24  31
BRANCH  29  32
ATOM     32  O   UNL     1      -0.291  -3.847  -1.022  0.00  0.00    -0.491 OA
ATOM     33  C   UNL     1      -0.607  -5.229  -0.840  0.00  0.00    +0.277 C 
ENDBRANCH  29  32
ENDBRANCH  20  27
ENDBRANCH   1  22
BRANCH   1  34
ATOM     34  C   UNL     1      -7.592  -2.715   1.565  0.00  0.00    +0.042 C 
BRANCH  34  35
ATOM     35  C   UNL     1      -6.680  -3.825   2.092  0.00  0.00    +0.071 C 
BRANCH  35  36
ATOM     36  S   UNL     1      -6.910  -3.998   3.883  0.00  0.00    -0.164 S 
ATOM     37  C   UNL     1      -5.774  -5.335   4.345  0.00  0.00    +0.084 C 
ENDBRANCH  35  36
ENDBRANCH  34  35
ENDBRANCH   1  34
TORSDOF 8
