REMARK  Name = ZINC34749502
REMARK  9 active torsions:
REMARK  status: ('A' for Active; 'I' for Inactive)
REMARK    1  A    between atoms: C_1  and  C_2
REMARK    2  A    between atoms: C_2  and  C_3
REMARK    3  A    between atoms: C_4  and  C_37
REMARK    4  A    between atoms: N_10  and  C_29
REMARK    5  A    between atoms: N_16  and  C_19
REMARK    6  A    between atoms: C_19  and  C_20
REMARK    7  A    between atoms: N_22  and  C_23
REMARK    8  A    between atoms: C_29  and  C_30
REMARK    9  A    between atoms: C_30  and  C_31
REMARK                            x       y       z     vdW  Elec       q    Type
REMARK                         _______ _______ _______ _____ _____    ______ ____
ROOT
ATOM      1  C   UNL     1       0.570  -0.307   1.200  0.00  0.00    -0.023 A 
ATOM      2  C   UNL     1       0.915   0.985   1.096  0.00  0.00    -0.007 A 
ATOM      3  S   UNL     1       0.511   1.651   2.700  0.00  0.00    -0.073 S 
ATOM      4  C   UNL     1      -0.110   0.175   3.463  0.00  0.00    +0.117 A 
ATOM      5  C   UNL     1       0.009  -0.793   2.449  0.00  0.00    +0.076 A 
ATOM      6  C   UNL     1      -0.433  -2.111   2.792  0.00  0.00    +0.264 A 
ATOM      7  O   UNL     1      -0.364  -3.016   1.978  0.00  0.00    -0.267 OA
ATOM      8  N   UNL     1      -0.925  -2.337   4.024  0.00  0.00    -0.280 N 
ATOM      9  C   UNL     1      -1.009  -1.336   4.947  0.00  0.00    +0.202 A 
ATOM     10  N   UNL     1      -0.601  -0.117   4.662  0.00  0.00    -0.208 NA
ATOM     11  N   UNL     1      -1.517  -1.607   6.193  0.00  0.00    -0.304 N 
ATOM     12  C   UNL     1      -2.966  -1.557   6.447  0.00  0.00    +0.089 C 
ATOM     13  C   UNL     1      -3.212  -0.688   7.684  0.00  0.00    -0.059 C 
ATOM     14  N   UNL     1      -2.417  -1.201   8.808  0.00  0.00    +0.387 N 
ATOM     15  C   UNL     1      -0.986  -1.067   8.510  0.00  0.00    -0.059 C 
ATOM     16  C   UNL     1      -0.629  -1.960   7.311  0.00  0.00    +0.089 C 
ATOM     17  C   UNL     1       1.504   1.701  -0.092  0.00  0.00    +0.052 C 
ATOM     18  H   UNL     1      -2.639  -2.174   8.958  0.00  0.00    -0.081 HD
ENDROOT
BRANCH   1  20
ATOM     19  C   UNL     1      -0.505  -1.237  -0.832  0.00  0.00    +0.009 C 
ATOM     20  C   UNL     1       0.756  -1.242   0.033  0.00  0.00    +0.033 C 
ENDBRANCH   1  20
BRANCH  14  21
ATOM     21  C   UNL     1      -2.737  -0.437  10.021  0.00  0.00    +0.019 C 
BRANCH  21  22
ATOM     22  C   UNL     1      -2.016  -1.040  11.199  0.00  0.00    +0.197 C 
ATOM     23  O   UNL     1      -1.306  -2.011  11.043  0.00  0.00    -0.278 OA
ATOM     24  N   UNL     1      -2.160  -0.501  12.425  0.00  0.00    -0.314 N 
ATOM     25  H   UNL     1      -2.729   0.276  12.550  0.00  0.00    +0.149 HD
BRANCH  24  26
ATOM     26  C   UNL     1      -1.459  -1.087  13.570  0.00  0.00    +0.073 C 
ATOM     27  C   UNL     1      -2.288  -2.240  14.140  0.00  0.00    +0.022 C 
ATOM     28  C   UNL     1      -1.556  -2.852  15.336  0.00  0.00    +0.002 C 
ATOM     29  C   UNL     1      -1.359  -1.784  16.414  0.00  0.00    +0.000 C 
ATOM     30  C   UNL     1      -0.530  -0.631  15.844  0.00  0.00    +0.002 C 
ATOM     31  C   UNL     1      -1.262  -0.019  14.648  0.00  0.00    +0.022 C 
ENDBRANCH  24  26
ENDBRANCH  21  22
ENDBRANCH  14  21
BRANCH   8  32
ATOM     32  C   UNL     1      -1.378  -3.683   4.380  0.00  0.00    +0.133 C 
BRANCH  32  33
ATOM     33  C   UNL     1      -0.183  -4.517   4.847  0.00  0.00    +0.057 C 
BRANCH  33  34
ATOM     34  C   UNL     1      -0.650  -5.902   5.214  0.00  0.00    -0.046 A 
ATOM     35  C   UNL     1      -1.057  -6.175   6.506  0.00  0.00    +0.004 A 
ATOM     36  C   UNL     1      -1.485  -7.446   6.843  0.00  0.00    +0.000 A 
ATOM     37  C   UNL     1      -1.506  -8.444   5.886  0.00  0.00    +0.000 A 
ATOM     38  C   UNL     1      -1.100  -8.171   4.593  0.00  0.00    +0.000 A 
ATOM     39  C   UNL     1      -0.676  -6.899   4.256  0.00  0.00    +0.004 A 
ENDBRANCH  33  34
ENDBRANCH  32  33
ENDBRANCH   8  32
TORSDOF 7
