REMARK  Name = ZINC32913928
REMARK  4 active torsions:
REMARK  status: ('A' for Active; 'I' for Inactive)
REMARK    1  A    between atoms: C_4  and  S_7
REMARK    2  A    between atoms: S_7  and  N_10
REMARK    3  A    between atoms: C_14  and  C_17
REMARK    4  A    between atoms: C_17  and  N_19
REMARK                            x       y       z     vdW  Elec       q    Type
REMARK                         _______ _______ _______ _____ _____    ______ ____
ROOT
ATOM      1  N   UNL     1       4.340  -1.077   1.517  0.00  0.00    -0.176 NA
ATOM      2  C   UNL     1       5.163  -0.086   2.224  0.00  0.00    +0.109 C 
ATOM      3  C   UNL     1       4.464   0.291   3.534  0.00  0.00    +0.018 C 
ATOM      4  C   UNL     1       4.179  -0.978   4.340  0.00  0.00    +0.015 C 
ATOM      5  C   UNL     1       3.248  -1.893   3.541  0.00  0.00    +0.093 C 
ATOM      6  C   UNL     1       3.928  -2.293   2.233  0.00  0.00    +0.122 C 
ENDROOT
BRANCH   1   7
ATOM      7  S   UNL     1       3.881  -0.828  -0.054  0.00  0.00    +0.061 S 
ATOM      8  O   UNL     1       3.613  -2.108  -0.607  0.00  0.00    -0.153 OA
ATOM      9  O   UNL     1       4.833   0.062  -0.619  0.00  0.00    -0.153 OA
BRANCH   7  13
ATOM     10  C   UNL     1      -0.064   1.391   0.041  0.00  0.00    +0.000 A 
ATOM     11  C   UNL     1       1.125   2.096   0.021  0.00  0.00    +0.002 A 
ATOM     12  C   UNL     1       2.330   1.418  -0.007  0.00  0.00    +0.028 A 
ATOM     13  C   UNL     1       2.345   0.036  -0.016  0.00  0.00    +0.105 A 
ATOM     14  C   UNL     1       1.156  -0.669   0.004  0.00  0.00    +0.028 A 
ATOM     15  C   UNL     1      -0.049   0.009   0.031  0.00  0.00    +0.002 A 
ENDBRANCH   7  13
ENDBRANCH   1   7
BRANCH   5  16
ATOM     16  C   UNL     1       2.942  -3.128   4.349  0.00  0.00    +0.243 C 
ATOM     17  O   UNL     1       3.241  -4.226   3.919  0.00  0.00    -0.273 OA
BRANCH  16  18
ATOM     18  N   UNL     1       2.347  -3.017   5.533  0.00  0.00    -0.147 NA
ATOM     19  C   UNL     1       1.982  -4.110   6.199  0.00  0.00    +0.198 A 
ATOM     20  N   UNL     1       2.267  -5.387   5.832  0.00  0.00    -0.326 N 
ATOM     21  H   UNL     1       2.766  -5.654   5.044  0.00  0.00    +0.169 HD
ATOM     22  C   UNL     1       1.718  -6.245   6.779  0.00  0.00    +0.065 A 
ATOM     23  C   UNL     1       1.699  -7.627   6.907  0.00  0.00    +0.028 A 
ATOM     24  C   UNL     1       1.059  -8.210   7.982  0.00  0.00    +0.002 A 
ATOM     25  C   UNL     1       0.434  -7.421   8.934  0.00  0.00    +0.002 A 
ATOM     26  C   UNL     1       0.447  -6.046   8.816  0.00  0.00    +0.028 A 
ATOM     27  C   UNL     1       1.088  -5.450   7.739  0.00  0.00    +0.065 A 
ATOM     28  N   UNL     1       1.273  -4.125   7.358  0.00  0.00    -0.326 N 
ATOM     29  H   UNL     1       0.948  -3.346   7.835  0.00  0.00    +0.169 HD
ENDBRANCH  16  18
ENDBRANCH   5  16
TORSDOF 4
