REMARK  Name = ZINC39478293
REMARK  6 active torsions:
REMARK  status: ('A' for Active; 'I' for Inactive)
REMARK    1  A    between atoms: C_4  and  C_7
REMARK    2  A    between atoms: C_7  and  C_8
REMARK    3  A    between atoms: C_8  and  C_9
REMARK    4  A    between atoms: N_18  and  C_19
REMARK    5  A    between atoms: C_25  and  C_27
REMARK    6  A    between atoms: C_27  and  C_28
REMARK                            x       y       z     vdW  Elec       q    Type
REMARK                         _______ _______ _______ _____ _____    ______ ____
ROOT
ATOM      1  C   UNL     1       5.507  -1.710   1.381  0.00  0.00    +0.160 C 
ATOM      2  N   UNL     1       6.565  -0.844   0.847  0.00  0.00    -0.323 N 
ATOM      3  C   UNL     1       7.524  -0.695   1.856  0.00  0.00    +0.067 A 
ATOM      4  C   UNL     1       8.718   0.017   1.877  0.00  0.00    +0.028 A 
ATOM      5  C   UNL     1       9.486  -0.013   3.033  0.00  0.00    +0.019 A 
ATOM      6  C   UNL     1       9.043  -0.742   4.118  0.00  0.00    +0.084 A 
ATOM      7  N   UNL     1       7.906  -1.408   4.071  0.00  0.00    -0.348 N 
ATOM      8  C   UNL     1       7.138  -1.410   2.988  0.00  0.00    +0.122 A 
ATOM      9  N   UNL     1       5.917  -2.046   2.749  0.00  0.00    -0.294 N 
ATOM     10  H   UNL     1       6.594  -0.450  -0.039  0.00  0.00    +0.148 HD
ATOM     11  H   UNL     1       7.623  -1.912   4.850  0.00  0.00    +0.167 HD
ENDROOT
BRANCH   9  12
ATOM     12  C   UNL     1       5.181  -2.893   3.691  0.00  0.00    +0.080 C 
ATOM     13  C   UNL     1       4.832  -2.082   4.941  0.00  0.00    +0.041 C 
ATOM     14  C   UNL     1       4.033  -2.961   5.909  0.00  0.00    +0.109 C 
ATOM     15  N   UNL     1       4.799  -4.185   6.178  0.00  0.00    -0.301 N 
ATOM     16  C   UNL     1       5.262  -4.993   5.042  0.00  0.00    +0.109 C 
ATOM     17  C   UNL     1       6.048  -4.092   4.084  0.00  0.00    +0.041 C 
ATOM     18  C   UNL     1       5.071  -4.560   7.444  0.00  0.00    +0.220 C 
ATOM     19  O   UNL     1       4.683  -3.885   8.373  0.00  0.00    -0.275 OA
BRANCH  18  20
ATOM     20  C   UNL     1       5.858  -5.819   7.704  0.00  0.00    +0.133 C 
BRANCH  20  21
ATOM     21  C   UNL     1       6.024  -6.010   9.190  0.00  0.00    -0.014 A 
ATOM     22  C   UNL     1       5.069  -6.651  10.098  0.00  0.00    +0.003 A 
ATOM     23  C   UNL     1       3.816  -7.242   9.929  0.00  0.00    +0.010 A 
ATOM     24  C   UNL     1       3.162  -7.766  11.008  0.00  0.00    +0.001 A 
ATOM     25  C   UNL     1       3.733  -7.714  12.272  0.00  0.00    +0.002 A 
ATOM     26  C   UNL     1       4.969  -7.135  12.461  0.00  0.00    +0.026 A 
ATOM     27  C   UNL     1       5.653  -6.596  11.377  0.00  0.00    +0.047 A 
ATOM     28  N   UNL     1       6.870  -5.967  11.241  0.00  0.00    -0.360 N 
ATOM     29  C   UNL     1       7.076  -5.630   9.931  0.00  0.00    +0.087 A 
ATOM     30  H   UNL     1       7.491  -5.792  11.966  0.00  0.00    +0.165 HD
ENDBRANCH  20  21
ENDBRANCH  18  20
ENDBRANCH   9  12
BRANCH   1  31
ATOM     31  C   UNL     1       4.171  -0.963   1.399  0.00  0.00    +0.047 C 
BRANCH  31  32
ATOM     32  C   UNL     1       3.711  -0.707  -0.038  0.00  0.00    +0.038 C 
BRANCH  32  36
ATOM     33  C   UNL     1      -0.017   1.378   0.010  0.00  0.00    +0.000 A 
ATOM     34  C   UNL     1       1.171   2.086   0.002  0.00  0.00    +0.000 A 
ATOM     35  C   UNL     1       2.377   1.411  -0.013  0.00  0.00    +0.003 A 
ATOM     36  C   UNL     1       2.396   0.029  -0.020  0.00  0.00    -0.047 A 
ATOM     37  C   UNL     1       1.208  -0.679  -0.012  0.00  0.00    +0.003 A 
ATOM     38  C   UNL     1       0.002  -0.004   0.002  0.00  0.00    +0.000 A 
ENDBRANCH  32  36
ENDBRANCH  31  32
ENDBRANCH   1  31
TORSDOF 6
