REMARK  Name = ZINC43218947
REMARK  7 active torsions:
REMARK  status: ('A' for Active; 'I' for Inactive)
REMARK    1  A    between atoms: C_1  and  N_2
REMARK    2  A    between atoms: N_2  and  C_3
REMARK    3  A    between atoms: N_2  and  C_4
REMARK    4  A    between atoms: C_7  and  C_10
REMARK    5  A    between atoms: N_18  and  C_21
REMARK    6  A    between atoms: C_27  and  C_29
REMARK    7  A    between atoms: C_27  and  C_35
REMARK                            x       y       z     vdW  Elec       q    Type
REMARK                         _______ _______ _______ _____ _____    ______ ____
ROOT
ATOM      1  C   UNL     1      -0.006  -2.813  -4.924  0.00  0.00    -0.026 C 
ATOM      2  C   UNL     1       1.350  -2.696  -5.613  0.00  0.00    +0.077 C 
ATOM      3  C   UNL     1       1.194  -1.206  -6.101  0.00  0.00    +0.090 C 
ATOM      4  C   UNL     1       2.559  -0.845  -6.398  0.00  0.00    +0.225 C 
ATOM      5  O   UNL     1       2.953  -0.097  -7.267  0.00  0.00    -0.275 OA
ATOM      6  N   UNL     1       3.316  -1.532  -5.481  0.00  0.00    -0.239 N 
ATOM      7  C   UNL     1       2.605  -2.512  -4.820  0.00  0.00    +0.225 C 
ATOM      8  O   UNL     1       2.921  -3.100  -3.808  0.00  0.00    -0.275 OA
ATOM      9  C   UNL     1      -0.136  -1.186  -6.721  0.00  0.00    +0.074 C 
ATOM     10  N   UNL     1      -0.944  -2.168  -5.901  0.00  0.00    +0.398 N 
ATOM     11  H   UNL     1      -1.339  -2.868  -6.510  0.00  0.00    -0.083 HD
ATOM     12  H   UNL     1      -1.680  -1.690  -5.404  0.00  0.00    -0.083 HD
ENDROOT
BRANCH   1  16
ATOM     13  C   UNL     1      -0.000  -0.696  -1.212  0.00  0.00    +0.029 A 
ATOM     14  C   UNL     1       0.368  -2.034  -1.250  0.00  0.00    +0.023 A 
ATOM     15  C   UNL     1       0.364  -2.716  -2.451  0.00  0.00    +0.004 A 
ATOM     16  C   UNL     1      -0.005  -2.066  -3.615  0.00  0.00    -0.060 A 
ATOM     17  C   UNL     1      -0.372  -0.734  -3.580  0.00  0.00    +0.004 A 
ATOM     18  C   UNL     1      -0.376  -0.048  -2.382  0.00  0.00    +0.023 A 
BRANCH  13  20
ATOM     19  C   UNL     1      -0.392   1.407   0.041  0.00  0.00    +0.129 C 
ATOM     20  N   UNL     1       0.002  -0.004   0.002  0.00  0.00    -0.336 N 
ATOM     21  C   UNL     1       0.399  -0.688   1.235  0.00  0.00    +0.129 C 
ENDBRANCH  13  20
ENDBRANCH   1  16
BRANCH   6  22
ATOM     22  C   UNL     1       4.736  -1.264  -5.238  0.00  0.00    +0.084 C 
ATOM     23  C   UNL     1       5.550  -2.525  -5.533  0.00  0.00    +0.023 C 
ATOM     24  C   UNL     1       7.033  -2.246  -5.279  0.00  0.00    +0.002 C 
ATOM     25  C   UNL     1       7.232  -1.841  -3.817  0.00  0.00    +0.000 C 
ATOM     26  C   UNL     1       6.417  -0.581  -3.521  0.00  0.00    +0.002 C 
ATOM     27  C   UNL     1       4.935  -0.860  -3.776  0.00  0.00    +0.023 C 
ENDBRANCH   6  22
BRANCH   9  28
ATOM     28  C   UNL     1      -0.743   0.190  -6.617  0.00  0.00    -0.047 A 
ATOM     29  C   UNL     1       0.072   1.306  -6.606  0.00  0.00    +0.003 A 
ATOM     30  C   UNL     1      -0.485   2.568  -6.511  0.00  0.00    +0.000 A 
ATOM     31  C   UNL     1      -1.857   2.713  -6.428  0.00  0.00    +0.000 A 
ATOM     32  C   UNL     1      -2.672   1.597  -6.439  0.00  0.00    +0.000 A 
ATOM     33  C   UNL     1      -2.116   0.336  -6.538  0.00  0.00    +0.003 A 
ENDBRANCH   9  28
BRANCH   9  34
ATOM     34  C   UNL     1      -0.051  -1.617  -8.162  0.00  0.00    +0.350 C 
ATOM     35  O   UNL     1      -0.669  -2.596  -8.543  0.00  0.00    -0.248 OA
ATOM     36  O   UNL     1       0.636  -0.986  -8.947  0.00  0.00    -0.248 OA
ENDBRANCH   9  34
TORSDOF 5
