REMARK  Name = ZINC22782526
REMARK  5 active torsions:
REMARK  status: ('A' for Active; 'I' for Inactive)
REMARK    1  A    between atoms: C_4  and  C_7
REMARK    2  A    between atoms: C_8  and  C_9
REMARK    3  A    between atoms: C_9  and  C_15
REMARK    4  A    between atoms: N_10  and  N_11
REMARK    5  A    between atoms: C_15  and  O_21
REMARK                            x       y       z     vdW  Elec       q    Type
REMARK                         _______ _______ _______ _____ _____    ______ ____
ROOT
ATOM      1  C   UNL     1       0.033   0.070   0.014  0.00  0.00    +0.091 C 
ATOM      2  N   UNL     1      -0.587  -0.621  -0.899  0.00  0.00    -0.181 NA
ENDROOT
BRANCH   2   3
ATOM      3  N   UNL     1      -0.386  -2.005  -0.987  0.00  0.00    -0.191 N 
ATOM      4  C   UNL     1      -0.946  -2.705  -1.994  0.00  0.00    +0.317 C 
ATOM      5  O   UNL     1      -0.772  -3.906  -2.070  0.00  0.00    -0.251 OA
ATOM      6  N   UNL     1      -1.698  -2.073  -2.917  0.00  0.00    -0.312 N 
ATOM      7  H   UNL     1       0.228  -2.521  -0.234  0.00  0.00    +0.179 HD
ATOM      8  H   UNL     1      -2.154  -2.644  -3.739  0.00  0.00    +0.147 HD
ATOM      9  H   UNL     1      -1.855  -0.987  -2.848  0.00  0.00    +0.147 HD
ENDBRANCH   2   3
BRANCH   1  10
ATOM     10  C   UNL     1      -0.091   1.571   0.035  0.00  0.00    +0.109 C 
ATOM     11  C   UNL     1      -0.821   2.005   1.308  0.00  0.00    +0.041 C 
ATOM     12  C   UNL     1      -0.946   3.530   1.330  0.00  0.00    +0.003 C 
ATOM     13  C   UNL     1      -1.737   3.994   0.106  0.00  0.00    +0.000 C 
ATOM     14  C   UNL     1      -1.008   3.560  -1.167  0.00  0.00    +0.003 C 
ATOM     15  C   UNL     1      -0.882   2.036  -1.189  0.00  0.00    +0.041 C 
BRANCH  10  16
ATOM     16  O   UNL     1       1.212   2.157   0.010  0.00  0.00    -0.382 OA
ATOM     17  H   UNL     1       1.324   3.251   0.021  0.00  0.00    +0.211 HD
ENDBRANCH  10  16
ENDBRANCH   1  10
BRANCH   1  19
ATOM     18  C   UNL     1       1.416   0.119   1.970  0.00  0.00    +0.010 C 
ATOM     19  C   UNL     1       0.824  -0.591   0.988  0.00  0.00    +0.028 C 
BRANCH  18  23
ATOM     20  C   UNL     1       3.997  -1.815   4.725  0.00  0.00    +0.000 A 
ATOM     21  C   UNL     1       3.765  -0.456   4.837  0.00  0.00    +0.001 A 
ATOM     22  C   UNL     1       2.927   0.180   3.946  0.00  0.00    +0.008 A 
ATOM     23  C   UNL     1       2.312  -0.552   2.926  0.00  0.00    -0.025 A 
ATOM     24  C   UNL     1       2.546  -1.927   2.823  0.00  0.00    +0.008 A 
ATOM     25  C   UNL     1       3.391  -2.547   3.719  0.00  0.00    +0.001 A 
ENDBRANCH  18  23
ENDBRANCH   1  19
TORSDOF 5
