REMARK  Name = ZINC38739791
REMARK  9 active torsions:
REMARK  status: ('A' for Active; 'I' for Inactive)
REMARK    1  A    between atoms: C_1  and  N_2
REMARK    2  A    between atoms: N_2  and  C_3
REMARK    3  A    between atoms: N_2  and  C_4
REMARK    4  A    between atoms: C_4  and  C_5
REMARK    5  A    between atoms: C_5  and  N_6
REMARK    6  A    between atoms: N_6  and  C_7
REMARK    7  A    between atoms: C_7  and  C_8
REMARK    8  A    between atoms: C_14  and  C_16
REMARK    9  A    between atoms: C_22  and  C_24
REMARK                            x       y       z     vdW  Elec       q    Type
REMARK                         _______ _______ _______ _____ _____    ______ ____
ROOT
ATOM      1  C   UNL     1      -2.449  -2.367   2.466  0.00  0.00    +0.087 C 
ATOM      2  C   UNL     1      -2.059  -0.888   2.497  0.00  0.00    +0.013 C 
ATOM      3  C   UNL     1      -1.286  -0.591   3.783  0.00  0.00    +0.001 C 
ATOM      4  C   UNL     1      -2.165  -0.913   4.993  0.00  0.00    +0.001 C 
ATOM      5  C   UNL     1      -2.555  -2.392   4.962  0.00  0.00    +0.013 C 
ATOM      6  C   UNL     1      -3.329  -2.688   3.675  0.00  0.00    +0.087 C 
ENDROOT
BRANCH   6   7
ATOM      7  C   UNL     1      -4.573  -1.840   3.631  0.00  0.00    +0.219 C 
ATOM      8  O   UNL     1      -4.579  -0.804   3.000  0.00  0.00    -0.275 OA
ATOM      9  N   UNL     1      -5.680  -2.232   4.293  0.00  0.00    -0.298 N 
ATOM     10  C   UNL     1      -5.654  -3.423   5.154  0.00  0.00    +0.126 C 
ATOM     11  C   UNL     1      -6.130  -3.023   6.556  0.00  0.00    +0.125 C 
ATOM     12  N   UNL     1      -7.384  -2.268   6.430  0.00  0.00    -0.314 N 
ATOM     13  C   UNL     1      -7.410  -1.077   5.568  0.00  0.00    +0.125 C 
ATOM     14  C   UNL     1      -6.933  -1.474   4.170  0.00  0.00    +0.126 C 
ATOM     15  C   UNL     1      -8.526  -2.672   7.112  0.00  0.00    +0.099 A 
ATOM     16  C   UNL     1      -8.448  -3.720   8.025  0.00  0.00    +0.042 A 
ATOM     17  C   UNL     1      -9.592  -4.112   8.696  0.00  0.00    +0.005 A 
ATOM     18  C   UNL     1     -10.779  -3.441   8.432  0.00  0.00    +0.018 A 
ATOM     19  C   UNL     1     -10.783  -2.411   7.514  0.00  0.00    +0.084 A 
ATOM     20  N   UNL     1      -9.675  -2.054   6.891  0.00  0.00    -0.350 N 
ATOM     21  H   UNL     1      -9.705  -1.324   6.254  0.00  0.00    +0.166 HD
ENDBRANCH   6   7
BRANCH   1  23
ATOM     22  N   UNL     1      -2.577  -2.631   0.010  0.00  0.00    -0.299 N 
ATOM     23  C   UNL     1      -3.211  -2.659   1.199  0.00  0.00    +0.220 C 
ATOM     24  O   UNL     1      -4.395  -2.919   1.249  0.00  0.00    -0.275 OA
BRANCH  22  25
ATOM     25  C   UNL     1      -1.137  -2.370  -0.047  0.00  0.00    +0.089 C 
BRANCH  25  26
ATOM     26  C   UNL     1      -0.893  -0.985  -0.650  0.00  0.00    -0.060 C 
BRANCH  26  28
ATOM     27  C   UNL     1       0.792   0.557  -1.383  0.00  0.00    -0.097 C 
ATOM     28  N   UNL     1       0.551  -0.718  -0.696  0.00  0.00    +0.377 N 
ATOM     29  C   UNL     1       1.079  -0.644   0.673  0.00  0.00    -0.097 C 
ATOM     30  H   UNL     1       1.015  -1.462  -1.195  0.00  0.00    -0.083 HD
ENDBRANCH  26  28
ENDBRANCH  25  26
ENDBRANCH  22  25
BRANCH  22  31
ATOM     31  C   UNL     1      -3.329  -2.862  -1.227  0.00  0.00    +0.142 C 
BRANCH  31  32
ATOM     32  C   UNL     1      -3.330  -4.335  -1.546  0.00  0.00    -0.030 A 
ATOM     33  C   UNL     1      -2.323  -4.874  -2.325  0.00  0.00    +0.005 A 
ATOM     34  C   UNL     1      -2.324  -6.224  -2.618  0.00  0.00    +0.000 A 
ATOM     35  C   UNL     1      -3.331  -7.037  -2.132  0.00  0.00    +0.000 A 
ATOM     36  C   UNL     1      -4.338  -6.498  -1.353  0.00  0.00    +0.000 A 
ATOM     37  C   UNL     1      -4.335  -5.148  -1.056  0.00  0.00    +0.005 A 
ENDBRANCH  31  32
ENDBRANCH  22  31
ENDBRANCH   1  23
TORSDOF 7
