REMARK  Name = ZINC39007598
REMARK  4 active torsions:
REMARK  status: ('A' for Active; 'I' for Inactive)
REMARK    1  A    between atoms: N_9  and  C_12
REMARK    2  A    between atoms: C_12  and  C_13
REMARK    3  A    between atoms: C_13  and  C_14
REMARK    4  A    between atoms: C_14  and  N_16
REMARK                            x       y       z     vdW  Elec       q    Type
REMARK                         _______ _______ _______ _____ _____    ______ ____
ROOT
ATOM      1  C   UNL     1       2.935  -4.526  -1.432  0.00  0.00    +0.117 C 
ENDROOT
BRANCH   1   2
ATOM      2  C   UNL     1       3.044  -6.020  -1.600  0.00  0.00    +0.240 C 
ATOM      3  O   UNL     1       2.865  -6.753  -0.646  0.00  0.00    -0.274 OA
BRANCH   2   4
ATOM      4  N   UNL     1       3.334  -6.535  -2.790  0.00  0.00    -0.157 NA
ATOM      5  C   UNL     1       3.430  -7.855  -2.938  0.00  0.00    +0.164 A 
ATOM      6  N   UNL     1       3.721  -8.546  -4.069  0.00  0.00    -0.335 N 
ATOM      7  H   UNL     1       3.889  -8.073  -4.899  0.00  0.00    +0.168 HD
ATOM      8  C   UNL     1       3.779  -9.927  -4.035  0.00  0.00    +0.055 A 
ATOM      9  C   UNL     1       4.059 -10.827  -5.072  0.00  0.00    +0.027 A 
ATOM     10  C   UNL     1       4.069 -12.183  -4.840  0.00  0.00    +0.002 A 
ATOM     11  C   UNL     1       3.805 -12.696  -3.581  0.00  0.00    +0.001 A 
ATOM     12  C   UNL     1       3.526 -11.829  -2.539  0.00  0.00    +0.017 A 
ATOM     13  C   UNL     1       3.516 -10.473  -2.771  0.00  0.00    +0.039 A 
ATOM     14  S   UNL     1       3.225  -9.042  -1.765  0.00  0.00    -0.052 S 
ENDBRANCH   2   4
ENDBRANCH   1   2
BRANCH   1  15
ATOM     15  C   UNL     1       2.594  -4.200   0.023  0.00  0.00    +0.119 C 
BRANCH  15  24
ATOM     16  C   UNL     1      -0.017   1.375   0.010  0.00  0.00    +0.001 A 
ATOM     17  C   UNL     1       1.168   2.095   0.002  0.00  0.00    +0.002 A 
ATOM     18  C   UNL     1       2.386   1.443  -0.018  0.00  0.00    +0.024 A 
ATOM     19  C   UNL     1       2.422   0.059  -0.028  0.00  0.00    +0.040 A 
ATOM     20  C   UNL     1       1.223  -0.674  -0.012  0.00  0.00    +0.058 A 
ATOM     21  C   UNL     1       0.002  -0.004   0.002  0.00  0.00    +0.015 A 
ATOM     22  C   UNL     1       1.296  -2.146   0.004  0.00  0.00    +0.250 C 
ATOM     23  O   UNL     1       0.290  -2.812  -0.146  0.00  0.00    -0.270 OA
ATOM     24  N   UNL     1       2.489  -2.748   0.187  0.00  0.00    -0.281 N 
ATOM     25  C   UNL     1       3.679  -1.977   0.545  0.00  0.00    +0.213 C 
ATOM     26  N   UNL     1       3.623  -0.642  -0.062  0.00  0.00    -0.328 N 
ATOM     27  H   UNL     1       4.408  -0.255  -0.480  0.00  0.00    +0.148 HD
ENDBRANCH  15  24
ENDBRANCH   1  15
TORSDOF 4
