REMARK  Name = ZINC35664787
REMARK  11 active torsions:
REMARK  status: ('A' for Active; 'I' for Inactive)
REMARK    1  A    between atoms: C_1  and  C_2
REMARK    2  A    between atoms: C_2  and  O_3
REMARK    3  A    between atoms: O_3  and  C_4
REMARK    4  A    between atoms: C_4  and  C_6
REMARK    5  A    between atoms: C_7  and  C_24
REMARK    6  A    between atoms: N_8  and  C_21
REMARK    7  A    between atoms: C_12  and  C_14
REMARK    8  A    between atoms: C_17  and  C_20
REMARK    9  A    between atoms: C_21  and  C_22
REMARK   10  A    between atoms: C_24  and  N_25
REMARK   11  A    between atoms: C_32  and  C_34
REMARK                            x       y       z     vdW  Elec       q    Type
REMARK                         _______ _______ _______ _____ _____    ______ ____
ROOT
ATOM      1  C   UNL     1       0.908  -2.458  -2.283  0.00  0.00    +0.076 C 
ATOM      2  C   UNL     1       1.385  -3.715  -2.412  0.00  0.00    +0.011 C 
ATOM      3  N   UNL     1       2.248  -4.041  -3.418  0.00  0.00    -0.257 N 
ATOM      4  C   UNL     1       2.683  -3.168  -4.336  0.00  0.00    +0.307 C 
ATOM      5  O   UNL     1       3.452  -3.553  -5.195  0.00  0.00    -0.252 OA
ATOM      6  N   UNL     1       2.296  -1.877  -4.338  0.00  0.00    -0.288 N 
ATOM      7  C   UNL     1       1.359  -1.425  -3.296  0.00  0.00    +0.143 C 
ATOM      8  H   UNL     1       2.623  -1.262  -5.012  0.00  0.00    +0.151 HD
ENDROOT
BRANCH   7   9
ATOM      9  C   UNL     1       0.132  -0.874  -3.974  0.00  0.00    -0.022 A 
ATOM     10  C   UNL     1      -0.477  -1.588  -4.989  0.00  0.00    +0.006 A 
ATOM     11  C   UNL     1      -1.603  -1.082  -5.612  0.00  0.00    +0.004 A 
ATOM     12  C   UNL     1      -2.120   0.138  -5.220  0.00  0.00    -0.050 A 
ATOM     13  C   UNL     1      -1.512   0.852  -4.204  0.00  0.00    +0.004 A 
ATOM     14  C   UNL     1      -0.389   0.344  -3.579  0.00  0.00    +0.006 A 
ATOM     15  C   UNL     1      -3.346   0.690  -5.899  0.00  0.00    +0.044 C 
ENDBRANCH   7   9
BRANCH   1  16
ATOM     16  C   UNL     1       0.013  -2.119  -1.241  0.00  0.00    +0.339 C 
ATOM     17  O   UNL     1      -0.418  -2.985  -0.503  0.00  0.00    -0.245 OA
BRANCH  16  18
ATOM     18  O   UNL     1      -0.362  -0.834  -1.065  0.00  0.00    -0.462 OA
BRANCH  18  20
ATOM     19  C   UNL     1      -1.575   0.934   0.048  0.00  0.00    +0.048 C 
ATOM     20  C   UNL     1      -1.268  -0.564   0.006  0.00  0.00    +0.229 C 
ENDBRANCH  18  20
ENDBRANCH  16  18
ENDBRANCH   1  16
BRANCH   3  21
ATOM     21  C   UNL     1       2.725  -5.424  -3.499  0.00  0.00    +0.141 C 
BRANCH  21  22
ATOM     22  C   UNL     1       1.855  -6.201  -4.452  0.00  0.00    -0.015 C 
ATOM     23  C   UNL     1       2.390  -6.795  -5.491  0.00  0.00    +0.005 C 
ENDBRANCH  21  22
ENDBRANCH   3  21
BRANCH   2  24
ATOM     24  C   UNL     1       0.958  -4.774  -1.429  0.00  0.00    -0.026 C 
BRANCH  24  25
ATOM     25  N   UNL     1       1.948  -4.867  -0.348  0.00  0.00    +0.384 N 
ATOM     26  C   UNL     1       1.659  -6.063   0.440  0.00  0.00    -0.077 C 
ATOM     27  C   UNL     1       2.945  -6.591   1.036  0.00  0.00    +0.000 C 
ATOM     28  C   UNL     1       3.130  -6.012   2.450  0.00  0.00    +0.106 C 
ATOM     29  N   UNL     1       2.724  -4.593   2.500  0.00  0.00    -0.299 N 
ATOM     30  C   UNL     1       3.049  -3.656   1.445  0.00  0.00    +0.089 C 
ATOM     31  C   UNL     1       1.930  -3.656   0.379  0.00  0.00    -0.059 C 
ATOM     32  C   UNL     1       2.025  -4.154   3.566  0.00  0.00    +0.247 C 
ATOM     33  O   UNL     1       1.586  -3.021   3.580  0.00  0.00    -0.270 OA
ATOM     34  H   UNL     1       2.861  -4.976  -0.763  0.00  0.00    -0.081 HD
BRANCH  32  35
ATOM     35  C   UNL     1       1.791  -5.051   4.716  0.00  0.00    +0.037 A 
ATOM     36  C   UNL     1       2.780  -5.955   5.112  0.00  0.00    +0.016 A 
ATOM     37  C   UNL     1       2.557  -6.790   6.186  0.00  0.00    +0.039 A 
ATOM     38  C   UNL     1       1.354  -6.734   6.873  0.00  0.00    +0.123 A 
ATOM     39  C   UNL     1       0.369  -5.838   6.484  0.00  0.00    +0.039 A 
ATOM     40  C   UNL     1       0.584  -4.995   5.415  0.00  0.00    +0.016 A 
ATOM     41  F   UNL     1       1.140  -7.555   7.924  0.00  0.00    -0.205 F 
ENDBRANCH  32  35
ENDBRANCH  24  25
ENDBRANCH   2  24
TORSDOF 9
