REMARK  Name = ZINC36637510
REMARK  16 active torsions:
REMARK  status: ('A' for Active; 'I' for Inactive)
REMARK    1  A    between atoms: C_1  and  C_2
REMARK    2  A    between atoms: C_2  and  N_3
REMARK    3  A    between atoms: N_3  and  C_4
REMARK    4  A    between atoms: N_3  and  S_6
REMARK    5  A    between atoms: C_4  and  C_5
REMARK    6  A    between atoms: S_6  and  C_9
REMARK    7  A    between atoms: C_12  and  C_15
REMARK    8  A    between atoms: N_17  and  C_18
REMARK    9  A    between atoms: C_18  and  C_19
REMARK   10  A    between atoms: C_19  and  N_20
REMARK   11  A    between atoms: N_20  and  C_21
REMARK   12  A    between atoms: N_20  and  C_22
REMARK   13  A    between atoms: C_27  and  O_34
REMARK   14  A    between atoms: C_28  and  O_32
REMARK   15  A    between atoms: O_32  and  C_33
REMARK   16  A    between atoms: O_34  and  C_35
REMARK                            x       y       z     vdW  Elec       q    Type
REMARK                         _______ _______ _______ _____ _____    ______ ____
ROOT
ATOM      1  C   UNL     1      -0.596   3.798  -5.596  0.00  0.00    +0.252 C 
ATOM      2  O   UNL     1      -1.662   4.334  -5.366  0.00  0.00    -0.270 OA
ATOM      3  N   UNL     1       0.191   4.261  -6.587  0.00  0.00    -0.248 N 
ATOM      4  C   UNL     1      -0.155   5.419  -7.263  0.00  0.00    +0.168 A 
ATOM      5  N   UNL     1       0.473   6.017  -8.248  0.00  0.00    -0.224 NA
ATOM      6  C   UNL     1       0.014   7.153  -8.819  0.00  0.00    +0.084 A 
ATOM      7  C   UNL     1       0.592   7.891  -9.879  0.00  0.00    +0.078 A 
ATOM      8  C   UNL     1      -0.006   9.036 -10.346  0.00  0.00    +0.164 A 
ATOM      9  C   UNL     1      -1.197   9.509  -9.794  0.00  0.00    +0.163 A 
ATOM     10  C   UNL     1      -1.786   8.808  -8.755  0.00  0.00    +0.066 A 
ATOM     11  C   UNL     1      -1.191   7.662  -8.286  0.00  0.00    +0.044 A 
ATOM     12  S   UNL     1      -1.576   6.476  -7.019  0.00  0.00    -0.052 S 
ENDROOT
BRANCH   1  16
ATOM     13  C   UNL     1       0.651   0.465  -3.277  0.00  0.00    +0.106 A 
ATOM     14  C   UNL     1       0.775   0.431  -4.654  0.00  0.00    +0.029 A 
ATOM     15  C   UNL     1       0.372   1.510  -5.413  0.00  0.00    +0.015 A 
ATOM     16  C   UNL     1      -0.162   2.638  -4.789  0.00  0.00    +0.037 A 
ATOM     17  C   UNL     1      -0.285   2.666  -3.398  0.00  0.00    +0.015 A 
ATOM     18  C   UNL     1       0.117   1.578  -2.652  0.00  0.00    +0.029 A 
BRANCH  13  19
ATOM     19  S   UNL     1       1.168  -0.917  -2.314  0.00  0.00    +0.061 S 
ATOM     20  O   UNL     1       1.447  -0.424  -1.011  0.00  0.00    -0.153 OA
ATOM     21  O   UNL     1       2.135  -1.613  -3.089  0.00  0.00    -0.153 OA
BRANCH  19  22
ATOM     22  N   UNL     1      -0.136  -1.928  -2.169  0.00  0.00    -0.177 NA
BRANCH  22  24
ATOM     23  C   UNL     1      -1.336  -2.473  -4.229  0.00  0.00    +0.022 C 
ATOM     24  C   UNL     1      -0.363  -2.980  -3.163  0.00  0.00    +0.106 C 
ENDBRANCH  22  24
BRANCH  22  25
ATOM     25  C   UNL     1      -1.064  -1.769  -1.046  0.00  0.00    +0.106 C 
ATOM     26  C   UNL     1      -0.664  -2.719   0.084  0.00  0.00    +0.022 C 
ENDBRANCH  22  25
ENDBRANCH  19  22
ENDBRANCH  13  19
ENDBRANCH   1  16
BRANCH   9  27
ATOM     27  O   UNL     1      -1.773  10.646 -10.271  0.00  0.00    -0.491 OA
ATOM     28  C   UNL     1      -2.991  11.065  -9.653  0.00  0.00    +0.277 C 
ENDBRANCH   9  27
BRANCH   8  29
ATOM     29  O   UNL     1       0.576   9.722 -11.366  0.00  0.00    -0.491 OA
ATOM     30  C   UNL     1       1.794   9.193 -11.893  0.00  0.00    +0.277 C 
ENDBRANCH   8  29
BRANCH   3  31
ATOM     31  C   UNL     1       1.414   3.539  -6.950  0.00  0.00    +0.097 C 
BRANCH  31  32
ATOM     32  C   UNL     1       1.141   2.655  -8.168  0.00  0.00    -0.060 C 
BRANCH  32  33
ATOM     33  N   UNL     1       2.326   1.834  -8.452  0.00  0.00    +0.377 N 
ATOM     34  C   UNL     1       2.024   0.900  -9.545  0.00  0.00    -0.097 C 
ATOM     35  C   UNL     1       3.442   2.704  -8.845  0.00  0.00    -0.097 C 
ATOM     36  H   UNL     1       2.580   1.313  -7.626  0.00  0.00    -0.083 HD
ENDBRANCH  32  33
ENDBRANCH  31  32
ENDBRANCH   3  31
TORSDOF 10
