REMARK  Name = ZINC09346579
REMARK  7 active torsions:
REMARK  status: ('A' for Active; 'I' for Inactive)
REMARK    1  A    between atoms: C_1  and  C_2
REMARK    2  A    between atoms: C_2  and  O_3
REMARK    3  A    between atoms: O_3  and  C_4
REMARK    4  A    between atoms: C_8  and  C_11
REMARK    5  A    between atoms: C_9  and  O_10
REMARK    6  A    between atoms: C_13  and  C_30
REMARK    7  A    between atoms: N_17  and  C_22
REMARK                            x       y       z     vdW  Elec       q    Type
REMARK                         _______ _______ _______ _____ _____    ______ ____
ROOT
ATOM      1  C   UNL     1       3.277   5.765  -0.013  0.00  0.00    +0.166 A 
ATOM      2  N   UNL     1       4.564   6.073  -0.021  0.00  0.00    -0.220 NA
ATOM      3  C   UNL     1       5.497   5.120  -0.020  0.00  0.00    +0.154 A 
ATOM      4  C   UNL     1       5.088   3.786  -0.025  0.00  0.00    +0.117 A 
ATOM      5  C   UNL     1       3.709   3.504  -0.019  0.00  0.00    +0.170 A 
ATOM      6  N   UNL     1       2.849   4.507  -0.012  0.00  0.00    -0.207 NA
ATOM      7  N   UNL     1       3.587   2.126  -0.020  0.00  0.00    -0.245 N 
ATOM      8  C   UNL     1       4.822   1.588  -0.035  0.00  0.00    +0.333 A 
ATOM      9  O   UNL     1       5.066   0.397  -0.045  0.00  0.00    -0.246 OA
ATOM     10  N   UNL     1       5.745   2.569  -0.038  0.00  0.00    -0.303 N 
ATOM     11  H   UNL     1       6.707   2.443  -0.048  0.00  0.00    +0.171 HD
ENDROOT
BRANCH   7  12
ATOM     12  C   UNL     1       2.381   1.410  -0.013  0.00  0.00    +0.054 A 
ATOM     13  C   UNL     1       2.397   0.022  -0.021  0.00  0.00    +0.028 A 
ATOM     14  C   UNL     1       1.208  -0.682  -0.014  0.00  0.00    +0.023 A 
ATOM     15  C   UNL     1       0.002  -0.004   0.002  0.00  0.00    +0.059 A 
ATOM     16  C   UNL     1      -0.017   1.381   0.010  0.00  0.00    +0.061 A 
ATOM     17  C   UNL     1       1.171   2.089   0.002  0.00  0.00    +0.047 A 
ATOM     18 CL   UNL     1      -1.532   2.228   0.021  0.00  0.00    -0.082 Cl
ATOM     19 CL   UNL     1      -1.490  -0.891   0.011  0.00  0.00    -0.082 Cl
ENDBRANCH   7  12
BRANCH   1  24
ATOM     20  C   UNL     1       1.756   9.214   0.003  0.00  0.00    +0.162 A 
ATOM     21  C   UNL     1       0.404   8.908   0.011  0.00  0.00    +0.049 A 
ATOM     22  C   UNL     1      -0.011   7.588   0.011  0.00  0.00    +0.004 A 
ATOM     23  C   UNL     1       0.916   6.566   0.004  0.00  0.00    +0.015 A 
ATOM     24  C   UNL     1       2.279   6.861  -0.005  0.00  0.00    +0.064 A 
ATOM     25  C   UNL     1       2.700   8.193   0.000  0.00  0.00    +0.169 A 
BRANCH  25  26
ATOM     26  O   UNL     1       4.026   8.490  -0.002  0.00  0.00    -0.503 OA
ATOM     27  H   UNL     1       4.407   8.580  -0.886  0.00  0.00    +0.292 HD
ENDBRANCH  25  26
BRANCH  20  28
ATOM     28  O   UNL     1       2.159  10.513   0.002  0.00  0.00    -0.489 OA
BRANCH  28  30
ATOM     29  C   UNL     1       1.775  12.899   0.007  0.00  0.00    +0.048 C 
ATOM     30  C   UNL     1       1.135  11.510   0.009  0.00  0.00    +0.226 C 
ENDBRANCH  28  30
ENDBRANCH  20  28
ENDBRANCH   1  24
BRANCH   3  31
ATOM     31  C   UNL     1       6.936   5.470  -0.031  0.00  0.00    +0.262 C 
ATOM     32  O   UNL     1       7.775   4.590  -0.044  0.00  0.00    -0.269 OA
ATOM     33  N   UNL     1       7.315   6.763  -0.027  0.00  0.00    -0.324 N 
ATOM     34  H   UNL     1       6.645   7.465  -0.017  0.00  0.00    +0.145 HD
ATOM     35  H   UNL     1       8.258   6.992  -0.034  0.00  0.00    +0.145 HD
ENDBRANCH   3  31
TORSDOF 6
