REMARK  Name = ZINC63770021
REMARK  9 active torsions:
REMARK  status: ('A' for Active; 'I' for Inactive)
REMARK    1  A    between atoms: C_1  and  C_2
REMARK    2  A    between atoms: C_2  and  C_3
REMARK    3  A    between atoms: C_2  and  C_4
REMARK    4  A    between atoms: C_2  and  O_5
REMARK    5  A    between atoms: O_5  and  C_6
REMARK    6  A    between atoms: N_8  and  C_9
REMARK    7  A    between atoms: C_9  and  C_16
REMARK    8  A    between atoms: C_16  and  N_17
REMARK    9  A    between atoms: C_18  and  C_20
REMARK                            x       y       z     vdW  Elec       q    Type
REMARK                         _______ _______ _______ _____ _____    ______ ____
ROOT
ATOM      1  C   UNL     1       4.044  -0.081  -2.488  0.00  0.00    +0.053 C 
ATOM      2  C   UNL     1       3.968   1.417  -2.363  0.00  0.00    +0.027 C 
ATOM      3  C   UNL     1       2.653   1.990  -2.927  0.00  0.00    +0.002 C 
ATOM      4  C   UNL     1       2.231   1.324  -4.251  0.00  0.00    +0.000 C 
ATOM      5  C   UNL     1       3.393   1.104  -5.181  0.00  0.00    +0.000 C 
ATOM      6  C   UNL     1       3.928  -0.326  -4.965  0.00  0.00    +0.002 C 
ATOM      7  C   UNL     1       4.787  -0.426  -3.795  0.00  0.00    +0.027 C 
ENDROOT
BRANCH   1  10
ATOM      8  C   UNL     1       2.513  -1.960  -2.739  0.00  0.00    +0.401 C 
ATOM      9  O   UNL     1       3.469  -2.670  -2.982  0.00  0.00    -0.226 OA
ATOM     10  N   UNL     1       2.691  -0.640  -2.530  0.00  0.00    -0.274 N 
ATOM     11  H   UNL     1       1.922  -0.061  -2.406  0.00  0.00    +0.153 HD
BRANCH   8  12
ATOM     12  O   UNL     1       1.277  -2.491  -2.679  0.00  0.00    -0.445 OA
BRANCH  12  14
ATOM     13  C   UNL     1       1.988  -4.654  -1.869  0.00  0.00    +0.055 C 
ATOM     14  C   UNL     1       1.163  -3.896  -2.911  0.00  0.00    +0.107 C 
ATOM     15  C   UNL     1       1.684  -4.226  -4.311  0.00  0.00    +0.055 C 
ATOM     16  C   UNL     1      -0.305  -4.313  -2.802  0.00  0.00    +0.055 C 
ENDBRANCH  12  14
ENDBRANCH   8  12
ENDBRANCH   1  10
BRANCH   1  17
ATOM     17  C   UNL     1       4.804  -0.662  -1.295  0.00  0.00    +0.130 C 
BRANCH  17  18
ATOM     18  N   UNL     1       4.075  -0.365  -0.059  0.00  0.00    -0.313 N 
ATOM     19  C   UNL     1       4.508  -0.864   1.115  0.00  0.00    +0.216 C 
ATOM     20  O   UNL     1       5.500  -1.560   1.150  0.00  0.00    -0.276 OA
ATOM     21  H   UNL     1       3.281   0.192  -0.087  0.00  0.00    +0.149 HD
BRANCH  19  22
ATOM     22  C   UNL     1       3.757  -0.558   2.386  0.00  0.00    +0.078 C 
ATOM     23  C   UNL     1       3.734   0.955   2.612  0.00  0.00    +0.032 C 
ATOM     24  C   UNL     1       2.941   1.264   3.886  0.00  0.00    +0.110 C 
ATOM     25  N   UNL     1       3.516   0.496   4.999  0.00  0.00    -0.286 N 
ATOM     26  C   UNL     1       3.668  -0.957   4.850  0.00  0.00    +0.110 C 
ATOM     27  C   UNL     1       4.453  -1.242   3.566  0.00  0.00    +0.032 C 
ATOM     28  C   UNL     1       3.897   1.114   6.135  0.00  0.00    +0.300 C 
ATOM     29  O   UNL     1       3.680   2.301   6.284  0.00  0.00    -0.253 OA
ATOM     30  N   UNL     1       4.518   0.416   7.106  0.00  0.00    -0.313 N 
ATOM     31  H   UNL     1       4.758  -0.512   6.958  0.00  0.00    +0.146 HD
ATOM     32  H   UNL     1       4.725   0.841   7.953  0.00  0.00    +0.146 HD
ENDBRANCH  19  22
ENDBRANCH  17  18
ENDBRANCH   1  17
TORSDOF 6
