REMARK  Name = ZINC35227774
REMARK  11 active torsions:
REMARK  status: ('A' for Active; 'I' for Inactive)
REMARK    1  A    between atoms: C_1  and  C_2
REMARK    2  A    between atoms: C_2  and  S_3
REMARK    3  A    between atoms: S_3  and  C_4
REMARK    4  A    between atoms: C_11  and  C_21
REMARK    5  A    between atoms: C_13  and  C_17
REMARK    6  A    between atoms: C_14  and  C_16
REMARK    7  A    between atoms: C_17  and  O_19
REMARK    8  A    between atoms: O_19  and  C_20
REMARK    9  A    between atoms: C_24  and  O_27
REMARK   10  A    between atoms: O_27  and  C_28
REMARK   11  A    between atoms: C_28  and  C_29
REMARK                            x       y       z     vdW  Elec       q    Type
REMARK                         _______ _______ _______ _____ _____    ______ ____
ROOT
ATOM      1  C   UNL     1       1.154  -2.314   0.932  0.00  0.00    +0.171 A 
ATOM      2  N   UNL     1       0.461  -2.897  -0.025  0.00  0.00    -0.208 NA
ATOM      3  C   UNL     1       0.276  -4.222  -0.034  0.00  0.00    +0.135 A 
ATOM      4  C   UNL     1       0.815  -4.999   0.977  0.00  0.00    +0.069 A 
ATOM      5  C   UNL     1       1.551  -4.374   1.990  0.00  0.00    +0.258 A 
ATOM      6  O   UNL     1       2.042  -5.028   2.896  0.00  0.00    -0.267 OA
ATOM      7  N   UNL     1       1.713  -3.035   1.944  0.00  0.00    -0.302 N 
ATOM      8  C   UNL     1       0.615  -6.488   0.999  0.00  0.00    +0.096 C 
ATOM      9  C   UNL     1       0.150  -6.986  -0.339  0.00  0.00    +0.065 C 
ATOM     10  C   UNL     1      -0.348  -6.160  -1.273  0.00  0.00    +0.017 C 
ATOM     11  N   UNL     1      -0.448  -4.816  -1.052  0.00  0.00    -0.302 N 
ATOM     12  C   UNL     1      -0.804  -6.728  -2.592  0.00  0.00    +0.061 C 
ATOM     13  H   UNL     1      -1.029  -4.276  -1.611  0.00  0.00    +0.153 HD
ATOM     14  H   UNL     1       2.224  -2.584   2.634  0.00  0.00    +0.171 HD
ENDROOT
BRANCH   8  15
ATOM     15  C   UNL     1      -0.418  -6.833   2.041  0.00  0.00    -0.035 A 
ATOM     16  C   UNL     1      -1.700  -6.325   1.937  0.00  0.00    +0.008 A 
ATOM     17  C   UNL     1      -2.648  -6.640   2.891  0.00  0.00    +0.046 A 
ATOM     18  C   UNL     1      -2.314  -7.467   3.953  0.00  0.00    +0.121 A 
ATOM     19  C   UNL     1      -1.027  -7.976   4.055  0.00  0.00    +0.046 A 
ATOM     20  C   UNL     1      -0.084  -7.662   3.095  0.00  0.00    +0.008 A 
BRANCH  18  21
ATOM     21  O   UNL     1      -3.245  -7.778   4.893  0.00  0.00    -0.487 OA
BRANCH  21  22
ATOM     22  C   UNL     1      -2.830  -8.635   5.959  0.00  0.00    +0.264 C 
BRANCH  22  23
ATOM     23  C   UNL     1      -3.987  -8.867   6.896  0.00  0.00    -0.010 A 
ATOM     24  C   UNL     1      -4.192  -8.014   7.964  0.00  0.00    +0.007 A 
ATOM     25  C   UNL     1      -5.254  -8.227   8.825  0.00  0.00    +0.000 A 
ATOM     26  C   UNL     1      -6.109  -9.292   8.616  0.00  0.00    +0.000 A 
ATOM     27  C   UNL     1      -5.904 -10.145   7.548  0.00  0.00    +0.000 A 
ATOM     28  C   UNL     1      -4.846  -9.930   6.685  0.00  0.00    +0.007 A 
ENDBRANCH  22  23
ENDBRANCH  21  22
ENDBRANCH  18  21
ENDBRANCH   8  15
BRANCH   9  29
ATOM     29  C   UNL     1       0.240  -8.368  -0.623  0.00  0.00    +0.337 C 
ATOM     30  O   UNL     1       1.323  -8.871  -0.859  0.00  0.00    -0.245 OA
BRANCH  29  31
ATOM     31  O   UNL     1      -0.875  -9.128  -0.634  0.00  0.00    -0.465 OA
ATOM     32  C   UNL     1      -0.710 -10.517  -0.929  0.00  0.00    +0.280 C 
ENDBRANCH  29  31
ENDBRANCH   9  29
BRANCH   1  33
ATOM     33  S   UNL     1       1.369  -0.565   0.897  0.00  0.00    -0.088 S 
BRANCH  33  35
ATOM     34  C   UNL     1       0.582   1.476  -0.744  0.00  0.00    +0.016 C 
ATOM     35  C   UNL     1       0.475  -0.042  -0.592  0.00  0.00    +0.074 C 
ENDBRANCH  33  35
ENDBRANCH   1  33
TORSDOF 8
