REMARK  Name = ZINC39969149
REMARK  11 active torsions:
REMARK  status: ('A' for Active; 'I' for Inactive)
REMARK    1  A    between atoms: C_1  and  O_2
REMARK    2  A    between atoms: O_2  and  C_3
REMARK    3  A    between atoms: C_8  and  C_13
REMARK    4  A    between atoms: C_13  and  C_34
REMARK    5  A    between atoms: C_14  and  C_15
REMARK    6  A    between atoms: C_17  and  O_32
REMARK    7  A    between atoms: C_18  and  O_22
REMARK    8  A    between atoms: O_22  and  C_23
REMARK    9  A    between atoms: C_23  and  C_24
REMARK   10  A    between atoms: C_29  and  C_30
REMARK   11  A    between atoms: O_32  and  C_33
REMARK                            x       y       z     vdW  Elec       q    Type
REMARK                         _______ _______ _______ _____ _____    ______ ____
ROOT
ATOM      1  C   UNL     1       3.008  -6.309   5.255  0.00  0.00    -0.019 A 
ATOM      2  C   UNL     1       3.397  -7.329   6.131  0.00  0.00    +0.057 A 
ATOM      3  C   UNL     1       2.490  -7.835   7.041  0.00  0.00    +0.163 A 
ATOM      4  C   UNL     1       1.191  -7.332   7.086  0.00  0.00    +0.176 A 
ATOM      5  C   UNL     1       0.803  -6.320   6.217  0.00  0.00    +0.064 A 
ATOM      6  C   UNL     1       1.704  -5.804   5.309  0.00  0.00    +0.027 A 
ATOM      7 BR   UNL     1      -0.961  -5.644   6.284  0.00  0.00    -0.046 Br
ENDROOT
BRANCH   1   9
ATOM      8  C   UNL     1       3.976  -4.444   4.008  0.00  0.00    +0.072 C 
ATOM      9  C   UNL     1       3.969  -5.765   4.283  0.00  0.00    +0.026 C 
BRANCH   8  15
ATOM     10  C   UNL     1       1.966   0.757   3.503  0.00  0.00    +0.122 A 
ATOM     11  C   UNL     1       3.122   1.079   4.330  0.00  0.00    +0.048 A 
ATOM     12  C   UNL     1       3.832   0.125   4.961  0.00  0.00    +0.031 A 
ATOM     13  C   UNL     1       3.444  -1.287   4.822  0.00  0.00    +0.061 A 
ATOM     14  N   UNL     1       3.945  -2.384   5.312  0.00  0.00    -0.359 N 
ATOM     15  C   UNL     1       3.128  -3.501   4.821  0.00  0.00    +0.216 C 
ATOM     16  N   UNL     1       2.081  -2.909   3.979  0.00  0.00    -0.359 N 
ATOM     17  C   UNL     1       2.264  -1.616   3.979  0.00  0.00    +0.064 A 
ATOM     18  C   UNL     1       1.543  -0.519   3.331  0.00  0.00    +0.073 A 
ATOM     19  H   UNL     1       4.718  -2.452   5.894  0.00  0.00    +0.162 HD
ATOM     20  H   UNL     1       1.382  -3.390   3.510  0.00  0.00    +0.162 HD
BRANCH  10  22
ATOM     21  C   UNL     1       1.776   3.091   3.105  0.00  0.00    +0.277 C 
ATOM     22  O   UNL     1       1.292   1.763   2.893  0.00  0.00    -0.495 OA
ENDBRANCH  10  22
ENDBRANCH   8  15
BRANCH   8  23
ATOM     23  C   UNL     1       4.789  -3.939   2.943  0.00  0.00    +0.099 C 
ATOM     24  N   UNL     1       5.434  -3.538   2.098  0.00  0.00    -0.191 NA
ENDBRANCH   8  23
ENDBRANCH   1   9
BRANCH   3  25
ATOM     25  O   UNL     1       2.865  -8.826   7.894  0.00  0.00    -0.491 OA
ATOM     26  C   UNL     1       4.211  -9.295   7.793  0.00  0.00    +0.277 C 
ENDBRANCH   3  25
BRANCH   4  27
ATOM     27  O   UNL     1       0.300  -7.833   7.982  0.00  0.00    -0.483 OA
BRANCH  27  28
ATOM     28  C   UNL     1       0.243  -7.201   9.262  0.00  0.00    +0.266 C 
BRANCH  28  29
ATOM     29  C   UNL     1      -0.793  -7.887  10.115  0.00  0.00    +0.007 A 
ATOM     30  C   UNL     1      -1.503  -8.958   9.613  0.00  0.00    +0.008 A 
ATOM     31  C   UNL     1      -2.454  -9.589  10.394  0.00  0.00    +0.000 A 
ATOM     32  C   UNL     1      -2.701  -9.151  11.684  0.00  0.00    +0.001 A 
ATOM     33  C   UNL     1      -1.999  -8.081  12.198  0.00  0.00    +0.019 A 
ATOM     34  C   UNL     1      -1.032  -7.444  11.417  0.00  0.00    +0.058 A 
BRANCH  34  35
ATOM     35  C   UNL     1      -0.295  -6.336  11.947  0.00  0.00    +0.100 C 
ATOM     36  N   UNL     1       0.290  -5.458  12.367  0.00  0.00    -0.191 NA
ENDBRANCH  34  35
ENDBRANCH  28  29
ENDBRANCH  27  28
ENDBRANCH   4  27
TORSDOF 9
