REMARK  Name = ZINC64045010
REMARK  9 active torsions:
REMARK  status: ('A' for Active; 'I' for Inactive)
REMARK    1  A    between atoms: C_1  and  O_2
REMARK    2  A    between atoms: O_2  and  C_3
REMARK    3  A    between atoms: C_3  and  C_4
REMARK    4  A    between atoms: C_4  and  N_5
REMARK    5  A    between atoms: C_8  and  C_12
REMARK    6  A    between atoms: C_8  and  C_20
REMARK    7  A    between atoms: C_12  and  C_13
REMARK    8  A    between atoms: N_23  and  C_26
REMARK    9  A    between atoms: C_26  and  C_27
REMARK                            x       y       z     vdW  Elec       q    Type
REMARK                         _______ _______ _______ _____ _____    ______ ____
ROOT
ATOM      1  N   UNL     1      -0.515  -2.565   1.245  0.00  0.00    -0.222 N 
ATOM      2  C   UNL     1       0.816  -2.691   1.409  0.00  0.00    +0.247 C 
ATOM      3  O   UNL     1       1.679  -2.471   0.587  0.00  0.00    -0.273 OA
ATOM      4  C   UNL     1       1.011  -3.164   2.836  0.00  0.00    +0.119 C 
ATOM      5  N   UNL     1      -0.363  -3.260   3.359  0.00  0.00    -0.284 N 
ATOM      6  C   UNL     1      -1.182  -2.885   2.360  0.00  0.00    +0.309 C 
ATOM      7  O   UNL     1      -2.393  -2.846   2.458  0.00  0.00    -0.252 OA
ATOM      8  H   UNL     1      -0.626  -3.535   4.252  0.00  0.00    +0.151 HD
ENDROOT
BRANCH   4   9
ATOM      9  C   UNL     1       1.822  -2.144   3.636  0.00  0.00    +0.018 C 
ATOM     10  C   UNL     1       3.240  -2.055   3.064  0.00  0.00    -0.013 C 
ATOM     11  C   UNL     1       4.021  -0.976   3.817  0.00  0.00    -0.078 C 
ATOM     12  N   UNL     1       3.348   0.319   3.662  0.00  0.00    +0.381 N 
ATOM     13  C   UNL     1       2.014   0.263   4.272  0.00  0.00    -0.078 C 
ATOM     14  C   UNL     1       1.155  -0.768   3.537  0.00  0.00    -0.013 C 
ATOM     15  H   UNL     1       3.259   0.535   2.680  0.00  0.00    -0.082 HD
BRANCH  12  16
ATOM     16  C   UNL     1       4.142   1.364   4.321  0.00  0.00    -0.050 C 
BRANCH  16  17
ATOM     17  C   UNL     1       3.508   2.731   4.054  0.00  0.00    +0.086 C 
ATOM     18  C   UNL     1       4.408   3.832   4.568  0.00  0.00    +0.005 C 
ATOM     19  C   UNL     1       4.734   4.583   3.491  0.00  0.00    -0.004 A 
ATOM     20  C   UNL     1       5.567   5.781   3.330  0.00  0.00    +0.010 A 
ATOM     21  C   UNL     1       5.708   6.320   2.098  0.00  0.00    +0.001 A 
ATOM     22  C   UNL     1       5.080   5.765   0.974  0.00  0.00    +0.002 A 
ATOM     23  C   UNL     1       4.300   4.666   1.043  0.00  0.00    +0.026 A 
ATOM     24  C   UNL     1       4.082   4.016   2.289  0.00  0.00    +0.043 A 
ATOM     25  N   UNL     1       3.379   2.956   2.610  0.00  0.00    -0.380 N 
ATOM     26  H   UNL     1       2.861   2.411   1.997  0.00  0.00    +0.160 HD
ENDBRANCH  16  17
ENDBRANCH  12  16
ENDBRANCH   4   9
BRANCH   1  27
ATOM     27  C   UNL     1      -1.154  -2.126   0.002  0.00  0.00    +0.146 C 
BRANCH  27  28
ATOM     28  C   UNL     1      -1.295  -0.603   0.011  0.00  0.00    +0.179 C 
BRANCH  28  30
ATOM     29  C   UNL     1      -0.017   1.425   0.010  0.00  0.00    +0.194 C 
ATOM     30  O   UNL     1       0.002  -0.004   0.002  0.00  0.00    -0.381 OA
ENDBRANCH  28  30
ENDBRANCH  27  28
ENDBRANCH   1  27
BRANCH   4  31
ATOM     31  C   UNL     1       1.692  -4.534   2.860  0.00  0.00    +0.070 C 
BRANCH  31  32
ATOM     32  C   UNL     1       0.844  -5.530   2.112  0.00  0.00    -0.045 A 
ATOM     33  C   UNL     1      -0.126  -6.252   2.781  0.00  0.00    +0.006 A 
ATOM     34  C   UNL     1      -0.904  -7.166   2.095  0.00  0.00    +0.038 A 
ATOM     35  C   UNL     1      -0.712  -7.358   0.738  0.00  0.00    +0.123 A 
ATOM     36  C   UNL     1       0.261  -6.634   0.069  0.00  0.00    +0.038 A 
ATOM     37  C   UNL     1       1.034  -5.717   0.755  0.00  0.00    +0.006 A 
ATOM     38  F   UNL     1      -1.471  -8.251   0.067  0.00  0.00    -0.205 F 
ENDBRANCH  31  32
ENDBRANCH   4  31
TORSDOF 8
