REMARK  Name = ZINC00643758
REMARK  5 active torsions:
REMARK  status: ('A' for Active; 'I' for Inactive)
REMARK    1  A    between atoms: C_1  and  S_2
REMARK    2  A    between atoms: S_2  and  C_3
REMARK    3  A    between atoms: C_5  and  N_23
REMARK    4  A    between atoms: C_6  and  C_13
REMARK    5  A    between atoms: C_13  and  C_15
REMARK                            x       y       z     vdW  Elec       q    Type
REMARK                         _______ _______ _______ _____ _____    ______ ____
ROOT
ATOM      1  C   UNL     1      -1.053   3.009  -0.168  0.00  0.00    +0.112 A 
ATOM      2  C   UNL     1       0.028   3.933  -0.049  0.00  0.00    +0.061 A 
ATOM      3  C   UNL     1      -0.013   5.309   0.237  0.00  0.00    +0.055 A 
ATOM      4  C   UNL     1       1.175   6.020   0.306  0.00  0.00    +0.083 A 
ATOM      5  S   UNL     1       2.404   4.771  -0.033  0.00  0.00    -0.063 S 
ATOM      6  C   UNL     1       1.318   3.384  -0.247  0.00  0.00    +0.117 A 
ATOM      7  N   UNL     1       1.488   2.107  -0.520  0.00  0.00    -0.207 NA
ATOM      8  C   UNL     1       0.443   1.295  -0.619  0.00  0.00    +0.215 A 
ATOM      9  N   UNL     1      -0.795   1.742  -0.450  0.00  0.00    -0.208 NA
ATOM     10  N   UNL     1       0.647  -0.041  -0.907  0.00  0.00    -0.327 N 
ATOM     11  H   UNL     1      -0.212  -0.724  -0.991  0.00  0.00    +0.145 HD
ATOM     12  H   UNL     1       1.669  -0.423  -1.053  0.00  0.00    +0.145 HD
ENDROOT
BRANCH   3  13
ATOM     13  N   UNL     1      -1.226   5.945   0.448  0.00  0.00    -0.356 N 
ATOM     14  H   UNL     1      -1.250   7.022   0.671  0.00  0.00    +0.142 HD
ATOM     15  H   UNL     1      -2.164   5.374   0.391  0.00  0.00    +0.142 HD
ENDBRANCH   3  13
BRANCH   1  17
ATOM     16  C   UNL     1      -3.592   1.989  -0.210  0.00  0.00    +0.091 C 
ATOM     17  S   UNL     1      -2.715   3.550   0.053  0.00  0.00    -0.108 S 
ENDBRANCH   1  17
BRANCH   4  18
ATOM     18  C   UNL     1       1.365   7.391   0.576  0.00  0.00    +0.202 C 
ATOM     19  O   UNL     1       0.403   8.133   0.669  0.00  0.00    -0.286 OA
BRANCH  18  20
ATOM     20  C   UNL     1       2.733   7.928   0.747  0.00  0.00    +0.024 A 
ATOM     21  C   UNL     1       2.986   9.283   0.526  0.00  0.00    +0.013 A 
ATOM     22  C   UNL     1       4.263   9.779   0.688  0.00  0.00    +0.022 A 
ATOM     23  C   UNL     1       5.293   8.936   1.068  0.00  0.00    +0.059 A 
ATOM     24  C   UNL     1       5.049   7.590   1.288  0.00  0.00    +0.060 A 
ATOM     25  C   UNL     1       3.774   7.083   1.134  0.00  0.00    +0.033 A 
ATOM     26 CL   UNL     1       6.347   6.540   1.765  0.00  0.00    -0.082 Cl
ATOM     27 CL   UNL     1       6.898   9.568   1.269  0.00  0.00    -0.082 Cl
ENDBRANCH  18  20
ENDBRANCH   4  18
TORSDOF 4
