REMARK  Name = ZINC17122097
REMARK  10 active torsions:
REMARK  status: ('A' for Active; 'I' for Inactive)
REMARK    1  A    between atoms: C_1  and  C_2
REMARK    2  A    between atoms: N_11  and  C_12
REMARK    3  A    between atoms: C_12  and  C_13
REMARK    4  A    between atoms: C_13  and  C_14
REMARK    5  A    between atoms: C_14  and  N_15
REMARK    6  A    between atoms: N_15  and  C_16
REMARK    7  A    between atoms: N_15  and  C_17
REMARK    8  A    between atoms: C_18  and  C_20
REMARK    9  A    between atoms: C_23  and  S_26
REMARK   10  A    between atoms: S_26  and  N_29
REMARK                            x       y       z     vdW  Elec       q    Type
REMARK                         _______ _______ _______ _____ _____    ______ ____
ROOT
ATOM      1  C   UNL     1       1.028   1.470   1.211  0.00  0.00    +0.044 C 
ATOM      2  C   UNL     1       0.777  -0.003   1.012  0.00  0.00    -0.049 A 
ATOM      3  C   UNL     1       0.565  -0.512  -0.262  0.00  0.00    +0.005 A 
ATOM      4  C   UNL     1       0.335  -1.846  -0.471  0.00  0.00    +0.029 A 
ATOM      5  C   UNL     1       0.305  -2.753   0.614  0.00  0.00    +0.080 A 
ATOM      6  C   UNL     1       0.524  -2.199   1.896  0.00  0.00    +0.041 A 
ATOM      7  C   UNL     1       0.759  -0.862   2.095  0.00  0.00    +0.020 A 
ATOM      8  S   UNL     1       0.409  -3.626   2.949  0.00  0.00    -0.052 S 
ATOM      9  C   UNL     1       0.088  -4.827   1.665  0.00  0.00    +0.168 A 
ATOM     10  N   UNL     1       0.092  -4.086   0.581  0.00  0.00    -0.224 NA
ATOM     11  N   UNL     1      -0.114  -6.191   1.784  0.00  0.00    -0.246 N 
ATOM     12  C   UNL     1      -0.080  -6.775   2.998  0.00  0.00    +0.252 C 
ATOM     13  O   UNL     1       0.053  -6.093   3.996  0.00  0.00    -0.270 OA
ENDROOT
BRANCH  12  14
ATOM     14  C   UNL     1      -0.205  -8.242   3.117  0.00  0.00    +0.037 A 
ATOM     15  C   UNL     1       0.430  -9.077   2.195  0.00  0.00    +0.015 A 
ATOM     16  C   UNL     1       0.309 -10.446   2.312  0.00  0.00    +0.029 A 
ATOM     17  C   UNL     1      -0.440 -10.993   3.339  0.00  0.00    +0.106 A 
ATOM     18  C   UNL     1      -1.072 -10.171   4.255  0.00  0.00    +0.029 A 
ATOM     19  C   UNL     1      -0.954  -8.801   4.154  0.00  0.00    +0.015 A 
BRANCH  17  20
ATOM     20  S   UNL     1      -0.589 -12.743   3.480  0.00  0.00    +0.061 S 
ATOM     21  O   UNL     1      -1.788 -12.991   4.201  0.00  0.00    -0.153 OA
ATOM     22  O   UNL     1      -0.356 -13.276   2.183  0.00  0.00    -0.153 OA
BRANCH  20  23
ATOM     23  N   UNL     1       0.656 -13.265   4.438  0.00  0.00    -0.177 NA
ATOM     24  C   UNL     1       1.909 -13.623   3.812  0.00  0.00    +0.109 C 
ATOM     25  C   UNL     1       1.887 -15.123   3.425  0.00  0.00    +0.017 C 
ATOM     26  C   UNL     1       1.966 -15.962   4.631  0.00  0.00    +0.001 C 
ATOM     27  C   UNL     1       0.788 -15.801   5.587  0.00  0.00    +0.001 C 
ATOM     28  C   UNL     1       1.042 -14.628   6.501  0.00  0.00    +0.017 C 
ATOM     29  C   UNL     1       0.444 -13.340   5.896  0.00  0.00    +0.109 C 
ENDBRANCH  20  23
ENDBRANCH  17  20
ENDBRANCH  12  14
BRANCH  11  30
ATOM     30  C   UNL     1      -0.364  -7.001   0.589  0.00  0.00    +0.114 C 
BRANCH  30  31
ATOM     31  C   UNL     1       0.939  -7.169  -0.196  0.00  0.00    +0.001 C 
BRANCH  31  32
ATOM     32  C   UNL     1       0.713  -8.137  -1.359  0.00  0.00    -0.078 C 
BRANCH  32  33
ATOM     33  N   UNL     1       1.964  -8.298  -2.112  0.00  0.00    +0.376 N 
ATOM     34  C   UNL     1       2.970  -8.944  -1.258  0.00  0.00    -0.097 C 
ATOM     35  C   UNL     1       1.719  -9.131  -3.296  0.00  0.00    -0.097 C 
ATOM     36  H   UNL     1       2.301  -7.392  -2.402  0.00  0.00    -0.083 HD
ENDBRANCH  32  33
ENDBRANCH  31  32
ENDBRANCH  30  31
ENDBRANCH  11  30
TORSDOF 7
