REMARK  Name = ZINC39918689
REMARK  9 active torsions:
REMARK  status: ('A' for Active; 'I' for Inactive)
REMARK    1  A    between atoms: C_1  and  C_2
REMARK    2  A    between atoms: N_8  and  C_9
REMARK    3  A    between atoms: C_9  and  C_10
REMARK    4  A    between atoms: N_23  and  C_26
REMARK    5  A    between atoms: C_26  and  C_27
REMARK    6  A    between atoms: C_27  and  C_28
REMARK    7  A    between atoms: C_27  and  C_29
REMARK    8  A    between atoms: C_30  and  C_34
REMARK    9  A    between atoms: C_31  and  N_33
REMARK                            x       y       z     vdW  Elec       q    Type
REMARK                         _______ _______ _______ _____ _____    ______ ____
ROOT
ATOM      1  C   UNL     1      -0.166   1.476   0.015  0.00  0.00    +0.064 C 
ATOM      2  C   UNL     1      -0.067  -0.027   0.011  0.00  0.00    +0.023 A 
ATOM      3  C   UNL     1      -0.166  -0.698  -1.157  0.00  0.00    +0.068 A 
ATOM      4  C   UNL     1      -0.074  -2.105  -1.168  0.00  0.00    +0.142 A 
ATOM      5  C   UNL     1       0.115  -2.770   0.026  0.00  0.00    +0.084 A 
ATOM      6  C   UNL     1       0.212  -2.033   1.213  0.00  0.00    +0.260 A 
ATOM      7  O   UNL     1       0.380  -2.608   2.276  0.00  0.00    -0.267 OA
ATOM      8  N   UNL     1       0.127  -0.690   1.181  0.00  0.00    -0.308 N 
ATOM      9  C   UNL     1       0.214  -4.269   0.058  0.00  0.00    +0.147 C 
ATOM     10  C   UNL     1       1.617  -4.706   0.343  0.00  0.00    -0.001 A 
ATOM     11  C   UNL     1       2.793  -4.510  -0.350  0.00  0.00    +0.007 A 
ATOM     12  C   UNL     1       3.947  -5.058   0.199  0.00  0.00    +0.000 A 
ATOM     13  C   UNL     1       3.914  -5.765   1.384  0.00  0.00    +0.002 A 
ATOM     14  C   UNL     1       2.736  -5.965   2.086  0.00  0.00    +0.024 A 
ATOM     15  C   UNL     1       1.570  -5.420   1.546  0.00  0.00    +0.041 A 
ATOM     16  N   UNL     1       0.274  -5.464   2.028  0.00  0.00    -0.270 N 
ATOM     17  C   UNL     1      -0.589  -4.814   1.220  0.00  0.00    +0.240 C 
ATOM     18  O   UNL     1      -1.783  -4.690   1.393  0.00  0.00    -0.274 OA
ATOM     19  C   UNL     1      -0.283  -4.860  -1.230  0.00  0.00    +0.110 C 
ATOM     20  C   UNL     1      -0.444  -4.093  -2.335  0.00  0.00    +0.199 C 
ATOM     21  O   UNL     1      -0.170  -2.778  -2.334  0.00  0.00    -0.441 OA
ENDROOT
BRANCH  20  22
ATOM     22  N   UNL     1      -0.903  -4.677  -3.490  0.00  0.00    -0.328 N 
ATOM     23  H   UNL     1      -1.106  -5.625  -3.506  0.00  0.00    +0.145 HD
ATOM     24  H   UNL     1      -1.024  -4.141  -4.289  0.00  0.00    +0.145 HD
ENDBRANCH  20  22
BRANCH  19  25
ATOM     25  C   UNL     1      -0.590  -6.258  -1.290  0.00  0.00    +0.102 C 
ATOM     26  N   UNL     1      -0.834  -7.366  -1.339  0.00  0.00    -0.191 NA
ENDBRANCH  19  25
BRANCH   8  27
ATOM     27  C   UNL     1       0.240   0.070   2.429  0.00  0.00    +0.160 C 
BRANCH  27  28
ATOM     28  C   UNL     1       1.680   0.449   2.658  0.00  0.00    -0.028 A 
ATOM     29  C   UNL     1       2.544  -0.446   3.261  0.00  0.00    +0.005 A 
ATOM     30  C   UNL     1       3.865  -0.097   3.471  0.00  0.00    +0.000 A 
ATOM     31  C   UNL     1       4.323   1.146   3.077  0.00  0.00    +0.000 A 
ATOM     32  C   UNL     1       3.459   2.041   2.473  0.00  0.00    +0.000 A 
ATOM     33  C   UNL     1       2.139   1.691   2.259  0.00  0.00    +0.005 A 
ENDBRANCH  27  28
ENDBRANCH   8  27
BRANCH  16  34
ATOM     34  C   UNL     1      -0.115  -6.137   3.270  0.00  0.00    +0.116 C 
BRANCH  34  35
ATOM     35  C   UNL     1      -0.019  -5.152   4.436  0.00  0.00    +0.001 C 
ATOM     36  C   UNL     1      -0.543  -5.816   5.710  0.00  0.00    +0.009 C 
ATOM     37  C   UNL     1       1.441  -4.741   4.638  0.00  0.00    +0.009 C 
ENDBRANCH  34  35
ENDBRANCH  16  34
TORSDOF 6
