REMARK  Name = ZINC59385091
REMARK  6 active torsions:
REMARK  status: ('A' for Active; 'I' for Inactive)
REMARK    1  A    between atoms: C_1  and  C_2
REMARK    2  A    between atoms: C_3  and  C_17
REMARK    3  A    between atoms: C_4  and  C_10
REMARK    4  A    between atoms: C_13  and  O_16
REMARK    5  A    between atoms: N_19  and  N_20
REMARK    6  A    between atoms: C_21  and  C_22
REMARK                            x       y       z     vdW  Elec       q    Type
REMARK                         _______ _______ _______ _____ _____    ______ ____
ROOT
ATOM      1  C   UNL     1       0.654   1.353   0.049  0.00  0.00    +0.061 C 
ATOM      2  C   UNL     1       0.363  -0.126   0.026  0.00  0.00    +0.017 C 
ATOM      3  C   UNL     1      -0.917  -0.549  -0.037  0.00  0.00    +0.057 C 
ATOM      4  C   UNL     1      -1.165  -2.044  -0.058  0.00  0.00    +0.139 C 
ATOM      5  N   UNL     1       0.019  -2.918  -0.007  0.00  0.00    -0.315 N 
ATOM      6  C   UNL     1       1.237  -2.344   0.054  0.00  0.00    +0.135 C 
ATOM      7  S   UNL     1       2.623  -3.348   0.114  0.00  0.00    -0.019 S 
ATOM      8  N   UNL     1       1.399  -1.015   0.065  0.00  0.00    -0.300 N 
ATOM      9  H   UNL     1      -0.075  -3.883  -0.017  0.00  0.00    +0.149 HD
ATOM     10  H   UNL     1       2.302  -0.664   0.106  0.00  0.00    +0.154 HD
ENDROOT
BRANCH   4  11
ATOM     11  C   UNL     1      -1.929  -2.371  -1.316  0.00  0.00    -0.022 A 
ATOM     12  C   UNL     1      -1.282  -2.361  -2.538  0.00  0.00    +0.009 A 
ATOM     13  C   UNL     1      -1.980  -2.659  -3.692  0.00  0.00    +0.046 A 
ATOM     14  C   UNL     1      -3.331  -2.970  -3.624  0.00  0.00    +0.117 A 
ATOM     15  C   UNL     1      -3.977  -2.979  -2.397  0.00  0.00    +0.046 A 
ATOM     16  C   UNL     1      -3.273  -2.685  -1.245  0.00  0.00    +0.009 A 
BRANCH  14  17
ATOM     17  O   UNL     1      -4.019  -3.263  -4.758  0.00  0.00    -0.507 OA
ATOM     18  H   UNL     1      -4.017  -4.203  -4.988  0.00  0.00    +0.292 HD
ENDBRANCH  14  17
ENDBRANCH   4  11
BRANCH   3  19
ATOM     19  C   UNL     1      -1.992   0.372  -0.082  0.00  0.00    +0.263 C 
ATOM     20  O   UNL     1      -2.656   0.582   0.917  0.00  0.00    -0.269 OA
ATOM     21  N   UNL     1      -2.279   1.016  -1.231  0.00  0.00    -0.203 N 
ATOM     22  H   UNL     1      -1.800   0.795  -2.044  0.00  0.00    +0.178 HD
BRANCH  21  23
ATOM     23  N   UNL     1      -3.271   2.005  -1.249  0.00  0.00    -0.187 NA
ATOM     24  C   UNL     1      -3.549   2.625  -2.355  0.00  0.00    +0.139 C 
BRANCH  24  25
ATOM     25  C   UNL     1      -4.593   3.666  -2.375  0.00  0.00    +0.013 A 
ATOM     26  C   UNL     1      -4.898   4.332  -3.565  0.00  0.00    +0.011 A 
ATOM     27  C   UNL     1      -5.876   5.304  -3.576  0.00  0.00    +0.001 A 
ATOM     28  C   UNL     1      -6.555   5.622  -2.413  0.00  0.00    +0.001 A 
ATOM     29  C   UNL     1      -6.259   4.968  -1.230  0.00  0.00    +0.020 A 
ATOM     30  C   UNL     1      -5.286   3.988  -1.205  0.00  0.00    +0.050 A 
ATOM     31 CL   UNL     1      -4.920   3.163   0.278  0.00  0.00    -0.083 Cl
ENDBRANCH  24  25
ENDBRANCH  21  23
ENDBRANCH   3  19
TORSDOF 5
