REMARK  Name = ZINC00675747
REMARK  10 active torsions:
REMARK  status: ('A' for Active; 'I' for Inactive)
REMARK    1  A    between atoms: C_1  and  C_2
REMARK    2  A    between atoms: C_2  and  N_3
REMARK    3  A    between atoms: N_3  and  C_4
REMARK    4  A    between atoms: N_3  and  C_6
REMARK    5  A    between atoms: C_4  and  C_5
REMARK    6  A    between atoms: C_9  and  C_13
REMARK    7  A    between atoms: C_10  and  O_12
REMARK    8  A    between atoms: N_14  and  N_15
REMARK    9  A    between atoms: C_16  and  C_18
REMARK   10  A    between atoms: N_21  and  C_23
REMARK                            x       y       z     vdW  Elec       q    Type
REMARK                         _______ _______ _______ _____ _____    ______ ____
ROOT
ATOM      1  C   UNL     1       5.976   3.222  -0.039  0.00  0.00    +0.033 A 
ATOM      2  C   UNL     1       5.994   1.830  -0.046  0.00  0.00    +0.024 A 
ATOM      3  C   UNL     1       4.812   1.123  -0.038  0.00  0.00    +0.015 A 
ATOM      4  C   UNL     1       3.591   1.802  -0.022  0.00  0.00    +0.036 A 
ATOM      5  C   UNL     1       3.575   3.205  -0.021  0.00  0.00    +0.127 A 
ATOM      6  C   UNL     1       4.767   3.906  -0.024  0.00  0.00    +0.069 A 
ENDROOT
BRANCH   5   7
ATOM      7  O   UNL     1       2.392   3.872  -0.011  0.00  0.00    -0.506 OA
ATOM      8  H   UNL     1       2.056   4.065   0.875  0.00  0.00    +0.292 HD
ENDBRANCH   5   7
BRANCH   4   9
ATOM      9  C   UNL     1       2.326   1.049  -0.015  0.00  0.00    +0.142 C 
ATOM     10  N   UNL     1       1.193   1.683  -0.000  0.00  0.00    -0.187 NA
BRANCH  10  11
ATOM     11  N   UNL     1      -0.011   0.966   0.007  0.00  0.00    -0.202 N 
ATOM     12  C   UNL     1      -1.187   1.624   0.017  0.00  0.00    +0.284 C 
ATOM     13  O   UNL     1      -1.204   2.840   0.023  0.00  0.00    -0.267 OA
ATOM     14  H   UNL     1       0.002  -0.004   0.002  0.00  0.00    +0.178 HD
BRANCH  12  15
ATOM     15  C   UNL     1      -2.456   0.868   0.018  0.00  0.00    +0.162 A 
ATOM     16  C   UNL     1      -3.762   1.415   0.028  0.00  0.00    +0.063 A 
ATOM     17  C   UNL     1      -4.599   0.350   0.026  0.00  0.00    +0.123 A 
ATOM     18  N   UNL     1      -3.832  -0.762   0.016  0.00  0.00    -0.273 N 
ATOM     19  N   UNL     1      -2.588  -0.444   0.006  0.00  0.00    -0.166 NA
ATOM     20  C   UNL     1      -4.346  -2.134   0.012  0.00  0.00    +0.172 C 
ATOM     21  I   UNL     1      -4.288   3.442   0.041  0.00  0.00    -0.040 I 
ENDBRANCH  12  15
ENDBRANCH  10  11
ENDBRANCH   4   9
BRANCH   1  22
ATOM     22  N   UNL     1       7.176   3.932  -0.048  0.00  0.00    -0.330 N 
BRANCH  22  24
ATOM     23  C   UNL     1       8.882   2.970  -1.513  0.00  0.00    +0.024 C 
ATOM     24  C   UNL     1       8.453   3.213  -0.065  0.00  0.00    +0.102 C 
ENDBRANCH  22  24
BRANCH  22  25
ATOM     25  C   UNL     1       7.161   5.397  -0.041  0.00  0.00    +0.102 C 
ATOM     26  C   UNL     1       7.170   5.900   1.404  0.00  0.00    +0.024 C 
ENDBRANCH  22  25
ENDBRANCH   1  22
TORSDOF 7
