REMARK  Name = ZINC12895529
REMARK  8 active torsions:
REMARK  status: ('A' for Active; 'I' for Inactive)
REMARK    1  A    between atoms: C_1  and  N_2
REMARK    2  A    between atoms: N_2  and  S_3
REMARK    3  A    between atoms: S_3  and  C_6
REMARK    4  A    between atoms: C_6  and  C_7
REMARK    5  A    between atoms: C_12  and  C_13
REMARK    6  A    between atoms: C_13  and  N_14
REMARK    7  A    between atoms: C_15  and  C_17
REMARK    8  A    between atoms: C_17  and  N_18
REMARK                            x       y       z     vdW  Elec       q    Type
REMARK                         _______ _______ _______ _____ _____    ______ ____
ROOT
ATOM      1  N   UNL     1       6.754   2.324  -3.937  0.00  0.00    -0.310 N 
ATOM      2  C   UNL     1       6.038   1.802  -2.922  0.00  0.00    +0.231 C 
ATOM      3  O   UNL     1       5.085   2.408  -2.479  0.00  0.00    -0.274 OA
ATOM      4  H   UNL     1       7.516   1.839  -4.292  0.00  0.00    +0.149 HD
ENDROOT
BRANCH   1   5
ATOM      5  C   UNL     1       6.383   3.622  -4.506  0.00  0.00    +0.140 C 
BRANCH   5  11
ATOM      6  C   UNL     1       7.174   3.413  -6.871  0.00  0.00    -0.020 A 
ATOM      7  C   UNL     1       8.046   3.740  -7.893  0.00  0.00    +0.005 A 
ATOM      8  C   UNL     1       9.085   4.621  -7.660  0.00  0.00    +0.000 A 
ATOM      9  C   UNL     1       9.249   5.179  -6.405  0.00  0.00    +0.000 A 
ATOM     10  C   UNL     1       8.375   4.856  -5.385  0.00  0.00    +0.005 A 
ATOM     11  C   UNL     1       7.336   3.974  -5.618  0.00  0.00    -0.026 A 
BRANCH   6  12
ATOM     12  C   UNL     1       6.045   2.447  -7.124  0.00  0.00    +0.220 C 
BRANCH  12  13
ATOM     13  S   UNL     1       4.580   3.362  -7.679  0.00  0.00    +0.033 S 
ATOM     14  O   UNL     1       4.075   4.165  -6.621  0.00  0.00    -0.158 OA
ATOM     15  O   UNL     1       4.810   3.920  -8.965  0.00  0.00    -0.158 OA
BRANCH  13  17
ATOM     16  C   UNL     1       2.915   1.427  -6.787  0.00  0.00    +0.127 C 
ATOM     17  N   UNL     1       3.421   2.204  -7.920  0.00  0.00    -0.197 NA
ATOM     18  H   UNL     1       3.078   2.041  -8.813  0.00  0.00    +0.147 HD
ENDBRANCH  13  17
ENDBRANCH  12  13
ENDBRANCH   6  12
ENDBRANCH   5  11
ENDBRANCH   1   5
BRANCH   2  19
ATOM     19  C   UNL     1       6.420   0.467  -2.337  0.00  0.00    +0.213 C 
BRANCH  19  20
ATOM     20  N   UNL     1       5.494   0.124  -1.256  0.00  0.00    -0.215 N 
ATOM     21  C   UNL     1       4.348  -0.566  -1.429  0.00  0.00    +0.251 C 
ATOM     22  O   UNL     1       3.905  -1.002  -2.470  0.00  0.00    -0.272 OA
ATOM     23  C   UNL     1       3.731  -0.679  -0.053  0.00  0.00    +0.138 C 
ATOM     24  C   UNL     1       3.614  -2.143   0.354  0.00  0.00    +0.040 C 
ATOM     25  C   UNL     1       2.490  -2.786  -0.467  0.00  0.00    +0.008 C 
ATOM     26  C   UNL     1       1.157  -2.199  -0.006  0.00  0.00    +0.035 C 
ATOM     27  C   UNL     1       1.207  -0.693  -0.013  0.00  0.00    -0.042 A 
ATOM     28  C   UNL     1       2.394   0.007  -0.026  0.00  0.00    -0.012 A 
ATOM     29  C   UNL     1       2.373   1.395  -0.016  0.00  0.00    +0.006 A 
ATOM     30  C   UNL     1       1.174   2.078   0.002  0.00  0.00    +0.000 A 
ATOM     31  C   UNL     1      -0.017   1.376   0.010  0.00  0.00    +0.000 A 
ATOM     32  C   UNL     1       0.002  -0.004   0.002  0.00  0.00    +0.004 A 
ATOM     33  N   UNL     1       4.682   0.022   0.820  0.00  0.00    -0.281 N 
ATOM     34  C   UNL     1       5.679   0.456   0.028  0.00  0.00    +0.310 C 
ATOM     35  O   UNL     1       6.641   1.081   0.432  0.00  0.00    -0.252 OA
ATOM     36  H   UNL     1       4.606   0.147   1.779  0.00  0.00    +0.152 HD
ENDBRANCH  19  20
ENDBRANCH   2  19
TORSDOF 7
