REMARK  Name = ZINC40796886
REMARK  5 active torsions:
REMARK  status: ('A' for Active; 'I' for Inactive)
REMARK    1  A    between atoms: C_7  and  O_11
REMARK    2  A    between atoms: O_11  and  C_12
REMARK    3  A    between atoms: C_13  and  N_26
REMARK    4  A    between atoms: C_14  and  N_18
REMARK    5  A    between atoms: N_18  and  C_19
REMARK                            x       y       z     vdW  Elec       q    Type
REMARK                         _______ _______ _______ _____ _____    ______ ____
ROOT
ATOM      1  C   UNL     1       4.642  -2.845  -1.116  0.00  0.00    +0.246 A 
ATOM      2  C   UNL     1       4.681  -4.220  -0.883  0.00  0.00    +0.128 A 
ATOM      3  C   UNL     1       5.930  -4.834  -0.767  0.00  0.00    +0.151 A 
ATOM      4  N   UNL     1       7.027  -4.090  -0.881  0.00  0.00    -0.218 NA
ATOM      5  C   UNL     1       6.945  -2.793  -1.101  0.00  0.00    +0.227 A 
ATOM      6  N   UNL     1       5.786  -2.177  -1.222  0.00  0.00    -0.199 NA
ENDROOT
BRANCH   2   7
ATOM      7  N   UNL     1       3.497  -4.965  -0.769  0.00  0.00    -0.351 N 
ATOM      8  H   UNL     1       2.637  -4.525  -0.852  0.00  0.00    +0.143 HD
ATOM      9  H   UNL     1       3.540  -5.920  -0.607  0.00  0.00    +0.143 HD
ENDBRANCH   2   7
BRANCH   3  10
ATOM     10  N   UNL     1       6.026  -6.201  -0.534  0.00  0.00    -0.295 N 
ATOM     11  H   UNL     1       5.225  -6.721  -0.362  0.00  0.00    +0.154 HD
BRANCH  10  12
ATOM     12  C   UNL     1       7.276  -6.827  -0.549  0.00  0.00    +0.070 A 
ATOM     13  C   UNL     1       8.371  -6.205  -1.144  0.00  0.00    +0.028 A 
ATOM     14  C   UNL     1       9.589  -6.865  -1.132  0.00  0.00    +0.022 A 
ATOM     15  C   UNL     1       9.678  -8.109  -0.536  0.00  0.00    +0.112 A 
ATOM     16  N   UNL     1       8.623  -8.672   0.019  0.00  0.00    -0.242 NA
ATOM     17  C   UNL     1       7.446  -8.078   0.036  0.00  0.00    +0.150 A 
ATOM     18 CL   UNL     1       6.095  -8.866   0.788  0.00  0.00    -0.060 Cl
ENDBRANCH  10  12
ENDBRANCH   3  10
BRANCH   1  19
ATOM     19  O   UNL     1       3.454  -2.201  -1.238  0.00  0.00    -0.434 OA
BRANCH  19  26
ATOM     20  C   UNL     1       3.795   0.424  -5.456  0.00  0.00    +0.020 A 
ATOM     21  C   UNL     1       3.714   1.375  -4.478  0.00  0.00    +0.013 A 
ATOM     22  C   UNL     1       3.606   0.946  -3.143  0.00  0.00    +0.018 A 
ATOM     23  C   UNL     1       3.518   1.866  -2.084  0.00  0.00    +0.027 A 
ATOM     24  C   UNL     1       3.413   1.414  -0.803  0.00  0.00    +0.019 A 
ATOM     25  C   UNL     1       3.392   0.050  -0.525  0.00  0.00    +0.049 A 
ATOM     26  C   UNL     1       3.476  -0.874  -1.528  0.00  0.00    +0.156 A 
ATOM     27  C   UNL     1       3.585  -0.443  -2.867  0.00  0.00    +0.114 A 
ATOM     28  N   UNL     1       3.668  -1.321  -3.869  0.00  0.00    -0.251 NA
ATOM     29  C   UNL     1       3.769  -0.926  -5.116  0.00  0.00    +0.111 A 
ATOM     30 BR   UNL     1       3.545   3.724  -2.435  0.00  0.00    -0.050 Br
ENDBRANCH  19  26
ENDBRANCH   1  19
TORSDOF 5
