REMARK  Name = ZINC39609416
REMARK  12 active torsions:
REMARK  status: ('A' for Active; 'I' for Inactive)
REMARK    1  A    between atoms: C_1  and  C_2
REMARK    2  A    between atoms: C_2  and  O_3
REMARK    3  A    between atoms: O_3  and  C_4
REMARK    4  A    between atoms: C_8  and  C_10
REMARK    5  A    between atoms: C_10  and  C_11
REMARK    6  A    between atoms: C_11  and  N_12
REMARK    7  A    between atoms: C_13  and  C_15
REMARK    8  A    between atoms: C_26  and  C_28
REMARK    9  A    between atoms: C_30  and  O_36
REMARK   10  A    between atoms: C_32  and  O_34
REMARK   11  A    between atoms: O_34  and  C_35
REMARK   12  A    between atoms: O_36  and  C_37
REMARK                            x       y       z     vdW  Elec       q    Type
REMARK                         _______ _______ _______ _____ _____    ______ ____
ROOT
ATOM      1  C   UNL     1       1.705  -5.152  -8.446  0.00  0.00    +0.100 C 
ATOM      2  C   UNL     1       2.877  -4.392  -9.107  0.00  0.00    +0.121 C 
ATOM      3  N   UNL     1       2.738  -4.674 -10.555  0.00  0.00    -0.296 N 
ATOM      4  C   UNL     1       1.276  -4.629 -10.800  0.00  0.00    +0.115 C 
ATOM      5  C   UNL     1       0.656  -5.304  -9.560  0.00  0.00    -0.004 C 
ATOM      6  C   UNL     1      -0.638  -4.599  -9.168  0.00  0.00    -0.010 C 
ATOM      7  C   UNL     1      -1.685  -4.814 -10.265  0.00  0.00    -0.082 C 
ATOM      8  N   UNL     1      -1.922  -6.252 -10.442  0.00  0.00    +0.379 N 
ATOM      9  C   UNL     1      -0.695  -6.908 -10.909  0.00  0.00    -0.082 C 
ATOM     10  C   UNL     1       0.393  -6.781  -9.839  0.00  0.00    -0.010 C 
ATOM     11  C   UNL     1       3.718  -4.916 -11.448  0.00  0.00    +0.247 C 
ATOM     12  O   UNL     1       4.866  -5.047 -11.069  0.00  0.00    -0.270 OA
ATOM     13  H   UNL     1      -2.203  -6.656  -9.561  0.00  0.00    -0.086 HD
ATOM     14  H   UNL     1      -2.655  -6.390 -11.121  0.00  0.00    -0.086 HD
ENDROOT
BRANCH  11  15
ATOM     15  C   UNL     1       3.397  -5.023 -12.887  0.00  0.00    +0.044 A 
ATOM     16  C   UNL     1       2.219  -4.465 -13.385  0.00  0.00    +0.059 A 
ATOM     17  C   UNL     1       1.923  -4.567 -14.734  0.00  0.00    +0.124 A 
ATOM     18  C   UNL     1       2.795  -5.223 -15.590  0.00  0.00    +0.091 A 
ATOM     19  C   UNL     1       3.967  -5.779 -15.100  0.00  0.00    +0.124 A 
ATOM     20  C   UNL     1       4.274  -5.677 -13.753  0.00  0.00    +0.059 A 
BRANCH  19  21
ATOM     21  O   UNL     1       4.819  -6.421 -15.943  0.00  0.00    -0.495 OA
ATOM     22  C   UNL     1       4.443  -6.485 -17.320  0.00  0.00    +0.277 C 
ENDBRANCH  19  21
BRANCH  17  23
ATOM     23  O   UNL     1       0.775  -4.024 -15.219  0.00  0.00    -0.495 OA
ATOM     24  C   UNL     1       0.532  -4.167 -16.620  0.00  0.00    +0.277 C 
ENDBRANCH  17  23
ENDBRANCH  11  15
BRANCH   1  26
ATOM     25  N   UNL     1       0.585  -4.983  -6.247  0.00  0.00    -0.315 N 
ATOM     26  C   UNL     1       1.141  -4.352  -7.301  0.00  0.00    +0.218 C 
ATOM     27  O   UNL     1       1.187  -3.140  -7.326  0.00  0.00    -0.275 OA
ATOM     28  H   UNL     1       0.548  -5.952  -6.227  0.00  0.00    +0.149 HD
BRANCH  25  29
ATOM     29  C   UNL     1       0.036  -4.205  -5.134  0.00  0.00    +0.109 C 
BRANCH  29  30
ATOM     30  C   UNL     1      -0.529  -5.157  -4.077  0.00  0.00    +0.054 C 
BRANCH  30  35
ATOM     31  C   UNL     1      -0.807  -3.283  -0.808  0.00  0.00    +0.121 A 
ATOM     32  C   UNL     1      -2.137  -2.888  -0.830  0.00  0.00    +0.045 A 
ATOM     33  C   UNL     1      -2.939  -3.228  -1.901  0.00  0.00    +0.004 A 
ATOM     34  C   UNL     1      -2.418  -3.962  -2.952  0.00  0.00    +0.004 A 
ATOM     35  C   UNL     1      -1.094  -4.357  -2.932  0.00  0.00    -0.042 A 
ATOM     36  C   UNL     1      -0.285  -4.015  -1.865  0.00  0.00    +0.049 A 
BRANCH  31  37
ATOM     37  O   UNL     1      -0.015  -2.950   0.245  0.00  0.00    -0.492 OA
BRANCH  37  39
ATOM     38  C   UNL     1       0.419  -1.917   2.387  0.00  0.00    +0.048 C 
ATOM     39  C   UNL     1      -0.620  -2.196   1.298  0.00  0.00    +0.225 C 
ENDBRANCH  37  39
ENDBRANCH  31  37
ENDBRANCH  30  35
ENDBRANCH  29  30
ENDBRANCH  25  29
ENDBRANCH   1  26
TORSDOF 9
