REMARK  Name = ZINC08645316
REMARK  7 active torsions:
REMARK  status: ('A' for Active; 'I' for Inactive)
REMARK    1  A    between atoms: C_3  and  C_9
REMARK    2  A    between atoms: C_12  and  S_15
REMARK    3  A    between atoms: N_13  and  N_14
REMARK    4  A    between atoms: S_15  and  C_16
REMARK    5  A    between atoms: C_16  and  C_17
REMARK    6  A    between atoms: N_19  and  C_20
REMARK    7  A    between atoms: C_25  and  N_26
REMARK                            x       y       z     vdW  Elec       q    Type
REMARK                         _______ _______ _______ _____ _____    ______ ____
ROOT
ATOM      1  C   UNL     1      -0.014  -0.844   1.094  0.00  0.00    +0.183 A 
ATOM      2  N   UNL     1      -0.011  -2.074   0.636  0.00  0.00    -0.127 NA
ATOM      3  N   UNL     1      -0.013  -2.063  -0.649  0.00  0.00    -0.121 NA
ATOM      4  C   UNL     1      -0.024  -0.826  -1.090  0.00  0.00    +0.209 A 
ATOM      5  N   UNL     1      -0.019  -0.006   0.003  0.00  0.00    -0.224 N 
ENDROOT
BRANCH   1   8
ATOM      6  C   UNL     1      -0.012   1.294   4.182  0.00  0.00    +0.021 A 
ATOM      7  C   UNL     1      -0.009   0.918   2.855  0.00  0.00    +0.014 A 
ATOM      8  C   UNL     1      -0.012  -0.435   2.515  0.00  0.00    +0.039 A 
ATOM      9  C   UNL     1      -0.007  -1.402   3.523  0.00  0.00    +0.053 A 
ATOM     10  C   UNL     1      -0.005  -1.014   4.848  0.00  0.00    +0.040 A 
ATOM     11  C   UNL     1      -0.007   0.331   5.177  0.00  0.00    +0.042 A 
ATOM     12 CL   UNL     1      -0.004   0.812   6.845  0.00  0.00    -0.083 Cl
ATOM     13 CL   UNL     1      -0.003  -3.089   3.111  0.00  0.00    -0.083 Cl
ENDBRANCH   1   8
BRANCH   5  14
ATOM     14  N   UNL     1      -0.024   1.360   0.010  0.00  0.00    -0.295 N 
ATOM     15  H   UNL     1       0.917   1.725   0.011  0.00  0.00    +0.163 HD
ATOM     16  H   UNL     1      -0.553   1.724  -0.768  0.00  0.00    +0.163 HD
ENDBRANCH   5  14
BRANCH   4  17
ATOM     17  S   UNL     1      -0.037  -0.318  -2.777  0.00  0.00    -0.075 S 
BRANCH  17  18
ATOM     18  C   UNL     1      -0.037  -1.934  -3.592  0.00  0.00    +0.173 C 
BRANCH  18  19
ATOM     19  C   UNL     1      -0.048  -1.743  -5.087  0.00  0.00    +0.228 C 
ATOM     20  O   UNL     1      -0.054  -0.624  -5.555  0.00  0.00    -0.275 OA
ATOM     21  N   UNL     1      -0.050  -2.815  -5.904  0.00  0.00    -0.283 N 
ATOM     22  H   UNL     1       0.037  -3.707  -5.533  0.00  0.00    +0.155 HD
BRANCH  21  23
ATOM     23  C   UNL     1      -0.177  -2.641  -7.287  0.00  0.00    +0.064 A 
ATOM     24  C   UNL     1      -0.805  -1.510  -7.791  0.00  0.00    +0.027 A 
ATOM     25  C   UNL     1      -0.929  -1.341  -9.156  0.00  0.00    +0.022 A 
ATOM     26  C   UNL     1      -0.427  -2.297 -10.021  0.00  0.00    +0.043 A 
ATOM     27  C   UNL     1       0.199  -3.425  -9.521  0.00  0.00    +0.054 A 
ATOM     28  C   UNL     1       0.330  -3.597  -8.157  0.00  0.00    +0.149 A 
ATOM     29 CL   UNL     1      -0.585  -2.082 -11.736  0.00  0.00    -0.083 Cl
BRANCH  28  30
ATOM     30  N   UNL     1       1.006  -4.801  -7.623  0.00  0.00    +0.058 N 
ATOM     31  O   UNL     1       1.530  -5.594  -8.385  0.00  0.00    -0.126 OA
ATOM     32  O   UNL     1       1.039  -4.999  -6.422  0.00  0.00    -0.126 OA
ENDBRANCH  28  30
ENDBRANCH  21  23
ENDBRANCH  18  19
ENDBRANCH  17  18
ENDBRANCH   4  17
TORSDOF 7
