REMARK  Name = ZINC09847594
REMARK  7 active torsions:
REMARK  status: ('A' for Active; 'I' for Inactive)
REMARK    1  A    between atoms: C_6  and  N_7
REMARK    2  A    between atoms: C_8  and  C_28
REMARK    3  A    between atoms: C_11  and  S_12
REMARK    4  A    between atoms: S_12  and  C_13
REMARK    5  A    between atoms: C_13  and  C_14
REMARK    6  A    between atoms: N_16  and  C_17
REMARK    7  A    between atoms: C_18  and  C_25
REMARK                            x       y       z     vdW  Elec       q    Type
REMARK                         _______ _______ _______ _____ _____    ______ ____
ROOT
ATOM      1  S   UNL     1      -0.860   1.669   1.497  0.00  0.00    -0.076 S 
ENDROOT
BRANCH   1   6
ATOM      2  N   UNL     1       0.016   1.077   4.088  0.00  0.00    -0.270 N 
ATOM      3  C   UNL     1       1.053   0.360   4.646  0.00  0.00    +0.169 A 
ATOM      4  N   UNL     1       1.761  -0.127   3.653  0.00  0.00    -0.128 NA
ATOM      5  N   UNL     1       1.246   0.225   2.530  0.00  0.00    -0.122 NA
ATOM      6  C   UNL     1       0.174   0.961   2.735  0.00  0.00    +0.197 A 
BRANCH   2  12
ATOM      7  C   UNL     1      -0.666   2.880   5.547  0.00  0.00    +0.029 A 
ATOM      8  C   UNL     1      -1.661   3.572   6.210  0.00  0.00    +0.040 A 
ATOM      9  C   UNL     1      -2.979   3.161   6.107  0.00  0.00    +0.124 A 
ATOM     10  C   UNL     1      -3.304   2.059   5.333  0.00  0.00    +0.040 A 
ATOM     11  C   UNL     1      -2.313   1.368   4.664  0.00  0.00    +0.029 A 
ATOM     12  C   UNL     1      -0.991   1.778   4.767  0.00  0.00    +0.051 A 
ATOM     13  F   UNL     1      -3.949   3.836   6.761  0.00  0.00    -0.205 F 
ENDBRANCH   2  12
BRANCH   3  14
ATOM     14  C   UNL     1       1.320   0.179   6.087  0.00  0.00    +0.022 A 
ATOM     15  C   UNL     1       0.343   0.482   7.044  0.00  0.00    +0.031 A 
ATOM     16  C   UNL     1       0.633   0.293   8.379  0.00  0.00    +0.111 A 
ATOM     17  N   UNL     1       1.815  -0.155   8.758  0.00  0.00    -0.263 NA
ATOM     18  C   UNL     1       2.765  -0.447   7.891  0.00  0.00    +0.111 A 
ATOM     19  C   UNL     1       2.559  -0.294   6.536  0.00  0.00    +0.031 A 
ENDBRANCH   3  14
ENDBRANCH   1   6
BRANCH   1  20
ATOM     20  C   UNL     1      -0.013   1.086   0.008  0.00  0.00    +0.173 C 
BRANCH  20  21
ATOM     21  C   UNL     1      -0.742   1.585  -1.213  0.00  0.00    +0.228 C 
ATOM     22  O   UNL     1      -1.736   2.268  -1.088  0.00  0.00    -0.275 OA
ATOM     23  N   UNL     1      -0.288   1.272  -2.443  0.00  0.00    -0.279 N 
ATOM     24  H   UNL     1       0.507   0.726  -2.543  0.00  0.00    +0.155 HD
BRANCH  23  25
ATOM     25  C   UNL     1      -0.959   1.732  -3.566  0.00  0.00    +0.084 A 
ATOM     26  C   UNL     1      -0.648   1.523  -4.899  0.00  0.00    +0.068 A 
ATOM     27  C   UNL     1      -1.530   2.121  -5.902  0.00  0.00    -0.023 A 
ATOM     28  C   UNL     1      -2.560   2.829  -5.406  0.00  0.00    -0.004 A 
ATOM     29  S   UNL     1      -2.384   2.711  -3.643  0.00  0.00    -0.077 S 
ATOM     30  C   UNL     1      -3.418   3.414  -6.496  0.00  0.00    +0.043 C 
ATOM     31  C   UNL     1      -3.035   2.617  -7.762  0.00  0.00    +0.010 C 
ATOM     32  C   UNL     1      -1.598   2.168  -7.429  0.00  0.00    +0.037 C 
BRANCH  26  33
ATOM     33  C   UNL     1       0.520   0.729  -5.292  0.00  0.00    +0.244 C 
ATOM     34  O   UNL     1       0.412  -0.472  -5.457  0.00  0.00    -0.270 OA
ATOM     35  N   UNL     1       1.714   1.329  -5.469  0.00  0.00    -0.325 N 
ATOM     36  H   UNL     1       1.800   2.286  -5.337  0.00  0.00    +0.145 HD
ATOM     37  H   UNL     1       2.487   0.803  -5.728  0.00  0.00    +0.145 HD
ENDBRANCH  26  33
ENDBRANCH  23  25
ENDBRANCH  20  21
ENDBRANCH   1  20
TORSDOF 7
