REMARK  Name = ZINC17072076
REMARK  5 active torsions:
REMARK  status: ('A' for Active; 'I' for Inactive)
REMARK    1  A    between atoms: C_1  and  C_2
REMARK    2  A    between atoms: C_2  and  C_18
REMARK    3  A    between atoms: N_3  and  N_4
REMARK    4  A    between atoms: C_5  and  C_7
REMARK    5  A    between atoms: C_7  and  C_8
REMARK                            x       y       z     vdW  Elec       q    Type
REMARK                         _______ _______ _______ _____ _____    ______ ____
ROOT
ATOM      1  N   UNL     1       2.400  -4.192  -0.043  0.00  0.00    -0.206 N 
ATOM      2  C   UNL     1       3.577  -4.848  -0.057  0.00  0.00    +0.237 C 
ATOM      3  O   UNL     1       4.618  -4.225  -0.064  0.00  0.00    -0.274 OA
ATOM      4  H   UNL     1       1.567  -4.690  -0.037  0.00  0.00    +0.177 HD
ENDROOT
BRANCH   1   7
ATOM      5  C   UNL     1      -0.049  -2.933  -0.012  0.00  0.00    +0.068 C 
ATOM      6  C   UNL     1       1.244  -2.160  -0.021  0.00  0.00    +0.063 C 
ATOM      7  N   UNL     1       2.378  -2.791  -0.035  0.00  0.00    -0.185 NA
BRANCH   6   8
ATOM      8  C   UNL     1       1.222  -0.686  -0.013  0.00  0.00    +0.001 A 
ATOM      9  C   UNL     1       0.002  -0.004   0.002  0.00  0.00    +0.013 A 
ATOM     10  C   UNL     1      -0.017   1.374   0.010  0.00  0.00    +0.050 A 
ATOM     11  C   UNL     1       1.173   2.089   0.002  0.00  0.00    +0.166 A 
ATOM     12  C   UNL     1       2.393   1.415  -0.013  0.00  0.00    +0.167 A 
ATOM     13  C   UNL     1       2.419   0.033  -0.021  0.00  0.00    +0.059 A 
ATOM     14  O   UNL     1       3.400   2.337  -0.019  0.00  0.00    -0.453 OA
ATOM     15  C   UNL     1       2.785   3.576  -0.417  0.00  0.00    +0.466 C 
ATOM     16  O   UNL     1       1.417   3.432   0.008  0.00  0.00    -0.453 OA
ENDBRANCH   6   8
ENDBRANCH   1   7
BRANCH   2  17
ATOM     17  C   UNL     1       3.600  -6.355  -0.065  0.00  0.00    +0.133 C 
BRANCH  17  18
ATOM     18  C   UNL     1       5.029  -6.835  -0.082  0.00  0.00    -0.031 A 
ATOM     19  C   UNL     1       5.633  -7.144  -1.261  0.00  0.00    +0.005 A 
ATOM     20  C   UNL     1       6.953  -7.590  -1.296  0.00  0.00    +0.001 A 
ATOM     21  C   UNL     1       7.676  -7.728  -0.152  0.00  0.00    +0.008 A 
ATOM     22  C   UNL     1       7.087  -7.418   1.085  0.00  0.00    -0.018 A 
ATOM     23  C   UNL     1       5.745  -6.960   1.120  0.00  0.00    -0.014 A 
ATOM     24  C   UNL     1       5.154  -6.654   2.358  0.00  0.00    +0.009 A 
ATOM     25  C   UNL     1       5.878  -6.793   3.503  0.00  0.00    +0.001 A 
ATOM     26  C   UNL     1       7.197  -7.239   3.468  0.00  0.00    +0.001 A 
ATOM     27  C   UNL     1       7.802  -7.549   2.288  0.00  0.00    +0.008 A 
ENDBRANCH  17  18
ENDBRANCH   2  17
TORSDOF 4
