REMARK  Name = ZINC09270534
REMARK  13 active torsions:
REMARK  status: ('A' for Active; 'I' for Inactive)
REMARK    1  A    between atoms: C_1  and  N_59
REMARK    2  A    between atoms: C_2  and  N_59
REMARK    3  A    between atoms: C_3  and  C_4
REMARK    4  A    between atoms: C_3  and  N_59
REMARK    5  A    between atoms: C_4  and  C_5
REMARK    6  A    between atoms: C_5  and  N_6
REMARK    7  A    between atoms: C_7  and  C_26
REMARK    8  A    between atoms: C_10  and  C_11
REMARK    9  A    between atoms: C_10  and  O_21
REMARK   10  A    between atoms: C_14  and  O_19
REMARK   11  A    between atoms: C_15  and  O_17
REMARK   12  A    between atoms: O_17  and  C_18
REMARK   13  A    between atoms: O_19  and  C_20
REMARK                            x       y       z     vdW  Elec       q    Type
REMARK                         _______ _______ _______ _____ _____    ______ ____
ROOT
ATOM      1  N   UNL     1      -1.178   0.955  -1.078  0.00  0.00    -0.284 N 
ATOM      2  C   UNL     1      -0.227   0.810   0.028  0.00  0.00    +0.144 C 
ATOM      3  C   UNL     1      -0.928   1.309   1.271  0.00  0.00    +0.071 C 
ATOM      4  C   UNL     1      -0.412   1.360   2.551  0.00  0.00    +0.133 C 
ATOM      5  C   UNL     1      -2.209   1.710   0.861  0.00  0.00    +0.249 C 
ATOM      6  O   UNL     1      -3.077   2.171   1.579  0.00  0.00    -0.282 OA
ATOM      7  C   UNL     1      -2.323   1.473  -0.604  0.00  0.00    +0.288 C 
ATOM      8  O   UNL     1      -3.308   1.714  -1.273  0.00  0.00    -0.266 OA
ENDROOT
BRANCH   2   9
ATOM      9  C   UNL     1       1.004   1.637  -0.238  0.00  0.00    -0.022 A 
ATOM     10  C   UNL     1       0.885   2.888  -0.815  0.00  0.00    +0.007 A 
ATOM     11  C   UNL     1       2.013   3.649  -1.055  0.00  0.00    +0.015 A 
ATOM     12  C   UNL     1       3.263   3.155  -0.726  0.00  0.00    +0.018 A 
ATOM     13  C   UNL     1       3.382   1.902  -0.153  0.00  0.00    +0.015 A 
ATOM     14  C   UNL     1       2.252   1.143   0.091  0.00  0.00    +0.007 A 
ATOM     15 BR   UNL     1       4.808   4.193  -1.060  0.00  0.00    -0.050 Br
ENDBRANCH   2   9
BRANCH   4  16
ATOM     16  C   UNL     1      -1.174   2.014   3.626  0.00  0.00    +0.021 A 
ATOM     17  C   UNL     1      -1.671   3.310   3.446  0.00  0.00    +0.015 A 
ATOM     18  C   UNL     1      -2.388   3.918   4.452  0.00  0.00    +0.050 A 
ATOM     19  C   UNL     1      -2.612   3.252   5.650  0.00  0.00    +0.162 A 
ATOM     20  C   UNL     1      -2.115   1.962   5.840  0.00  0.00    +0.162 A 
ATOM     21  C   UNL     1      -1.399   1.344   4.834  0.00  0.00    +0.061 A 
BRANCH  20  22
ATOM     22  O   UNL     1      -2.336   1.315   7.015  0.00  0.00    -0.491 OA
ATOM     23  C   UNL     1      -1.798  -0.004   7.139  0.00  0.00    +0.277 C 
ENDBRANCH  20  22
BRANCH  19  24
ATOM     24  O   UNL     1      -3.315   3.859   6.641  0.00  0.00    -0.491 OA
ATOM     25  C   UNL     1      -3.795   5.179   6.380  0.00  0.00    +0.277 C 
ENDBRANCH  19  24
ENDBRANCH   4  16
BRANCH   4  26
ATOM     26  O   UNL     1       0.793   0.810   2.816  0.00  0.00    -0.506 OA
ATOM     27  H   UNL     1       1.012   0.937   3.783  0.00  0.00    +0.292 HD
ENDBRANCH   4  26
BRANCH   1  28
ATOM     28  C   UNL     1      -0.921   0.593  -2.474  0.00  0.00    +0.107 C 
BRANCH  28  29
ATOM     29  C   UNL     1      -1.329  -0.863  -2.707  0.00  0.00    +0.000 C 
BRANCH  29  30
ATOM     30  C   UNL     1      -1.061  -1.241  -4.165  0.00  0.00    -0.078 C 
BRANCH  30  33
ATOM     31  C   UNL     1      -2.905  -2.808  -4.245  0.00  0.00    -0.097 C 
ATOM     32  C   UNL     1      -0.995  -3.111  -5.702  0.00  0.00    -0.097 C 
ATOM     33  N   UNL     1      -1.440  -2.655  -4.368  0.00  0.00    +0.376 N 
ATOM     34  H   UNL     1      -0.983  -3.230  -3.650  0.00  0.00    -0.083 HD
ENDBRANCH  30  33
ENDBRANCH  29  30
ENDBRANCH  28  29
ENDBRANCH   1  28
TORSDOF 9
