REMARK  Name = ZINC04720886
REMARK  7 active torsions:
REMARK  status: ('A' for Active; 'I' for Inactive)
REMARK    1  A    between atoms: C_1  and  C_2
REMARK    2  A    between atoms: C_6  and  C_9
REMARK    3  A    between atoms: C_7  and  O_8
REMARK    4  A    between atoms: N_10  and  N_11
REMARK    5  A    between atoms: C_12  and  C_14
REMARK    6  A    between atoms: C_14  and  O_15
REMARK    7  A    between atoms: O_15  and  C_16
REMARK                            x       y       z     vdW  Elec       q    Type
REMARK                         _______ _______ _______ _____ _____    ______ ____
ROOT
ATOM      1  N   UNL     1       3.909  -2.193  -0.049  0.00  0.00    -0.204 N 
ATOM      2  C   UNL     1       3.713  -0.860  -0.040  0.00  0.00    +0.270 C 
ATOM      3  O   UNL     1       4.664  -0.107  -0.044  0.00  0.00    -0.270 OA
ATOM      4  H   UNL     1       3.148  -2.795  -0.045  0.00  0.00    +0.177 HD
ENDROOT
BRANCH   1   6
ATOM      5  C   UNL     1       5.400  -3.994  -0.074  0.00  0.00    +0.142 C 
ATOM      6  N   UNL     1       5.211  -2.710  -0.065  0.00  0.00    -0.188 NA
BRANCH   5  12
ATOM      7  C   UNL     1      10.343  -3.265  -0.119  0.00  0.00    +0.047 C 
ATOM      8  C   UNL     1       9.155  -4.191  -0.112  0.00  0.00    -0.008 A 
ATOM      9  C   UNL     1       9.347  -5.560  -0.122  0.00  0.00    +0.007 A 
ATOM     10  C   UNL     1       8.262  -6.420  -0.116  0.00  0.00    +0.001 A 
ATOM     11  C   UNL     1       6.978  -5.918  -0.100  0.00  0.00    +0.013 A 
ATOM     12  C   UNL     1       6.770  -4.537  -0.090  0.00  0.00    +0.036 A 
ATOM     13  C   UNL     1       7.872  -3.670  -0.102  0.00  0.00    +0.128 A 
BRANCH  13  14
ATOM     14  O   UNL     1       7.682  -2.326  -0.099  0.00  0.00    -0.506 OA
ATOM     15  H   UNL     1       7.637  -1.937   0.786  0.00  0.00    +0.292 HD
ENDBRANCH  13  14
ENDBRANCH   5  12
ENDBRANCH   1   6
BRANCH   2  16
ATOM     16  C   UNL     1       2.312  -0.304  -0.023  0.00  0.00    +0.326 C 
BRANCH  16  17
ATOM     17  O   UNL     1       2.366   1.123  -0.015  0.00  0.00    -0.481 OA
BRANCH  17  18
ATOM     18  C   UNL     1       1.179   1.786   0.000  0.00  0.00    +0.140 A 
ATOM     19  C   UNL     1      -0.013   1.076   0.008  0.00  0.00    +0.048 A 
ATOM     20  C   UNL     1      -1.218   1.751   0.017  0.00  0.00    +0.023 A 
ATOM     21  C   UNL     1      -1.238   3.134   0.031  0.00  0.00    +0.043 A 
ATOM     22  C   UNL     1      -0.051   3.845   0.023  0.00  0.00    +0.043 A 
ATOM     23  C   UNL     1       1.157   3.174   0.008  0.00  0.00    +0.084 A 
ATOM     24 CL   UNL     1       2.647   4.066  -0.002  0.00  0.00    -0.080 Cl
ATOM     25 CL   UNL     1      -2.754   3.979   0.049  0.00  0.00    -0.083 Cl
ENDBRANCH  17  18
ENDBRANCH  16  17
ENDBRANCH   2  16
TORSDOF 6
