REMARK  Name = ZINC10067685
REMARK  9 active torsions:
REMARK  status: ('A' for Active; 'I' for Inactive)
REMARK    1  A    between atoms: C_1  and  N_60
REMARK    2  A    between atoms: C_2  and  N_60
REMARK    3  A    between atoms: C_3  and  C_4
REMARK    4  A    between atoms: C_3  and  N_60
REMARK    5  A    between atoms: C_4  and  C_5
REMARK    6  A    between atoms: C_5  and  N_6
REMARK    7  A    between atoms: C_17  and  C_19
REMARK    8  A    between atoms: C_22  and  S_25
REMARK    9  A    between atoms: S_25  and  N_28
REMARK                            x       y       z     vdW  Elec       q    Type
REMARK                         _______ _______ _______ _____ _____    ______ ____
ROOT
ATOM      1  N   UNL     1      -0.146   0.189  -0.539  0.00  0.00    -0.246 N 
ATOM      2  C   UNL     1      -1.191  -0.655  -0.204  0.00  0.00    +0.168 A 
ATOM      3  N   UNL     1      -2.265  -0.395   0.504  0.00  0.00    -0.224 NA
ATOM      4  C   UNL     1      -3.213  -1.324   0.755  0.00  0.00    +0.080 A 
ATOM      5  C   UNL     1      -4.407  -1.175   1.498  0.00  0.00    +0.030 A 
ATOM      6  C   UNL     1      -5.268  -2.229   1.658  0.00  0.00    +0.022 A 
ATOM      7  C   UNL     1      -5.003  -3.473   1.102  0.00  0.00    +0.042 A 
ATOM      8  C   UNL     1      -3.844  -3.655   0.369  0.00  0.00    +0.037 A 
ATOM      9  C   UNL     1      -2.976  -2.604   0.204  0.00  0.00    +0.042 A 
ATOM     10  S   UNL     1      -1.425  -2.374  -0.633  0.00  0.00    -0.052 S 
ATOM     11 CL   UNL     1      -6.115  -4.788   1.324  0.00  0.00    -0.084 Cl
ATOM     12  C   UNL     1      -0.154   1.470  -0.121  0.00  0.00    +0.252 C 
ATOM     13  O   UNL     1      -1.105   1.901   0.501  0.00  0.00    -0.270 OA
ENDROOT
BRANCH  12  14
ATOM     14  C   UNL     1       0.992   2.353  -0.424  0.00  0.00    +0.037 A 
ATOM     15  C   UNL     1       2.268   1.814  -0.589  0.00  0.00    +0.015 A 
ATOM     16  C   UNL     1       3.332   2.643  -0.876  0.00  0.00    +0.029 A 
ATOM     17  C   UNL     1       3.138   4.008  -0.990  0.00  0.00    +0.106 A 
ATOM     18  C   UNL     1       1.876   4.551  -0.822  0.00  0.00    +0.029 A 
ATOM     19  C   UNL     1       0.803   3.732  -0.540  0.00  0.00    +0.015 A 
BRANCH  17  20
ATOM     20  S   UNL     1       4.504   5.062  -1.351  0.00  0.00    +0.061 S 
ATOM     21  O   UNL     1       5.478   4.256  -2.001  0.00  0.00    -0.153 OA
ATOM     22  O   UNL     1       3.966   6.235  -1.945  0.00  0.00    -0.153 OA
BRANCH  20  23
ATOM     23  N   UNL     1       5.162   5.523   0.097  0.00  0.00    -0.177 NA
ATOM     24  C   UNL     1       4.782   6.714   0.871  0.00  0.00    +0.109 C 
ATOM     25  C   UNL     1       5.675   6.747   2.129  0.00  0.00    +0.018 C 
ATOM     26  C   UNL     1       6.898   5.891   1.708  0.00  0.00    +0.018 C 
ATOM     27  C   UNL     1       6.231   4.810   0.821  0.00  0.00    +0.109 C 
ENDBRANCH  20  23
ENDBRANCH  17  20
ENDBRANCH  12  14
BRANCH   1  28
ATOM     28  C   UNL     1       0.968  -0.310  -1.349  0.00  0.00    +0.114 C 
BRANCH  28  29
ATOM     29  C   UNL     1       1.842  -1.234  -0.499  0.00  0.00    +0.001 C 
BRANCH  29  30
ATOM     30  C   UNL     1       3.006  -1.756  -1.344  0.00  0.00    -0.078 C 
BRANCH  30  33
ATOM     31  C   UNL     1       4.830  -3.348  -1.359  0.00  0.00    -0.097 C 
ATOM     32  C   UNL     1       4.505  -1.897   0.552  0.00  0.00    -0.097 C 
ATOM     33  N   UNL     1       3.828  -2.663  -0.516  0.00  0.00    +0.376 N 
ATOM     34  H   UNL     1       3.217  -3.367  -0.085  0.00  0.00    -0.083 HD
ENDBRANCH  30  33
ENDBRANCH  29  30
ENDBRANCH  28  29
ENDBRANCH   1  28
TORSDOF 7
