REMARK  Name = ZINC36014184
REMARK  8 active torsions:
REMARK  status: ('A' for Active; 'I' for Inactive)
REMARK    1  A    between atoms: C_1  and  C_2
REMARK    2  A    between atoms: C_2  and  C_3
REMARK    3  A    between atoms: C_2  and  C_4
REMARK    4  A    between atoms: C_2  and  N_5
REMARK    5  A    between atoms: C_15  and  C_28
REMARK    6  A    between atoms: N_19  and  C_20
REMARK    7  A    between atoms: C_20  and  C_21
REMARK    8  A    between atoms: C_28  and  C_29
REMARK                            x       y       z     vdW  Elec       q    Type
REMARK                         _______ _______ _______ _____ _____    ______ ____
ROOT
ATOM      1  N   UNL     1       4.626   1.000  -0.563  0.00  0.00    -0.294 N 
ATOM      2  C   UNL     1       3.697   0.165  -1.069  0.00  0.00    +0.303 C 
ATOM      3  O   UNL     1       2.763  -0.195  -0.379  0.00  0.00    -0.253 OA
ATOM      4  N   UNL     1       3.803  -0.271  -2.340  0.00  0.00    -0.286 N 
ATOM      5  C   UNL     1       2.732  -1.073  -2.948  0.00  0.00    +0.109 C 
ATOM      6  C   UNL     1       3.339  -2.368  -3.498  0.00  0.00    +0.025 C 
ATOM      7  C   UNL     1       4.492  -2.028  -4.439  0.00  0.00    +0.006 C 
ATOM      8  C   UNL     1       5.579  -1.258  -3.691  0.00  0.00    +0.025 C 
ATOM      9  C   UNL     1       4.989   0.051  -3.145  0.00  0.00    +0.109 C 
ATOM     10  N   UNL     1       5.059  -3.271  -5.003  0.00  0.00    +0.401 N 
ATOM     11  C   UNL     1       4.306  -3.441  -6.269  0.00  0.00    +0.023 C 
ATOM     12  C   UNL     1       3.882  -2.041  -6.656  0.00  0.00    +0.201 C 
ATOM     13  O   UNL     1       3.498  -1.694  -7.753  0.00  0.00    -0.277 OA
ATOM     14  N   UNL     1       4.004  -1.242  -5.575  0.00  0.00    -0.309 N 
ATOM     15  H   UNL     1       5.407   1.233  -1.089  0.00  0.00    +0.151 HD
ATOM     16  H   UNL     1       6.045  -3.162  -5.187  0.00  0.00    -0.082 HD
ATOM     17  H   UNL     1       4.895  -4.051  -4.383  0.00  0.00    -0.082 HD
ENDROOT
BRANCH   1  19
ATOM     18  C   UNL     1       4.390   0.417   1.800  0.00  0.00    +0.031 C 
ATOM     19  C   UNL     1       4.457   1.557   0.781  0.00  0.00    +0.028 C 
ATOM     20  C   UNL     1       3.161   2.368   0.838  0.00  0.00    +0.031 C 
ATOM     21  C   UNL     1       5.642   2.466   1.110  0.00  0.00    +0.031 C 
ENDBRANCH   1  19
BRANCH  14  22
ATOM     22  C   UNL     1       3.696   0.190  -5.543  0.00  0.00    +0.141 C 
BRANCH  22  23
ATOM     23  C   UNL     1       4.818   0.961  -6.188  0.00  0.00    -0.030 A 
ATOM     24  C   UNL     1       5.814   1.516  -5.406  0.00  0.00    +0.008 A 
ATOM     25  C   UNL     1       6.844   2.222  -5.997  0.00  0.00    +0.038 A 
ATOM     26  C   UNL     1       6.879   2.374  -7.373  0.00  0.00    +0.123 A 
ATOM     27  C   UNL     1       5.881   1.818  -8.155  0.00  0.00    +0.038 A 
ATOM     28  C   UNL     1       4.855   1.107  -7.563  0.00  0.00    +0.008 A 
ATOM     29  F   UNL     1       7.886   3.065  -7.952  0.00  0.00    -0.205 F 
ENDBRANCH  22  23
ENDBRANCH  14  22
BRANCH  11  30
ATOM     30  C   UNL     1       5.206  -4.045  -7.348  0.00  0.00    +0.028 C 
BRANCH  30  31
ATOM     31  C   UNL     1       5.606  -5.441  -6.945  0.00  0.00    -0.048 A 
ATOM     32  C   UNL     1       6.750  -5.643  -6.196  0.00  0.00    +0.003 A 
ATOM     33  C   UNL     1       7.117  -6.923  -5.826  0.00  0.00    +0.000 A 
ATOM     34  C   UNL     1       6.340  -8.002  -6.205  0.00  0.00    +0.000 A 
ATOM     35  C   UNL     1       5.195  -7.800  -6.953  0.00  0.00    +0.000 A 
ATOM     36  C   UNL     1       4.826  -6.519  -7.319  0.00  0.00    +0.003 A 
ENDBRANCH  30  31
ENDBRANCH  11  30
TORSDOF 5
