REMARK  Name = ZINC20527942
REMARK  7 active torsions:
REMARK  status: ('A' for Active; 'I' for Inactive)
REMARK    1  A    between atoms: C_3  and  C_9
REMARK    2  A    between atoms: N_10  and  N_11
REMARK    3  A    between atoms: C_15  and  S_18
REMARK    4  A    between atoms: N_16  and  N_17
REMARK    5  A    between atoms: S_18  and  C_19
REMARK    6  A    between atoms: C_19  and  C_20
REMARK    7  A    between atoms: N_22  and  C_23
REMARK                            x       y       z     vdW  Elec       q    Type
REMARK                         _______ _______ _______ _____ _____    ______ ____
ROOT
ATOM      1  N   UNL     1      -4.034  13.071  -0.660  0.00  0.00    -0.204 N 
ATOM      2  C   UNL     1      -3.318  11.887  -0.551  0.00  0.00    +0.254 A 
ATOM      3  N   UNL     1      -2.013  11.778  -0.498  0.00  0.00    -0.109 NA
ATOM      4  N   UNL     1      -1.696  10.418  -0.386  0.00  0.00    -0.119 NA
ATOM      5  C   UNL     1      -2.819   9.739  -0.382  0.00  0.00    +0.210 A 
ATOM      6  N   UNL     1      -3.850  10.630  -0.481  0.00  0.00    -0.211 N 
ATOM      7  H   UNL     1      -5.133  13.047  -0.697  0.00  0.00    +0.177 HD
ENDROOT
BRANCH   6   8
ATOM      8  N   UNL     1      -5.180  10.318  -0.505  0.00  0.00    -0.294 N 
ATOM      9  H   UNL     1      -5.501   9.268  -0.443  0.00  0.00    +0.163 HD
ATOM     10  H   UNL     1      -5.931  11.118  -0.588  0.00  0.00    +0.163 HD
ENDBRANCH   6   8
BRANCH   1  12
ATOM     11  C   UNL     1      -4.026  15.403  -0.824  0.00  0.00    +0.139 C 
ATOM     12  N   UNL     1      -3.357  14.295  -0.722  0.00  0.00    -0.187 NA
BRANCH  11  15
ATOM     13  C   UNL     1      -3.358  19.088  -1.061  0.00  0.00    +0.021 A 
ATOM     14  C   UNL     1      -4.031  17.886  -1.000  0.00  0.00    +0.012 A 
ATOM     15  C   UNL     1      -3.314  16.692  -0.890  0.00  0.00    +0.013 A 
ATOM     16  C   UNL     1      -1.917  16.726  -0.838  0.00  0.00    +0.051 A 
ATOM     17  C   UNL     1      -1.256  17.936  -0.906  0.00  0.00    +0.040 A 
ATOM     18  C   UNL     1      -1.974  19.115  -1.015  0.00  0.00    +0.042 A 
ATOM     19 CL   UNL     1      -1.136  20.633  -1.093  0.00  0.00    -0.083 Cl
ATOM     20 CL   UNL     1      -1.015  15.249  -0.694  0.00  0.00    -0.083 Cl
ENDBRANCH  11  15
ENDBRANCH   1  12
BRANCH   5  21
ATOM     21  S   UNL     1      -2.971   7.988  -0.264  0.00  0.00    -0.075 S 
BRANCH  21  22
ATOM     22  C   UNL     1      -1.256   7.405  -0.164  0.00  0.00    +0.173 C 
BRANCH  22  23
ATOM     23  C   UNL     1      -1.242   5.902  -0.058  0.00  0.00    +0.227 C 
ATOM     24  O   UNL     1      -2.286   5.284  -0.050  0.00  0.00    -0.275 OA
ATOM     25  N   UNL     1      -0.069   5.243   0.029  0.00  0.00    -0.285 N 
ATOM     26  H   UNL     1       0.873   5.806   0.110  0.00  0.00    +0.155 HD
BRANCH  25  27
ATOM     27  C   UNL     1      -0.050   3.844   0.017  0.00  0.00    +0.036 A 
ATOM     28  C   UNL     1      -0.989   3.142  -0.727  0.00  0.00    +0.043 A 
ATOM     29  C   UNL     1      -0.968   1.760  -0.738  0.00  0.00    +0.044 A 
ATOM     30  C   UNL     1      -0.012   1.076  -0.007  0.00  0.00    +0.040 A 
ATOM     31  C   UNL     1       0.921   1.773   0.740  0.00  0.00    +0.044 A 
ATOM     32  C   UNL     1       0.908   3.155   0.749  0.00  0.00    +0.043 A 
ATOM     33 CL   UNL     1       2.114   0.911   1.661  0.00  0.00    -0.083 Cl
ATOM     34 CL   UNL     1      -2.141   0.882  -1.668  0.00  0.00    -0.083 Cl
ENDBRANCH  25  27
ENDBRANCH  22  23
ENDBRANCH  21  22
ENDBRANCH   5  21
TORSDOF 7
