REMARK  Name = ZINC12508823
REMARK  11 active torsions:
REMARK  status: ('A' for Active; 'I' for Inactive)
REMARK    1  A    between atoms: C_1  and  C_2
REMARK    2  A    between atoms: C_2  and  C_4
REMARK    3  A    between atoms: C_2  and  N_58
REMARK    4  A    between atoms: C_4  and  C_5
REMARK    5  A    between atoms: C_5  and  C_6
REMARK    6  A    between atoms: C_21  and  S_27
REMARK    7  A    between atoms: C_22  and  C_23
REMARK    8  A    between atoms: C_23  and  O_25
REMARK    9  A    between atoms: O_25  and  C_26
REMARK   10  A    between atoms: S_27  and  N_30
REMARK   11  A    between atoms: N_30  and  C_31
REMARK                            x       y       z     vdW  Elec       q    Type
REMARK                         _______ _______ _______ _____ _____    ______ ____
ROOT
ATOM      1  C   UNL     1       4.054   8.717  -0.513  0.00  0.00    -0.073 C 
ATOM      2  C   UNL     1       5.146   8.382   0.508  0.00  0.00    +0.018 C 
ATOM      3  C   UNL     1       5.836   7.099   0.060  0.00  0.00    -0.025 A 
ATOM      4  C   UNL     1       5.239   6.287  -0.845  0.00  0.00    -0.021 A 
ATOM      5  S   UNL     1       6.377   4.952  -1.065  0.00  0.00    -0.074 S 
ATOM      6  C   UNL     1       7.621   5.464   0.027  0.00  0.00    +0.157 A 
ATOM      7  C   UNL     1       7.129   6.649   0.533  0.00  0.00    +0.096 A 
ATOM      8  C   UNL     1       3.908   6.506  -1.493  0.00  0.00    -0.035 C 
ATOM      9  N   UNL     1       3.187   7.538  -0.709  0.00  0.00    +0.385 N 
ATOM     10  H   UNL     1       2.940   7.149   0.209  0.00  0.00    -0.081 HD
ENDROOT
BRANCH   6  11
ATOM     11  S   UNL     1       9.146   4.664   0.402  0.00  0.00    +0.065 S 
ATOM     12  O   UNL     1      10.066   5.051  -0.609  0.00  0.00    -0.153 OA
ATOM     13  O   UNL     1       9.392   4.886   1.784  0.00  0.00    -0.153 OA
BRANCH  11  14
ATOM     14  N   UNL     1       8.901   3.036   0.221  0.00  0.00    -0.193 NA
ATOM     15  C   UNL     1       8.594   2.483  -1.101  0.00  0.00    +0.127 C 
ATOM     16  H   UNL     1       8.961   2.448   0.990  0.00  0.00    +0.148 HD
ENDBRANCH  11  14
ENDBRANCH   6  11
BRANCH   9  18
ATOM     17  C   UNL     1       2.257   8.335  -2.856  0.00  0.00    -0.013 C 
ATOM     18  C   UNL     1       1.947   7.933  -1.412  0.00  0.00    -0.071 C 
BRANCH  18  19
ATOM     19  C   UNL     1       0.978   6.749  -1.409  0.00  0.00    -0.011 C 
BRANCH  19  20
ATOM     20  C   UNL     1       0.571   6.427   0.030  0.00  0.00    +0.036 C 
BRANCH  20  21
ATOM     21  C   UNL     1      -0.384   5.261   0.033  0.00  0.00    -0.022 A 
ATOM     22  C   UNL     1      -1.724   5.326   0.046  0.00  0.00    +0.087 A 
ATOM     23  N   UNL     1      -2.254   4.064   0.045  0.00  0.00    -0.360 N 
ATOM     24  H   UNL     1      -3.201   3.858   0.053  0.00  0.00    +0.165 HD
ATOM     25  C   UNL     1      -1.240   3.132   0.031  0.00  0.00    +0.047 A 
ATOM     26  C   UNL     1      -0.025   3.840   0.022  0.00  0.00    +0.003 A 
ATOM     27  C   UNL     1       1.186   3.146   0.007  0.00  0.00    +0.010 A 
ATOM     28  C   UNL     1       1.184   1.779   0.000  0.00  0.00    +0.001 A 
ATOM     29  C   UNL     1      -0.013   1.076   0.008  0.00  0.00    +0.002 A 
ATOM     30  C   UNL     1      -1.219   1.742   0.017  0.00  0.00    +0.026 A 
ENDBRANCH  20  21
ENDBRANCH  19  20
ENDBRANCH  18  19
ENDBRANCH   9  18
BRANCH   7  31
ATOM     31  C   UNL     1       7.891   7.429   1.519  0.00  0.00    +0.342 C 
ATOM     32  O   UNL     1       7.737   7.224   2.707  0.00  0.00    -0.245 OA
BRANCH  31  33
ATOM     33  O   UNL     1       8.761   8.373   1.106  0.00  0.00    -0.464 OA
ATOM     34  C   UNL     1       9.479   9.104   2.134  0.00  0.00    +0.280 C 
ENDBRANCH  31  33
ENDBRANCH   7  31
TORSDOF 8
