REMARK  Name = ZINC15129046
REMARK  12 active torsions:
REMARK  status: ('A' for Active; 'I' for Inactive)
REMARK    1  A    between atoms: C_1  and  C_2
REMARK    2  A    between atoms: C_2  and  C_3
REMARK    3  A    between atoms: C_6  and  C_9
REMARK    4  A    between atoms: C_9  and  C_11
REMARK    5  A    between atoms: C_9  and  N_31
REMARK    6  A    between atoms: C_11  and  N_12
REMARK    7  A    between atoms: N_12  and  C_13
REMARK    8  A    between atoms: C_16  and  N_28
REMARK    9  A    between atoms: C_18  and  S_19
REMARK   10  A    between atoms: S_19  and  N_22
REMARK   11  A    between atoms: N_31  and  C_32
REMARK   12  A    between atoms: N_31  and  C_33
REMARK                            x       y       z     vdW  Elec       q    Type
REMARK                         _______ _______ _______ _____ _____    ______ ____
ROOT
ATOM      1  C   UNL     1      -9.255  -0.772  -0.535  0.00  0.00    +0.054 A 
ATOM      2  C   UNL     1      -9.631   0.472  -0.045  0.00  0.00    +0.027 A 
ATOM      3  C   UNL     1     -10.755   1.099  -0.547  0.00  0.00    +0.034 A 
ATOM      4  C   UNL     1     -11.505   0.488  -1.535  0.00  0.00    +0.128 A 
ATOM      5  C   UNL     1     -11.134  -0.750  -2.024  0.00  0.00    +0.063 A 
ATOM      6  C   UNL     1     -10.008  -1.380  -1.531  0.00  0.00    +0.128 A 
ENDROOT
BRANCH   6   7
ATOM      7  S   UNL     1      -9.531  -2.955  -2.160  0.00  0.00    +0.063 S 
ATOM      8  O   UNL     1      -9.393  -3.816  -1.037  0.00  0.00    -0.153 OA
ATOM      9  O   UNL     1     -10.410  -3.245  -3.238  0.00  0.00    -0.153 OA
BRANCH   7  10
ATOM     10  N   UNL     1      -8.020  -2.784  -2.814  0.00  0.00    -0.172 NA
ATOM     11  C   UNL     1      -7.835  -2.197  -4.151  0.00  0.00    +0.137 C 
ATOM     12  C   UNL     1      -6.777  -1.093  -4.052  0.00  0.00    +0.177 C 
ATOM     13  O   UNL     1      -5.606  -1.619  -3.422  0.00  0.00    -0.377 OA
ATOM     14  C   UNL     1      -5.812  -2.061  -2.079  0.00  0.00    +0.177 C 
ATOM     15  C   UNL     1      -6.821  -3.209  -2.074  0.00  0.00    +0.137 C 
ENDBRANCH   7  10
ENDBRANCH   6   7
BRANCH   4  16
ATOM     16  N   UNL     1     -12.709   1.163  -2.071  0.00  0.00    +0.056 N 
ATOM     17  O   UNL     1     -13.036   2.246  -1.644  0.00  0.00    -0.126 OA
ATOM     18  O   UNL     1     -13.367   0.630  -2.935  0.00  0.00    -0.126 OA
ENDBRANCH   4  16
BRANCH   1  19
ATOM     19  N   UNL     1      -8.118  -1.408  -0.030  0.00  0.00    -0.344 N 
ATOM     20  H   UNL     1      -7.925  -2.326  -0.279  0.00  0.00    +0.146 HD
BRANCH  19  21
ATOM     21  C   UNL     1      -7.218  -0.690   0.875  0.00  0.00    +0.091 C 
BRANCH  21  22
ATOM     22  C   UNL     1      -6.076  -1.615   1.299  0.00  0.00    -0.021 C 
BRANCH  22  26
ATOM     23  C   UNL     1      -7.636  -4.823   3.649  0.00  0.00    -0.048 A 
ATOM     24  C   UNL     1      -7.349  -5.022   2.311  0.00  0.00    +0.004 A 
ATOM     25  C   UNL     1      -6.844  -3.984   1.551  0.00  0.00    +0.002 A 
ATOM     26  C   UNL     1      -6.627  -2.747   2.128  0.00  0.00    -0.059 A 
ATOM     27  C   UNL     1      -6.915  -2.548   3.465  0.00  0.00    +0.002 A 
ATOM     28  C   UNL     1      -7.424  -3.584   4.224  0.00  0.00    +0.004 A 
BRANCH  23  30
ATOM     29  C   UNL     1      -9.715  -5.944   4.405  0.00  0.00    +0.009 C 
ATOM     30  C   UNL     1      -8.187  -5.955   4.478  0.00  0.00    +0.032 C 
ENDBRANCH  23  30
ENDBRANCH  22  26
BRANCH  22  31
ATOM     31  N   UNL     1      -5.100  -0.857   2.093  0.00  0.00    +0.382 N 
ATOM     32  C   UNL     1      -4.001  -1.744   2.496  0.00  0.00    -0.096 C 
ATOM     33  C   UNL     1      -4.566   0.249   1.287  0.00  0.00    -0.096 C 
ATOM     34  H   UNL     1      -5.551  -0.486   2.916  0.00  0.00    -0.082 HD
ENDBRANCH  22  31
ENDBRANCH  21  22
ENDBRANCH  19  21
ENDBRANCH   1  19
TORSDOF 9
