REMARK  Name = ZINC64538254
REMARK  7 active torsions:
REMARK  status: ('A' for Active; 'I' for Inactive)
REMARK    1  A    between atoms: C_1  and  C_2
REMARK    2  A    between atoms: C_5  and  C_8
REMARK    3  A    between atoms: N_19  and  C_20
REMARK    4  A    between atoms: C_20  and  C_21
REMARK    5  A    between atoms: N_23  and  C_24
REMARK    6  A    between atoms: C_24  and  C_25
REMARK    7  A    between atoms: C_25  and  C_26
REMARK                            x       y       z     vdW  Elec       q    Type
REMARK                         _______ _______ _______ _____ _____    ______ ____
ROOT
ATOM      1  C   UNL     1       0.059  -4.275  -0.021  0.00  0.00    +0.103 C 
ATOM      2  C   UNL     1      -1.363  -4.832   0.264  0.00  0.00    +0.064 C 
ATOM      3  C   UNL     1      -1.048  -6.032   1.172  0.00  0.00    +0.163 C 
ATOM      4  N   UNL     1       0.056  -5.479   2.001  0.00  0.00    -0.222 NA
ATOM      5  N   UNL     1       0.922  -4.784   1.078  0.00  0.00    -0.245 NA
ATOM      6  C   UNL     1       0.612  -6.540   2.824  0.00  0.00    +0.113 C 
ATOM      7  C   UNL     1      -0.443  -6.889   3.886  0.00  0.00    +0.113 C 
ATOM      8  C   UNL     1      -1.827  -6.874   3.303  0.00  0.00    +0.218 C 
ATOM      9  O   UNL     1      -2.736  -7.300   3.984  0.00  0.00    -0.276 OA
ATOM     10  N   UNL     1      -2.125  -6.425   2.062  0.00  0.00    -0.276 N 
ATOM     11  H   UNL     1       1.639  -5.397   0.721  0.00  0.00    +0.142 HD
ENDROOT
BRANCH   1  16
ATOM     12  C   UNL     1      -0.018   1.503   0.010  0.00  0.00    +0.044 C 
ATOM     13  C   UNL     1       0.002  -0.004   0.002  0.00  0.00    -0.050 A 
ATOM     14  C   UNL     1       0.006  -0.689  -1.199  0.00  0.00    +0.003 A 
ATOM     15  C   UNL     1       0.025  -2.071  -1.206  0.00  0.00    +0.005 A 
ATOM     16  C   UNL     1       0.040  -2.768  -0.013  0.00  0.00    -0.029 A 
ATOM     17  C   UNL     1       0.037  -2.084   1.188  0.00  0.00    +0.005 A 
ATOM     18  C   UNL     1       0.023  -0.702   1.195  0.00  0.00    +0.003 A 
ENDBRANCH   1  16
BRANCH  10  19
ATOM     19  C   UNL     1      -3.518  -6.322   1.621  0.00  0.00    +0.205 C 
BRANCH  19  20
ATOM     20  C   UNL     1      -3.932  -7.613   0.962  0.00  0.00    +0.230 C 
ATOM     21  O   UNL     1      -3.142  -8.528   0.870  0.00  0.00    -0.274 OA
ATOM     22  N   UNL     1      -5.181  -7.750   0.474  0.00  0.00    -0.314 N 
ATOM     23  H   UNL     1      -5.813  -7.018   0.548  0.00  0.00    +0.149 HD
BRANCH  22  24
ATOM     24  C   UNL     1      -5.584  -9.004  -0.166  0.00  0.00    +0.108 C 
BRANCH  24  25
ATOM     25  C   UNL     1      -7.039  -8.897  -0.627  0.00  0.00    +0.052 C 
BRANCH  25  26
ATOM     26  C   UNL     1      -7.453 -10.188  -1.286  0.00  0.00    -0.040 C 
ATOM     27  C   UNL     1      -8.097 -11.226  -0.707  0.00  0.00    -0.001 A 
ATOM     28  C   UNL     1      -8.585 -11.457   0.658  0.00  0.00    +0.010 A 
ATOM     29  C   UNL     1      -9.206 -12.624   0.944  0.00  0.00    +0.001 A 
ATOM     30  C   UNL     1      -9.394 -13.617  -0.028  0.00  0.00    +0.002 A 
ATOM     31  C   UNL     1      -8.974 -13.477  -1.303  0.00  0.00    +0.026 A 
ATOM     32  C   UNL     1      -8.309 -12.290  -1.715  0.00  0.00    +0.043 A 
ATOM     33  N   UNL     1      -7.815 -11.922  -2.872  0.00  0.00    -0.380 N 
ATOM     34  C   UNL     1      -7.239 -10.581  -2.731  0.00  0.00    +0.144 C 
ATOM     35  H   UNL     1      -7.832 -12.448  -3.687  0.00  0.00    +0.160 HD
ENDBRANCH  25  26
ENDBRANCH  24  25
ENDBRANCH  22  24
ENDBRANCH  19  20
ENDBRANCH  10  19
TORSDOF 6
