REMARK  Name = ZINC19762132
REMARK  13 active torsions:
REMARK  status: ('A' for Active; 'I' for Inactive)
REMARK    1  A    between atoms: C_1  and  C_2
REMARK    2  A    between atoms: C_3  and  C_32
REMARK    3  A    between atoms: C_4  and  C_23
REMARK    4  A    between atoms: C_10  and  C_15
REMARK    5  A    between atoms: C_18  and  O_21
REMARK    6  A    between atoms: O_21  and  C_22
REMARK    7  A    between atoms: C_26  and  O_31
REMARK    8  A    between atoms: C_27  and  O_29
REMARK    9  A    between atoms: O_29  and  C_30
REMARK   10  A    between atoms: C_32  and  O_34
REMARK   11  A    between atoms: O_34  and  C_35
REMARK   12  A    between atoms: C_35  and  C_36
REMARK   13  A    between atoms: C_35  and  C_37
REMARK                            x       y       z     vdW  Elec       q    Type
REMARK                         _______ _______ _______ _____ _____    ______ ____
ROOT
ATOM      1  C   UNL     1      -0.020   1.055   0.016  0.00  0.00    +0.061 C 
ATOM      2  C   UNL     1      -0.722   1.557   1.252  0.00  0.00    +0.016 C 
ATOM      3  C   UNL     1      -0.034   1.701   2.398  0.00  0.00    +0.065 C 
ATOM      4  C   UNL     1      -0.701   2.192   3.649  0.00  0.00    +0.092 C 
ATOM      5  C   UNL     1      -2.010   2.870   3.334  0.00  0.00    +0.024 C 
ATOM      6  C   UNL     1      -2.620   2.674   2.146  0.00  0.00    +0.016 C 
ATOM      7  N   UNL     1      -2.051   1.868   1.198  0.00  0.00    -0.321 N 
ATOM      8  C   UNL     1      -3.936   3.339   1.829  0.00  0.00    +0.059 C 
ATOM      9  C   UNL     1      -4.020   4.684   2.555  0.00  0.00    +0.032 C 
ATOM     10  C   UNL     1      -3.871   4.434   4.059  0.00  0.00    +0.088 C 
ATOM     11  C   UNL     1      -2.574   3.712   4.309  0.00  0.00    +0.162 C 
ATOM     12  O   UNL     1      -2.004   3.860   5.372  0.00  0.00    -0.292 OA
ATOM     13  H   UNL     1      -2.677   1.469   0.386  0.00  0.00    +0.152 HD
ENDROOT
BRANCH   9  14
ATOM     14  C   UNL     1      -5.356   5.326   2.279  0.00  0.00    -0.043 A 
ATOM     15  C   UNL     1      -6.522   4.666   2.619  0.00  0.00    +0.007 A 
ATOM     16  C   UNL     1      -7.747   5.255   2.372  0.00  0.00    +0.046 A 
ATOM     17  C   UNL     1      -7.807   6.504   1.772  0.00  0.00    +0.120 A 
ATOM     18  C   UNL     1      -6.635   7.161   1.426  0.00  0.00    +0.046 A 
ATOM     19  C   UNL     1      -5.412   6.571   1.681  0.00  0.00    +0.007 A 
BRANCH  17  20
ATOM     20  O   UNL     1      -9.011   7.082   1.522  0.00  0.00    -0.495 OA
ATOM     21  C   UNL     1     -10.175   6.348   1.904  0.00  0.00    +0.277 C 
ENDBRANCH  17  20
ENDBRANCH   9  14
BRANCH   4  22
ATOM     22  C   UNL     1      -0.958   1.022   4.564  0.00  0.00    -0.032 A 
ATOM     23  C   UNL     1      -1.762  -0.020   4.142  0.00  0.00    +0.008 A 
ATOM     24  C   UNL     1      -1.996  -1.098   4.975  0.00  0.00    +0.049 A 
ATOM     25  C   UNL     1      -1.433  -1.131   6.240  0.00  0.00    +0.158 A 
ATOM     26  C   UNL     1      -0.628  -0.080   6.667  0.00  0.00    +0.162 A 
ATOM     27  C   UNL     1      -0.393   0.995   5.825  0.00  0.00    +0.054 A 
BRANCH  26  28
ATOM     28  O   UNL     1      -0.073  -0.107   7.909  0.00  0.00    -0.491 OA
ATOM     29  C   UNL     1       0.742   1.007   8.280  0.00  0.00    +0.277 C 
ENDBRANCH  26  28
BRANCH  25  30
ATOM     30  O   UNL     1      -1.667  -2.188   7.063  0.00  0.00    -0.503 OA
ATOM     31  H   UNL     1      -1.220  -2.213   8.068  0.00  0.00    +0.292 HD
ENDBRANCH  25  30
ENDBRANCH   4  22
BRANCH   3  32
ATOM     32  C   UNL     1       1.344   1.385   2.424  0.00  0.00    +0.338 C 
ATOM     33  O   UNL     1       1.920   1.087   1.395  0.00  0.00    -0.245 OA
BRANCH  32  34
ATOM     34  O   UNL     1       2.021   1.413   3.592  0.00  0.00    -0.459 OA
BRANCH  34  35
ATOM     35  C   UNL     1       3.410   1.083   3.545  0.00  0.00    +0.171 C 
ATOM     36  C   UNL     1       4.151   1.835   4.652  0.00  0.00    +0.052 C 
ATOM     37  C   UNL     1       3.583  -0.424   3.749  0.00  0.00    +0.052 C 
ENDBRANCH  34  35
ENDBRANCH  32  34
ENDBRANCH   3  32
TORSDOF 8
