REMARK  Name = ZINC36574286
REMARK  12 active torsions:
REMARK  status: ('A' for Active; 'I' for Inactive)
REMARK    1  A    between atoms: C_1  and  C_2
REMARK    2  A    between atoms: C_2  and  C_3
REMARK    3  A    between atoms: C_3  and  N_4
REMARK    4  A    between atoms: N_4  and  C_5
REMARK    5  A    between atoms: C_5  and  C_7
REMARK    6  A    between atoms: C_5  and  C_17
REMARK    7  A    between atoms: C_9  and  N_14
REMARK    8  A    between atoms: N_19  and  C_20
REMARK    9  A    between atoms: C_20  and  S_21
REMARK   10  A    between atoms: S_21  and  C_24
REMARK   11  A    between atoms: C_27  and  C_30
REMARK   12  A    between atoms: C_31  and  C_33
REMARK                            x       y       z     vdW  Elec       q    Type
REMARK                         _______ _______ _______ _____ _____    ______ ____
ROOT
ATOM      1  C   UNL     1      -0.460  -2.704  -2.189  0.00  0.00    +0.194 C 
ENDROOT
BRANCH   1   2
ATOM      2  C   UNL     1      -1.366  -1.719  -1.498  0.00  0.00    +0.002 A 
ATOM      3  C   UNL     1      -0.843  -0.555  -0.964  0.00  0.00    +0.040 A 
ATOM      4  C   UNL     1      -1.674   0.349  -0.330  0.00  0.00    +0.127 A 
ATOM      5  C   UNL     1      -3.028   0.090  -0.228  0.00  0.00    +0.034 A 
ATOM      6  C   UNL     1      -3.552  -1.072  -0.761  0.00  0.00    +0.022 A 
ATOM      7  C   UNL     1      -2.722  -1.975  -1.401  0.00  0.00    +0.047 A 
ATOM      8 CL   UNL     1      -3.381  -3.432  -2.078  0.00  0.00    -0.083 Cl
BRANCH   4   9
ATOM      9  N   UNL     1      -1.113   1.593   0.242  0.00  0.00    +0.056 N 
ATOM     10  O   UNL     1       0.053   1.865   0.072  0.00  0.00    -0.126 OA
ATOM     11  O   UNL     1      -1.821   2.339   0.878  0.00  0.00    -0.126 OA
ENDBRANCH   4   9
ENDBRANCH   1   2
BRANCH   1  12
ATOM     12  C   UNL     1      -0.452  -2.425  -3.671  0.00  0.00    +0.239 C 
ATOM     13  O   UNL     1       0.114  -1.442  -4.099  0.00  0.00    -0.273 OA
ATOM     14  N   UNL     1      -1.073  -3.269  -4.519  0.00  0.00    -0.294 N 
ATOM     15  H   UNL     1      -1.526  -4.055  -4.176  0.00  0.00    +0.150 HD
BRANCH  14  16
ATOM     16  C   UNL     1      -1.065  -2.998  -5.958  0.00  0.00    +0.278 C 
BRANCH  16  17
ATOM     17  S   UNL     1       0.297  -3.908  -6.737  0.00  0.00    +0.013 S 
ATOM     18  O   UNL     1       0.280  -3.705  -8.144  0.00  0.00    -0.168 OA
ATOM     19  O   UNL     1       1.494  -3.727  -5.994  0.00  0.00    -0.168 OA
BRANCH  17  20
ATOM     20  C   UNL     1      -0.114  -5.608  -6.523  0.00  0.00    +0.090 A 
ATOM     21  C   UNL     1       0.310  -6.284  -5.394  0.00  0.00    +0.027 A 
ATOM     22  C   UNL     1      -0.012  -7.618  -5.226  0.00  0.00    +0.005 A 
ATOM     23  C   UNL     1      -0.758  -8.275  -6.186  0.00  0.00    -0.050 A 
ATOM     24  C   UNL     1      -1.182  -7.599  -7.315  0.00  0.00    +0.005 A 
ATOM     25  C   UNL     1      -0.863  -6.264  -7.481  0.00  0.00    +0.027 A 
ATOM     26  C   UNL     1      -1.108  -9.729  -6.003  0.00  0.00    +0.044 C 
ENDBRANCH  17  20
ENDBRANCH  16  17
ENDBRANCH  14  16
ENDBRANCH   1  12
BRANCH   1  27
ATOM     27  N   UNL     1       0.899  -2.573  -1.660  0.00  0.00    -0.285 N 
ATOM     28  C   UNL     1       1.158  -2.900  -0.378  0.00  0.00    +0.231 C 
ATOM     29  O   UNL     1       2.284  -2.791   0.060  0.00  0.00    -0.274 OA
BRANCH  28  30
ATOM     30  C   UNL     1       0.049  -3.400   0.510  0.00  0.00    +0.204 C 
ATOM     31 CL   UNL     1       0.705  -3.749   2.153  0.00  0.00    -0.116 Cl
ENDBRANCH  28  30
BRANCH  27  32
ATOM     32  C   UNL     1       1.978  -2.086  -2.524  0.00  0.00    +0.108 C 
BRANCH  32  34
ATOM     33  C   UNL     1       3.257  -0.066  -3.247  0.00  0.00    +0.005 C 
ATOM     34  C   UNL     1       2.163  -0.583  -2.311  0.00  0.00    +0.016 C 
ENDBRANCH  32  34
ENDBRANCH  27  32
ENDBRANCH   1  27
TORSDOF 10
