REMARK  Name = ZINC59014457
REMARK  6 active torsions:
REMARK  status: ('A' for Active; 'I' for Inactive)
REMARK    1  A    between atoms: C_3  and  C_9
REMARK    2  A    between atoms: N_10  and  N_11
REMARK    3  A    between atoms: C_14  and  S_17
REMARK    4  A    between atoms: S_17  and  C_18
REMARK    5  A    between atoms: C_18  and  C_19
REMARK    6  A    between atoms: N_21  and  C_22
REMARK                            x       y       z     vdW  Elec       q    Type
REMARK                         _______ _______ _______ _____ _____    ______ ____
ROOT
ATOM      1  N   UNL     1       5.988   2.237  -0.109  0.00  0.00    -0.205 N 
ATOM      2  C   UNL     1       7.194   1.560  -0.114  0.00  0.00    +0.232 A 
ATOM      3  N   UNL     1       7.347   0.253  -0.119  0.00  0.00    -0.186 NA
ATOM      4  C   UNL     1       8.650  -0.047  -0.124  0.00  0.00    +0.211 A 
ATOM      5  N   UNL     1       9.344   1.066  -0.123  0.00  0.00    -0.144 NA
ATOM      6  N   UNL     1       8.421   2.124  -0.121  0.00  0.00    -0.245 N 
ATOM      7  H   UNL     1       5.976   3.207  -0.110  0.00  0.00    +0.177 HD
ATOM      8  H   UNL     1       8.624   3.072  -0.123  0.00  0.00    +0.192 HD
ENDROOT
BRANCH   1  10
ATOM      9  C   UNL     1       3.651   2.158  -0.096  0.00  0.00    +0.139 C 
ATOM     10  N   UNL     1       4.783   1.522  -0.101  0.00  0.00    -0.188 NA
BRANCH   9  13
ATOM     11  C   UNL     1      -0.019   1.376  -0.076  0.00  0.00    +0.021 A 
ATOM     12  C   UNL     1       1.164   2.086  -0.083  0.00  0.00    +0.012 A 
ATOM     13  C   UNL     1       2.383   1.405  -0.088  0.00  0.00    +0.013 A 
ATOM     14  C   UNL     1       2.397   0.007  -0.087  0.00  0.00    +0.051 A 
ATOM     15  C   UNL     1       1.206  -0.691  -0.080  0.00  0.00    +0.040 A 
ATOM     16  C   UNL     1       0.001  -0.009  -0.075  0.00  0.00    +0.042 A 
ATOM     17 CL   UNL     1      -1.493  -0.893  -0.066  0.00  0.00    -0.083 Cl
ATOM     18 CL   UNL     1       3.907  -0.849  -0.094  0.00  0.00    -0.083 Cl
ENDBRANCH   9  13
ENDBRANCH   1  10
BRANCH   4  19
ATOM     19  S   UNL     1       9.326  -1.675  -0.131  0.00  0.00    -0.075 S 
BRANCH  19  20
ATOM     20  C   UNL     1      11.120  -1.405  -0.136  0.00  0.00    +0.173 C 
BRANCH  20  21
ATOM     21  C   UNL     1      11.828  -2.735  -0.142  0.00  0.00    +0.228 C 
ATOM     22  O   UNL     1      11.186  -3.764  -0.143  0.00  0.00    -0.275 OA
ATOM     23  N   UNL     1      13.175  -2.781  -0.147  0.00  0.00    -0.284 N 
ATOM     24  H   UNL     1      13.689  -1.961  -0.212  0.00  0.00    +0.155 HD
BRANCH  23  25
ATOM     25  C   UNL     1      13.834  -4.013  -0.058  0.00  0.00    +0.053 A 
ATOM     26  C   UNL     1      13.285  -5.140  -0.655  0.00  0.00    +0.044 A 
ATOM     27  C   UNL     1      13.937  -6.355  -0.566  0.00  0.00    +0.043 A 
ATOM     28  C   UNL     1      15.137  -6.449   0.118  0.00  0.00    +0.021 A 
ATOM     29  C   UNL     1      15.686  -5.329   0.714  0.00  0.00    +0.023 A 
ATOM     30  C   UNL     1      15.041  -4.110   0.624  0.00  0.00    +0.062 A 
ATOM     31 CL   UNL     1      15.734  -2.703   1.367  0.00  0.00    -0.082 Cl
ATOM     32 CL   UNL     1      13.252  -7.764  -1.312  0.00  0.00    -0.083 Cl
ENDBRANCH  23  25
ENDBRANCH  20  21
ENDBRANCH  19  20
ENDBRANCH   4  19
TORSDOF 6
