REMARK  Name = ZINC12844411
REMARK  11 active torsions:
REMARK  status: ('A' for Active; 'I' for Inactive)
REMARK    1  A    between atoms: C_1  and  C_2
REMARK    2  A    between atoms: C_2  and  O_3
REMARK    3  A    between atoms: O_3  and  C_4
REMARK    4  A    between atoms: C_4  and  C_6
REMARK    5  A    between atoms: C_7  and  C_21
REMARK    6  A    between atoms: C_12  and  C_14
REMARK    7  A    between atoms: C_21  and  S_22
REMARK    8  A    between atoms: S_22  and  C_23
REMARK    9  A    between atoms: C_26  and  C_28
REMARK   10  A    between atoms: C_29  and  C_30
REMARK   11  A    between atoms: C_33  and  C_35
REMARK                            x       y       z     vdW  Elec       q    Type
REMARK                         _______ _______ _______ _____ _____    ______ ____
ROOT
ATOM      1  C   UNL     1      -2.795  -2.410   0.126  0.00  0.00    +0.079 C 
ATOM      2  C   UNL     1      -2.985  -3.731  -0.085  0.00  0.00    +0.034 C 
ATOM      3  N   UNL     1      -4.241  -4.255  -0.186  0.00  0.00    -0.272 N 
ATOM      4  C   UNL     1      -5.360  -3.526  -0.089  0.00  0.00    +0.304 C 
ATOM      5  O   UNL     1      -6.436  -4.083  -0.192  0.00  0.00    -0.252 OA
ATOM      6  N   UNL     1      -5.333  -2.195   0.121  0.00  0.00    -0.288 N 
ATOM      7  C   UNL     1      -4.024  -1.533   0.251  0.00  0.00    +0.144 C 
ATOM      8  H   UNL     1      -4.328  -5.210  -0.337  0.00  0.00    +0.156 HD
ATOM      9  H   UNL     1      -6.156  -1.686   0.188  0.00  0.00    +0.151 HD
ENDROOT
BRANCH   7  10
ATOM     10  C   UNL     1      -3.974  -0.852   1.594  0.00  0.00    -0.022 A 
ATOM     11  C   UNL     1      -4.360  -1.538   2.731  0.00  0.00    +0.007 A 
ATOM     12  C   UNL     1      -4.314  -0.914   3.964  0.00  0.00    +0.020 A 
ATOM     13  C   UNL     1      -3.882   0.397   4.059  0.00  0.00    +0.041 A 
ATOM     14  C   UNL     1      -3.496   1.083   2.921  0.00  0.00    +0.020 A 
ATOM     15  C   UNL     1      -3.537   0.456   1.690  0.00  0.00    +0.007 A 
ATOM     16 CL   UNL     1      -3.825   1.181   5.607  0.00  0.00    -0.084 Cl
ENDBRANCH   7  10
BRANCH   1  17
ATOM     17  C   UNL     1      -1.494  -1.866   0.231  0.00  0.00    +0.339 C 
ATOM     18  O   UNL     1      -1.002  -1.279  -0.714  0.00  0.00    -0.245 OA
BRANCH  17  19
ATOM     19  O   UNL     1      -0.799  -1.996   1.380  0.00  0.00    -0.462 OA
BRANCH  19  21
ATOM     20  C   UNL     1       1.137  -1.669   2.790  0.00  0.00    +0.048 C 
ATOM     21  C   UNL     1       0.509  -1.422   1.417  0.00  0.00    +0.229 C 
ENDBRANCH  19  21
ENDBRANCH  17  19
ENDBRANCH   1  17
BRANCH   2  22
ATOM     22  C   UNL     1      -1.789  -4.640  -0.210  0.00  0.00    +0.128 C 
BRANCH  22  23
ATOM     23  S   UNL     1      -1.597  -5.599   1.318  0.00  0.00    -0.078 S 
BRANCH  23  24
ATOM     24  C   UNL     1      -0.177  -6.599   1.017  0.00  0.00    +0.209 A 
ATOM     25  N   UNL     1       0.536  -6.595  -0.086  0.00  0.00    -0.145 NA
ATOM     26  N   UNL     1       1.569  -7.531   0.086  0.00  0.00    -0.258 N 
ATOM     27  C   UNL     1       1.401  -8.058   1.331  0.00  0.00    +0.150 A 
ATOM     28  N   UNL     1       0.345  -7.476   1.875  0.00  0.00    -0.202 NA
ATOM     29  H   UNL     1       2.262  -7.757  -0.553  0.00  0.00    +0.191 HD
BRANCH  27  30
ATOM     30  C   UNL     1       2.243  -9.080   1.957  0.00  0.00    +0.051 C 
ATOM     31  C   UNL     1       1.962  -9.515   3.205  0.00  0.00    +0.050 C 
BRANCH  31  32
ATOM     32  C   UNL     1       2.803 -10.536   3.830  0.00  0.00    +0.128 A 
ATOM     33  C   UNL     1       2.629 -11.067   5.077  0.00  0.00    +0.049 A 
ATOM     34  C   UNL     1       3.659 -12.005   5.264  0.00  0.00    +0.045 A 
ATOM     35  C   UNL     1       4.405 -12.006   4.139  0.00  0.00    +0.103 A 
ATOM     36  O   UNL     1       3.883 -11.123   3.274  0.00  0.00    -0.461 OA
ATOM     37  C   UNL     1       5.620 -12.863   3.893  0.00  0.00    +0.086 C 
ENDBRANCH  31  32
ENDBRANCH  27  30
ENDBRANCH  23  24
ENDBRANCH  22  23
ENDBRANCH   2  22
TORSDOF 9
