REMARK  Name = ZINC39687319
REMARK  6 active torsions:
REMARK  status: ('A' for Active; 'I' for Inactive)
REMARK    1  A    between atoms: C_4  and  C_7
REMARK    2  A    between atoms: C_7  and  C_8
REMARK    3  A    between atoms: C_8  and  C_10
REMARK    4  A    between atoms: C_8  and  N_18
REMARK    5  A    between atoms: C_19  and  C_21
REMARK    6  A    between atoms: C_32  and  C_34
REMARK                            x       y       z     vdW  Elec       q    Type
REMARK                         _______ _______ _______ _____ _____    ______ ____
ROOT
ATOM      1  N   UNL     1       4.597  -1.395   3.596  0.00  0.00    -0.303 N 
ATOM      2  C   UNL     1       3.671  -0.431   3.424  0.00  0.00    +0.219 C 
ATOM      3  O   UNL     1       2.558  -0.722   3.042  0.00  0.00    -0.275 OA
ATOM      4  H   UNL     1       5.465  -1.174   3.970  0.00  0.00    +0.149 HD
ENDROOT
BRANCH   2   5
ATOM      5  C   UNL     1       4.020   1.007   3.707  0.00  0.00    +0.100 C 
ATOM      6  C   UNL     1       3.077   1.952   2.928  0.00  0.00    +0.121 C 
ATOM      7  N   UNL     1       2.001   2.284   3.892  0.00  0.00    -0.300 N 
ATOM      8  C   UNL     1       2.703   2.445   5.188  0.00  0.00    +0.115 C 
ATOM      9  C   UNL     1       3.774   1.337   5.189  0.00  0.00    -0.004 C 
ATOM     10  C   UNL     1       5.059   1.844   5.837  0.00  0.00    -0.010 C 
ATOM     11  C   UNL     1       4.804   2.109   7.324  0.00  0.00    -0.082 C 
ATOM     12  N   UNL     1       4.359   0.871   7.974  0.00  0.00    +0.379 N 
ATOM     13  C   UNL     1       3.075   0.440   7.408  0.00  0.00    -0.082 C 
ATOM     14  C   UNL     1       3.257   0.105   5.925  0.00  0.00    -0.010 C 
ATOM     15  C   UNL     1       0.682   2.410   3.646  0.00  0.00    +0.219 C 
ATOM     16  O   UNL     1      -0.066   2.786   4.524  0.00  0.00    -0.275 OA
ATOM     17  H   UNL     1       5.049   0.149   7.828  0.00  0.00    -0.086 HD
ATOM     18  H   UNL     1       4.251   1.032   8.964  0.00  0.00    -0.086 HD
BRANCH  15  19
ATOM     19  C   UNL     1       0.136   2.086   2.279  0.00  0.00    +0.079 C 
ATOM     20  C   UNL     1       0.619   3.134   1.272  0.00  0.00    +0.041 C 
ATOM     21  C   UNL     1      -0.004   2.841  -0.096  0.00  0.00    +0.160 C 
ATOM     22  O   UNL     1      -1.428   2.841   0.021  0.00  0.00    -0.380 OA
ATOM     23  C   UNL     1      -1.940   1.850   0.913  0.00  0.00    +0.160 C 
ATOM     24  C   UNL     1      -1.395   2.103   2.322  0.00  0.00    +0.041 C 
ENDBRANCH  15  19
ENDBRANCH   2   5
BRANCH   1  25
ATOM     25  C   UNL     1       4.294  -2.778   3.218  0.00  0.00    +0.163 C 
BRANCH  25  26
ATOM     26  C   UNL     1       3.669  -3.493   4.388  0.00  0.00    +0.236 C 
ATOM     27  O   UNL     1       3.658  -2.970   5.483  0.00  0.00    -0.274 OA
ATOM     28  N   UNL     1       3.122  -4.713   4.219  0.00  0.00    -0.300 N 
ATOM     29  C   UNL     1       3.226  -5.407   2.928  0.00  0.00    +0.108 C 
ATOM     30  C   UNL     1       3.817  -6.800   3.164  0.00  0.00    +0.019 C 
ATOM     31  C   UNL     1       2.974  -7.537   4.208  0.00  0.00    +0.003 C 
ATOM     32  C   UNL     1       3.009  -6.767   5.530  0.00  0.00    +0.019 C 
ATOM     33  C   UNL     1       2.414  -5.376   5.323  0.00  0.00    +0.108 C 
ENDBRANCH  25  26
BRANCH  25  34
ATOM     34  C   UNL     1       5.586  -3.492   2.816  0.00  0.00    +0.067 C 
BRANCH  34  38
ATOM     35  C   UNL     1       7.105  -1.769  -0.786  0.00  0.00    +0.000 A 
ATOM     36  C   UNL     1       7.432  -1.214   0.437  0.00  0.00    +0.000 A 
ATOM     37  C   UNL     1       6.941  -1.772   1.603  0.00  0.00    +0.004 A 
ATOM     38  C   UNL     1       6.121  -2.884   1.545  0.00  0.00    -0.045 A 
ATOM     39  C   UNL     1       5.793  -3.438   0.322  0.00  0.00    +0.004 A 
ATOM     40  C   UNL     1       6.286  -2.881  -0.844  0.00  0.00    +0.000 A 
ENDBRANCH  34  38
ENDBRANCH  25  34
ENDBRANCH   1  25
TORSDOF 6
