REMARK  Name = ZINC64801883
REMARK  6 active torsions:
REMARK  status: ('A' for Active; 'I' for Inactive)
REMARK    1  A    between atoms: C_1  and  C_2
REMARK    2  A    between atoms: C_4  and  N_14
REMARK    3  A    between atoms: N_14  and  C_15
REMARK    4  A    between atoms: C_18  and  N_21
REMARK    5  A    between atoms: N_21  and  S_22
REMARK    6  A    between atoms: S_22  and  C_25
REMARK                            x       y       z     vdW  Elec       q    Type
REMARK                         _______ _______ _______ _____ _____    ______ ____
ROOT
ATOM      1  C   UNL     1       0.442  -2.026  -3.589  0.00  0.00    +0.032 A 
ATOM      2  C   UNL     1       0.924  -0.755  -3.873  0.00  0.00    +0.025 A 
ATOM      3  C   UNL     1       0.628  -0.160  -5.083  0.00  0.00    +0.026 A 
ATOM      4  C   UNL     1      -0.150  -0.833  -6.016  0.00  0.00    +0.048 A 
ATOM      5  C   UNL     1      -0.631  -2.104  -5.732  0.00  0.00    +0.026 A 
ATOM      6  C   UNL     1      -0.332  -2.701  -4.524  0.00  0.00    +0.025 A 
ENDROOT
BRANCH   1   7
ATOM      7  N   UNL     1       0.742  -2.630  -2.361  0.00  0.00    -0.299 N 
ATOM      8  H   UNL     1       0.861  -3.591  -2.309  0.00  0.00    +0.154 HD
BRANCH   7  12
ATOM      9  C   UNL     1       1.849  -2.188   2.414  0.00  0.00    +0.066 C 
ATOM     10  C   UNL     1       1.401  -1.614   1.095  0.00  0.00    +0.045 A 
ATOM     11  C   UNL     1       1.288  -2.426  -0.017  0.00  0.00    +0.067 A 
ATOM     12  C   UNL     1       0.869  -1.854  -1.220  0.00  0.00    +0.128 A 
ATOM     13  N   UNL     1       0.593  -0.554  -1.254  0.00  0.00    -0.199 NA
ATOM     14  C   UNL     1       0.713   0.190  -0.165  0.00  0.00    +0.220 A 
ATOM     15  N   UNL     1       1.104  -0.327   0.991  0.00  0.00    -0.219 NA
ATOM     16  N   UNL     1       0.418   1.540  -0.234  0.00  0.00    -0.300 N 
ATOM     17  C   UNL     1      -0.030   2.145  -1.496  0.00  0.00    +0.108 C 
ATOM     18  C   UNL     1      -1.347   2.886  -1.248  0.00  0.00    +0.019 C 
ATOM     19  C   UNL     1      -1.158   3.886  -0.105  0.00  0.00    +0.003 C 
ATOM     20  C   UNL     1      -0.778   3.135   1.174  0.00  0.00    +0.019 C 
ATOM     21  C   UNL     1       0.540   2.396   0.954  0.00  0.00    +0.108 C 
ENDBRANCH   7  12
ENDBRANCH   1   7
BRANCH   4  22
ATOM     22  N   UNL     1      -0.450  -0.229  -7.243  0.00  0.00    -0.216 N 
ATOM     23  H   UNL     1      -0.729   0.700  -7.271  0.00  0.00    +0.174 HD
BRANCH  22  24
ATOM     24  S   UNL     1      -0.330  -1.100  -8.646  0.00  0.00    +0.072 S 
ATOM     25  O   UNL     1      -1.089  -2.286  -8.454  0.00  0.00    -0.150 OA
ATOM     26  O   UNL     1      -0.587  -0.194  -9.710  0.00  0.00    -0.150 OA
BRANCH  24  27
ATOM     27  C   UNL     1       1.352  -1.600  -8.806  0.00  0.00    +0.109 A 
ATOM     28  C   UNL     1       2.278  -0.742  -9.368  0.00  0.00    +0.030 A 
ATOM     29  C   UNL     1       3.598  -1.133  -9.494  0.00  0.00    +0.022 A 
ATOM     30  C   UNL     1       3.992  -2.385  -9.056  0.00  0.00    +0.041 A 
ATOM     31  C   UNL     1       3.065  -3.244  -8.493  0.00  0.00    +0.022 A 
ATOM     32  C   UNL     1       1.747  -2.849  -8.363  0.00  0.00    +0.030 A 
ATOM     33 CL   UNL     1       5.649  -2.878  -9.213  0.00  0.00    -0.084 Cl
ENDBRANCH  24  27
ENDBRANCH  22  24
ENDBRANCH   4  22
TORSDOF 5
