REMARK  Name = ZINC32879150
REMARK  4 active torsions:
REMARK  status: ('A' for Active; 'I' for Inactive)
REMARK    1  A    between atoms: C_8  and  C_32
REMARK    2  A    between atoms: N_10  and  C_12
REMARK    3  A    between atoms: C_12  and  C_13
REMARK    4  A    between atoms: C_26  and  C_28
REMARK                            x       y       z     vdW  Elec       q    Type
REMARK                         _______ _______ _______ _____ _____    ______ ____
ROOT
ATOM      1  C   UNL     1       0.834   4.970  -1.756  0.00  0.00    +0.204 C 
ATOM      2  O   UNL     1       0.797   6.060  -1.225  0.00  0.00    -0.277 OA
ATOM      3  N   UNL     1       1.677   4.025  -1.296  0.00  0.00    -0.259 N 
ATOM      4  C   UNL     1       1.730   2.760  -1.899  0.00  0.00    +0.058 A 
ATOM      5  C   UNL     1       0.702   1.849  -1.721  0.00  0.00    +0.025 A 
ATOM      6  C   UNL     1       0.787   0.595  -2.296  0.00  0.00    +0.002 A 
ATOM      7  C   UNL     1       1.897   0.244  -3.043  0.00  0.00    +0.002 A 
ATOM      8  C   UNL     1       2.921   1.152  -3.237  0.00  0.00    +0.025 A 
ATOM      9  C   UNL     1       2.840   2.413  -2.670  0.00  0.00    +0.055 A 
ATOM     10  N   UNL     1       3.849   3.361  -2.879  0.00  0.00    -0.284 N 
ATOM     11  C   UNL     1       4.371   4.047  -1.839  0.00  0.00    +0.219 C 
ATOM     12  O   UNL     1       5.186   4.922  -2.043  0.00  0.00    -0.275 OA
ATOM     13  C   UNL     1       3.950   3.733  -0.428  0.00  0.00    +0.128 C 
ATOM     14  C   UNL     1       2.555   4.299  -0.157  0.00  0.00    +0.194 C 
ATOM     15  H   UNL     1       4.222   3.552  -3.896  0.00  0.00    +0.155 HD
ENDROOT
BRANCH  14  16
ATOM     16  C   UNL     1       1.976   3.646   1.100  0.00  0.00    +0.409 C 
ATOM     17  F   UNL     1       2.810   3.915   2.191  0.00  0.00    -0.169 F 
ATOM     18  F   UNL     1       0.701   4.164   1.349  0.00  0.00    -0.169 F 
ATOM     19  F   UNL     1       1.890   2.263   0.909  0.00  0.00    -0.169 F 
ENDBRANCH  14  16
BRANCH   1  20
ATOM     20  C   UNL     1      -0.064   4.672  -2.929  0.00  0.00    +0.021 C 
BRANCH  20  29
ATOM     21  C   UNL     1      -1.714  10.489  -5.109  0.00  0.00    +0.000 A 
ATOM     22  C   UNL     1      -0.423  10.547  -4.617  0.00  0.00    +0.000 A 
ATOM     23  C   UNL     1       0.184   9.402  -4.144  0.00  0.00    +0.002 A 
ATOM     24  C   UNL     1      -0.493   8.192  -4.159  0.00  0.00    -0.061 A 
ATOM     25  C   UNL     1      -1.781   8.135  -4.646  0.00  0.00    -0.047 A 
ATOM     26  C   UNL     1      -2.390   9.286  -5.122  0.00  0.00    +0.004 A 
ATOM     27  C   UNL     1      -2.560   6.845  -4.676  0.00  0.00    +0.029 C 
ATOM     28  C   UNL     1      -1.609   5.658  -4.514  0.00  0.00    +0.024 C 
ATOM     29  N   UNL     1      -0.749   5.903  -3.346  0.00  0.00    +0.396 N 
ATOM     30  C   UNL     1       0.215   6.968  -3.640  0.00  0.00    -0.041 C 
ATOM     31  H   UNL     1      -1.382   6.232  -2.508  0.00  0.00    -0.080 HD
BRANCH  28  32
ATOM     32  C   UNL     1      -2.406   4.396  -4.301  0.00  0.00    +0.197 C 
ATOM     33  O   UNL     1      -2.779   4.096  -3.187  0.00  0.00    -0.278 OA
ATOM     34  N   UNL     1      -2.704   3.602  -5.348  0.00  0.00    -0.331 N 
ATOM     35  H   UNL     1      -3.286   2.682  -5.192  0.00  0.00    +0.145 HD
ATOM     36  H   UNL     1      -2.366   3.875  -6.359  0.00  0.00    +0.145 HD
ENDBRANCH  28  32
ENDBRANCH  20  29
ENDBRANCH   1  20
TORSDOF 4
