REMARK  Name = ZINC62267108
REMARK  9 active torsions:
REMARK  status: ('A' for Active; 'I' for Inactive)
REMARK    1  A    between atoms: C_3  and  C_6
REMARK    2  A    between atoms: C_7  and  C_12
REMARK    3  A    between atoms: C_12  and  C_13
REMARK    4  A    between atoms: C_13  and  C_14
REMARK    5  A    between atoms: N_16  and  C_17
REMARK    6  A    between atoms: C_17  and  C_18
REMARK    7  A    between atoms: C_18  and  C_19
REMARK    8  A    between atoms: C_19  and  C_20
REMARK    9  A    between atoms: C_23  and  O_26
REMARK                            x       y       z     vdW  Elec       q    Type
REMARK                         _______ _______ _______ _____ _____    ______ ____
ROOT
ATOM      1  C   UNL     1       4.870  -1.333   0.517  0.00  0.00    +0.101 C 
ENDROOT
BRANCH   1   2
ATOM      2  C   UNL     1       4.782  -2.606   1.319  0.00  0.00    +0.213 C 
ATOM      3  O   UNL     1       4.555  -2.559   2.509  0.00  0.00    -0.276 OA
ATOM      4  N   UNL     1       4.956  -3.798   0.713  0.00  0.00    -0.315 N 
ATOM      5  H   UNL     1       5.138  -3.836  -0.239  0.00  0.00    +0.149 HD
BRANCH   4   6
ATOM      6  C   UNL     1       4.871  -5.035   1.493  0.00  0.00    +0.104 C 
BRANCH   6   7
ATOM      7  C   UNL     1       5.105  -6.235   0.573  0.00  0.00    +0.023 C 
BRANCH   7   8
ATOM      8  C   UNL     1       5.015  -7.527   1.387  0.00  0.00    +0.036 C 
BRANCH   8   9
ATOM      9  C   UNL     1       5.246  -8.709   0.480  0.00  0.00    -0.047 A 
ATOM     10  C   UNL     1       4.176  -9.305  -0.161  0.00  0.00    +0.007 A 
ATOM     11  C   UNL     1       4.385 -10.389  -0.993  0.00  0.00    +0.045 A 
ATOM     12  C   UNL     1       5.669 -10.878  -1.183  0.00  0.00    +0.117 A 
ATOM     13  C   UNL     1       6.740 -10.278  -0.538  0.00  0.00    +0.045 A 
ATOM     14  C   UNL     1       6.527  -9.191   0.287  0.00  0.00    +0.007 A 
BRANCH  12  15
ATOM     15  O   UNL     1       5.876 -11.945  -2.000  0.00  0.00    -0.507 OA
ATOM     16  H   UNL     1       6.043 -11.707  -2.922  0.00  0.00    +0.292 HD
ENDBRANCH  12  15
ENDBRANCH   8   9
ENDBRANCH   7   8
ENDBRANCH   6   7
ENDBRANCH   4   6
ENDBRANCH   1   2
BRANCH   1  17
ATOM     17  C   UNL     1       4.636  -0.134   1.437  0.00  0.00    +0.054 C 
BRANCH  17  19
ATOM     18  C   UNL     1       3.741   1.824  -0.024  0.00  0.00    +0.090 A 
ATOM     19  C   UNL     1       4.724   1.139   0.635  0.00  0.00    +0.020 A 
ATOM     20  S   UNL     1       6.142   2.170   0.285  0.00  0.00    -0.057 S 
ATOM     21  C   UNL     1       5.292   3.398  -0.696  0.00  0.00    +0.156 A 
ATOM     22  N   UNL     1       4.054   2.940  -0.681  0.00  0.00    -0.224 NA
ATOM     23  N   UNL     1       5.799   4.530  -1.313  0.00  0.00    -0.337 N 
ATOM     24  H   UNL     1       6.742   4.741  -1.240  0.00  0.00    +0.144 HD
ATOM     25  H   UNL     1       5.210   5.112  -1.819  0.00  0.00    +0.144 HD
BRANCH  18  28
ATOM     26  C   UNL     1      -0.016   1.353   0.009  0.00  0.00    +0.008 A 
ATOM     27  C   UNL     1       1.179   2.041   0.002  0.00  0.00    +0.018 A 
ATOM     28  C   UNL     1       2.348   1.328  -0.013  0.00  0.00    +0.038 A 
ATOM     29  S   UNL     1       1.752  -0.355  -0.017  0.00  0.00    -0.095 S 
ATOM     30  C   UNL     1       0.002  -0.004   0.002  0.00  0.00    +0.046 A 
ENDBRANCH  18  28
ENDBRANCH  17  19
ENDBRANCH   1  17
TORSDOF 9
