REMARK  Name = ZINC09331323
REMARK  1 active torsions:
REMARK  status: ('A' for Active; 'I' for Inactive)
REMARK    1  A    between atoms: C_10  and  N_11
REMARK                            x       y       z     vdW  Elec       q    Type
REMARK                         _______ _______ _______ _____ _____    ______ ____
ROOT
ATOM      1  N   UNL     1      -2.516   3.782   0.047  0.00  0.00    -0.209 N 
ATOM      2  C   UNL     1      -3.177   4.137   1.198  0.00  0.00    +0.228 C 
ATOM      3  O   UNL     1      -2.752   4.111   2.333  0.00  0.00    -0.275 OA
ATOM      4  C   UNL     1      -4.484   4.546   0.759  0.00  0.00    +0.074 C 
ATOM      5  C   UNL     1      -5.693   5.262   1.200  0.00  0.00    -0.054 C 
ATOM      6  C   UNL     1      -5.419   6.769   1.415  0.00  0.00    -0.016 C 
ATOM      7  C   UNL     1      -6.720   7.443   0.895  0.00  0.00    -0.020 C 
ATOM      8  C   UNL     1      -7.358   6.421  -0.058  0.00  0.00    -0.076 C 
ATOM      9  C   UNL     1      -5.574   5.237  -1.210  0.00  0.00    +0.053 C 
ATOM     10  C   UNL     1      -4.162   5.218  -0.633  0.00  0.00    +0.089 C 
ATOM     11  C   UNL     1      -3.195   4.152  -1.084  0.00  0.00    +0.229 C 
ATOM     12  O   UNL     1      -3.051   3.716  -2.206  0.00  0.00    -0.275 OA
ATOM     13  C   UNL     1      -5.837   4.061  -2.118  0.00  0.00    -0.024 A 
ATOM     14  C   UNL     1      -5.834   2.698  -1.924  0.00  0.00    +0.043 A 
ATOM     15  C   UNL     1      -6.121   1.846  -2.978  0.00  0.00    +0.124 A 
ATOM     16  C   UNL     1      -6.416   2.370  -4.225  0.00  0.00    +0.040 A 
ATOM     17  C   UNL     1      -6.430   3.736  -4.420  0.00  0.00    +0.026 A 
ATOM     18  C   UNL     1      -6.145   4.598  -3.364  0.00  0.00    +0.036 A 
ATOM     19  N   UNL     1      -6.106   5.994  -3.311  0.00  0.00    -0.286 N 
ATOM     20  C   UNL     1      -5.793   6.444  -2.082  0.00  0.00    +0.212 C 
ATOM     21  O   UNL     1      -5.704   7.605  -1.741  0.00  0.00    -0.277 OA
ATOM     22  F   UNL     1      -6.112   0.508  -2.789  0.00  0.00    -0.205 F 
ATOM     23  H   UNL     1      -6.285   6.570  -4.070  0.00  0.00    +0.155 HD
ATOM     24  N   UNL     1      -6.503   5.229  -0.036  0.00  0.00    +0.395 N 
ATOM     25  H   UNL     1      -7.083   4.382  -0.056  0.00  0.00    -0.079 HD
ENDROOT
BRANCH   1  35
ATOM     26  C   UNL     1       2.311   5.261   0.007  0.00  0.00    +0.001 A 
ATOM     27  C   UNL     1       1.094   5.940   0.022  0.00  0.00    +0.001 A 
ATOM     28  C   UNL     1      -0.086   5.261   0.031  0.00  0.00    +0.010 A 
ATOM     29  C   UNL     1      -0.081   3.857   0.024  0.00  0.00    +0.004 A 
ATOM     30  C   UNL     1       1.156   3.167   0.008  0.00  0.00    -0.016 A 
ATOM     31  C   UNL     1       2.355   3.901  -0.000  0.00  0.00    +0.008 A 
ATOM     32  C   UNL     1       1.164   1.762   0.000  0.00  0.00    +0.008 A 
ATOM     33  C   UNL     1      -0.013   1.076   0.008  0.00  0.00    +0.002 A 
ATOM     34  C   UNL     1      -1.234   1.744   0.017  0.00  0.00    +0.024 A 
ATOM     35  C   UNL     1      -1.283   3.120   0.032  0.00  0.00    +0.052 A 
ENDBRANCH   1  35
TORSDOF 1
