REMARK  Name = ZINC14510428
REMARK  9 active torsions:
REMARK  status: ('A' for Active; 'I' for Inactive)
REMARK    1  A    between atoms: C_1  and  C_2
REMARK    2  A    between atoms: C_2  and  C_3
REMARK    3  A    between atoms: C_3  and  C_4
REMARK    4  A    between atoms: C_4  and  N_5
REMARK    5  A    between atoms: N_5  and  C_6
REMARK    6  A    between atoms: C_7  and  N_22
REMARK    7  A    between atoms: N_8  and  C_15
REMARK    8  A    between atoms: C_15  and  C_16
REMARK    9  A    between atoms: C_23  and  C_25
REMARK                            x       y       z     vdW  Elec       q    Type
REMARK                         _______ _______ _______ _____ _____    ______ ____
ROOT
ATOM      1  C   UNL     1      -4.070   6.141  -2.853  0.00  0.00    +0.140 A 
ATOM      2  C   UNL     1      -4.340   4.806  -3.077  0.00  0.00    +0.128 A 
ATOM      3  N   UNL     1      -5.137   4.124  -2.186  0.00  0.00    -0.276 N 
ATOM      4  C   UNL     1      -5.638   4.748  -1.105  0.00  0.00    +0.331 A 
ATOM      5  O   UNL     1      -6.336   4.127  -0.327  0.00  0.00    -0.246 OA
ATOM      6  N   UNL     1      -5.381   6.047  -0.868  0.00  0.00    -0.273 N 
ATOM      7  H   UNL     1      -5.766   6.487  -0.057  0.00  0.00    +0.173 HD
ATOM      8  C   UNL     1      -4.611   6.762  -1.712  0.00  0.00    +0.277 A 
ATOM      9  O   UNL     1      -4.384   7.939  -1.488  0.00  0.00    -0.266 OA
ENDROOT
BRANCH   1  10
ATOM     10  N   UNL     1      -3.261   6.868  -3.750  0.00  0.00    -0.260 N 
ATOM     11  C   UNL     1      -2.170   7.518  -3.299  0.00  0.00    +0.252 C 
ATOM     12  O   UNL     1      -1.495   8.180  -4.064  0.00  0.00    -0.270 OA
BRANCH  11  13
ATOM     13  C   UNL     1      -1.792   7.425  -1.873  0.00  0.00    +0.057 A 
ATOM     14  C   UNL     1      -2.151   6.303  -1.124  0.00  0.00    +0.014 A 
ATOM     15  C   UNL     1      -1.795   6.222   0.206  0.00  0.00    +0.002 A 
ATOM     16  C   UNL     1      -1.085   7.250   0.800  0.00  0.00    +0.021 A 
ATOM     17  C   UNL     1      -0.726   8.366   0.066  0.00  0.00    +0.060 A 
ATOM     18  C   UNL     1      -1.071   8.458  -1.270  0.00  0.00    +0.071 A 
ATOM     19 CL   UNL     1      -0.614   9.855  -2.193  0.00  0.00    -0.081 Cl
ATOM     20 CL   UNL     1       0.166   9.651   0.821  0.00  0.00    -0.082 Cl
ENDBRANCH  11  13
BRANCH  10  21
ATOM     21  C   UNL     1      -3.606   6.918  -5.173  0.00  0.00    +0.114 C 
BRANCH  21  22
ATOM     22  C   UNL     1      -4.406   8.190  -5.460  0.00  0.00    +0.019 C 
BRANCH  22  24
ATOM     23  C   UNL     1      -5.567   9.514  -7.232  0.00  0.00    +0.004 C 
ATOM     24  C   UNL     1      -4.767   8.242  -6.946  0.00  0.00    -0.002 C 
ENDBRANCH  22  24
ENDBRANCH  21  22
ENDBRANCH  10  21
ENDBRANCH   1  10
BRANCH   2  25
ATOM     25  N   UNL     1      -3.824   4.166  -4.178  0.00  0.00    -0.343 N 
ATOM     26  H   UNL     1      -4.090   3.255  -4.379  0.00  0.00    +0.144 HD
ATOM     27  H   UNL     1      -3.194   4.626  -4.755  0.00  0.00    +0.144 HD
ENDBRANCH   2  25
BRANCH   3  28
ATOM     28  C   UNL     1      -5.436   2.708  -2.413  0.00  0.00    +0.163 C 
BRANCH  28  29
ATOM     29  C   UNL     1      -6.693   2.586  -3.236  0.00  0.00    -0.028 A 
ATOM     30  C   UNL     1      -7.923   2.513  -2.610  0.00  0.00    +0.005 A 
ATOM     31  C   UNL     1      -9.076   2.396  -3.365  0.00  0.00    +0.000 A 
ATOM     32  C   UNL     1      -8.999   2.362  -4.744  0.00  0.00    +0.000 A 
ATOM     33  C   UNL     1      -7.768   2.440  -5.370  0.00  0.00    +0.000 A 
ATOM     34  C   UNL     1      -6.615   2.552  -4.615  0.00  0.00    +0.005 A 
ENDBRANCH  28  29
ENDBRANCH   3  28
TORSDOF 8
