REMARK  Name = ZINC36637314
REMARK  16 active torsions:
REMARK  status: ('A' for Active; 'I' for Inactive)
REMARK    1  A    between atoms: C_1  and  C_2
REMARK    2  A    between atoms: C_2  and  C_3
REMARK    3  A    between atoms: C_3  and  C_4
REMARK    4  A    between atoms: C_4  and  N_5
REMARK    5  A    between atoms: N_5  and  C_6
REMARK    6  A    between atoms: N_5  and  S_7
REMARK    7  A    between atoms: S_7  and  C_10
REMARK    8  A    between atoms: C_13  and  C_16
REMARK    9  A    between atoms: N_18  and  C_19
REMARK   10  A    between atoms: C_19  and  C_20
REMARK   11  A    between atoms: C_20  and  N_21
REMARK   12  A    between atoms: N_21  and  C_22
REMARK   13  A    between atoms: N_21  and  C_23
REMARK   14  A    between atoms: C_29  and  O_33
REMARK   15  A    between atoms: O_33  and  C_34
REMARK   16  A    between atoms: C_34  and  C_35
REMARK                            x       y       z     vdW  Elec       q    Type
REMARK                         _______ _______ _______ _____ _____    ______ ____
ROOT
ATOM      1  C   UNL     1      -0.001   2.013  -7.039  0.00  0.00    +0.252 C 
ATOM      2  O   UNL     1      -1.002   2.698  -6.950  0.00  0.00    -0.270 OA
ATOM      3  N   UNL     1       0.947   2.321  -7.946  0.00  0.00    -0.248 N 
ATOM      4  C   UNL     1       0.850   3.490  -8.681  0.00  0.00    +0.168 A 
ATOM      5  N   UNL     1       1.661   3.953  -9.603  0.00  0.00    -0.224 NA
ATOM      6  C   UNL     1       1.439   5.121 -10.246  0.00  0.00    +0.081 A 
ATOM      7  C   UNL     1       2.228   5.728 -11.250  0.00  0.00    +0.032 A 
ATOM      8  C   UNL     1       1.860   6.925 -11.804  0.00  0.00    +0.048 A 
ATOM      9  C   UNL     1       0.704   7.586 -11.402  0.00  0.00    +0.122 A 
ATOM     10  C   UNL     1      -0.093   7.019 -10.419  0.00  0.00    +0.063 A 
ATOM     11  C   UNL     1       0.271   5.819  -9.861  0.00  0.00    +0.044 A 
ATOM     12  S   UNL     1      -0.417   4.749  -8.621  0.00  0.00    -0.052 S 
ENDROOT
BRANCH   1  16
ATOM     13  C   UNL     1       0.505  -1.347  -4.491  0.00  0.00    +0.106 A 
ATOM     14  C   UNL     1      -0.175  -0.232  -4.034  0.00  0.00    +0.029 A 
ATOM     15  C   UNL     1      -0.343   0.863  -4.856  0.00  0.00    +0.015 A 
ATOM     16  C   UNL     1       0.175   0.844  -6.152  0.00  0.00    +0.037 A 
ATOM     17  C   UNL     1       0.861  -0.284  -6.607  0.00  0.00    +0.015 A 
ATOM     18  C   UNL     1       1.026  -1.370  -5.773  0.00  0.00    +0.029 A 
BRANCH  13  19
ATOM     19  S   UNL     1       0.714  -2.741  -3.435  0.00  0.00    +0.061 S 
ATOM     20  O   UNL     1       0.916  -3.865  -4.281  0.00  0.00    -0.153 OA
ATOM     21  O   UNL     1      -0.335  -2.687  -2.478  0.00  0.00    -0.153 OA
BRANCH  19  22
ATOM     22  N   UNL     1       2.127  -2.516  -2.601  0.00  0.00    -0.180 NA
ATOM     23  C   UNL     1       3.390  -3.017  -3.151  0.00  0.00    +0.131 C 
BRANCH  22  24
ATOM     24  C   UNL     1       2.115  -1.817  -1.314  0.00  0.00    +0.109 C 
BRANCH  24  25
ATOM     25  C   UNL     1       2.436  -0.337  -1.535  0.00  0.00    +0.017 C 
BRANCH  25  27
ATOM     26  C   UNL     1       2.744   1.873  -0.412  0.00  0.00    +0.004 C 
ATOM     27  C   UNL     1       2.423   0.394  -0.191  0.00  0.00    -0.002 C 
ENDBRANCH  25  27
ENDBRANCH  24  25
ENDBRANCH  22  24
ENDBRANCH  19  22
ENDBRANCH  13  19
ENDBRANCH   1  16
BRANCH   3  28
ATOM     28  C   UNL     1       2.082   1.417  -8.154  0.00  0.00    +0.097 C 
BRANCH  28  29
ATOM     29  C   UNL     1       1.869   0.621  -9.444  0.00  0.00    -0.060 C 
BRANCH  29  30
ATOM     30  N   UNL     1       3.062  -0.191  -9.720  0.00  0.00    +0.377 N 
ATOM     31  C   UNL     1       3.221  -1.201  -8.665  0.00  0.00    -0.097 C 
ATOM     32  C   UNL     1       2.909  -0.860 -11.019  0.00  0.00    -0.097 C 
ATOM     33  H   UNL     1       3.876   0.404  -9.741  0.00  0.00    -0.083 HD
ENDBRANCH  29  30
ENDBRANCH  28  29
ENDBRANCH   3  28
BRANCH   9  34
ATOM     34  O   UNL     1       0.359   8.775 -11.966  0.00  0.00    -0.492 OA
BRANCH  34  35
ATOM     35  C   UNL     1       1.232   9.293 -12.971  0.00  0.00    +0.225 C 
ATOM     36  C   UNL     1       0.685  10.627 -13.484  0.00  0.00    +0.048 C 
ENDBRANCH  34  35
ENDBRANCH   9  34
TORSDOF 11
