REMARK  Name = ZINC39676506
REMARK  9 active torsions:
REMARK  status: ('A' for Active; 'I' for Inactive)
REMARK    1  A    between atoms: C_1  and  C_2
REMARK    2  A    between atoms: C_2  and  C_3
REMARK    3  A    between atoms: C_3  and  C_5
REMARK    4  A    between atoms: C_3  and  C_6
REMARK    5  A    between atoms: C_6  and  C_7
REMARK    6  A    between atoms: C_11  and  C_20
REMARK    7  A    between atoms: N_22  and  C_23
REMARK    8  A    between atoms: C_23  and  C_24
REMARK    9  A    between atoms: C_24  and  C_25
REMARK                            x       y       z     vdW  Elec       q    Type
REMARK                         _______ _______ _______ _____ _____    ______ ____
ROOT
ATOM      1  C   UNL     1       1.453  -2.568   2.145  0.00  0.00    +0.216 C 
ATOM      2  O   UNL     1       1.827  -1.708   2.914  0.00  0.00    -0.276 OA
ATOM      3  N   UNL     1       1.793  -3.855   2.357  0.00  0.00    -0.300 N 
ATOM      4  C   UNL     1       1.440  -5.035   1.533  0.00  0.00    +0.121 C 
ATOM      5  C   UNL     1       2.716  -5.906   1.531  0.00  0.00    +0.100 C 
ATOM      6  C   UNL     1       3.476  -5.492   2.803  0.00  0.00    -0.004 C 
ATOM      7  C   UNL     1       2.611  -4.409   3.463  0.00  0.00    +0.115 C 
ATOM      8  C   UNL     1       4.842  -4.919   2.439  0.00  0.00    -0.010 C 
ATOM      9  C   UNL     1       5.600  -4.568   3.723  0.00  0.00    -0.082 C 
ATOM     10  N   UNL     1       5.756  -5.774   4.546  0.00  0.00    +0.379 N 
ATOM     11  C   UNL     1       4.439  -6.266   4.968  0.00  0.00    -0.082 C 
ATOM     12  C   UNL     1       3.631  -6.688   3.737  0.00  0.00    -0.010 C 
ATOM     13  H   UNL     1       6.224  -6.488   4.009  0.00  0.00    -0.086 HD
ATOM     14  H   UNL     1       6.308  -5.553   5.361  0.00  0.00    -0.086 HD
ENDROOT
BRANCH   5  15
ATOM     15  C   UNL     1       3.546  -5.619   0.305  0.00  0.00    +0.218 C 
ATOM     16  O   UNL     1       3.521  -4.516  -0.199  0.00  0.00    -0.275 OA
ATOM     17  N   UNL     1       4.314  -6.588  -0.230  0.00  0.00    -0.315 N 
ATOM     18  H   UNL     1       4.334  -7.470   0.173  0.00  0.00    +0.149 HD
BRANCH  17  19
ATOM     19  C   UNL     1       5.120  -6.309  -1.422  0.00  0.00    +0.109 C 
BRANCH  19  20
ATOM     20  C   UNL     1       5.892  -7.568  -1.821  0.00  0.00    +0.056 C 
BRANCH  20  21
ATOM     21  C   UNL     1       6.721  -7.281  -3.046  0.00  0.00    -0.021 A 
ATOM     22  C   UNL     1       8.060  -6.687  -3.073  0.00  0.00    +0.004 A 
ATOM     23  C   UNL     1       8.938  -6.230  -2.088  0.00  0.00    +0.030 A 
ATOM     24  C   UNL     1      10.161  -5.710  -2.453  0.00  0.00    +0.042 A 
ATOM     25  C   UNL     1      10.521  -5.639  -3.793  0.00  0.00    +0.022 A 
ATOM     26  C   UNL     1       9.665  -6.086  -4.776  0.00  0.00    +0.027 A 
ATOM     27  C   UNL     1       8.427  -6.614  -4.429  0.00  0.00    +0.047 A 
ATOM     28  N   UNL     1       7.379  -7.130  -5.161  0.00  0.00    -0.360 N 
ATOM     29  C   UNL     1       6.376  -7.527  -4.320  0.00  0.00    +0.087 A 
ATOM     30 CL   UNL     1      11.256  -5.141  -1.233  0.00  0.00    -0.084 Cl
ATOM     31  H   UNL     1       7.358  -7.204  -6.128  0.00  0.00    +0.165 HD
ENDBRANCH  20  21
ENDBRANCH  19  20
ENDBRANCH  17  19
ENDBRANCH   5  15
BRANCH   1  32
ATOM     32  C   UNL     1       0.608  -2.198   0.954  0.00  0.00    +0.099 C 
BRANCH  32  33
ATOM     33  C   UNL     1       0.369  -0.687   0.948  0.00  0.00    -0.006 C 
ATOM     34  C   UNL     1      -0.464  -0.298   2.171  0.00  0.00    +0.008 C 
BRANCH  33  36
ATOM     35  C   UNL     1      -0.512   1.228  -0.393  0.00  0.00    +0.004 C 
ATOM     36  C   UNL     1      -0.382  -0.295  -0.326  0.00  0.00    +0.000 C 
ENDBRANCH  33  36
ENDBRANCH  32  33
ENDBRANCH   1  32
TORSDOF 7
