REMARK  Name = ZINC17287324
REMARK  11 active torsions:
REMARK  status: ('A' for Active; 'I' for Inactive)
REMARK    1  A    between atoms: C_1  and  O_2
REMARK    2  A    between atoms: O_2  and  C_3
REMARK    3  A    between atoms: C_24  and  O_36
REMARK    4  A    between atoms: C_26  and  O_34
REMARK    5  A    between atoms: C_28  and  C_30
REMARK    6  A    between atoms: C_30  and  O_32
REMARK    7  A    between atoms: O_32  and  C_33
REMARK    8  A    between atoms: O_34  and  C_35
REMARK    9  A    between atoms: O_36  and  C_37
REMARK   10  A    between atoms: C_37  and  C_39
REMARK   11  A    between atoms: C_42  and  N_45
REMARK                            x       y       z     vdW  Elec       q    Type
REMARK                         _______ _______ _______ _____ _____    ______ ____
ROOT
ATOM      1  C   UNL     1      -1.975   1.163   1.348  0.00  0.00    +0.122 A 
ATOM      2  C   UNL     1      -2.568   0.363   0.379  0.00  0.00    +0.046 A 
ATOM      3  C   UNL     1      -3.868  -0.065   0.483  0.00  0.00    +0.014 A 
ATOM      4  C   UNL     1      -4.584   0.348   1.611  0.00  0.00    +0.003 A 
ATOM      5  C   UNL     1      -3.987   1.170   2.602  0.00  0.00    +0.050 A 
ATOM      6  C   UNL     1      -2.664   1.588   2.477  0.00  0.00    +0.071 A 
ATOM      7  N   UNL     1      -4.930   1.400   3.563  0.00  0.00    -0.359 N 
ATOM      8  H   UNL     1      -4.794   1.932   4.363  0.00  0.00    +0.166 HD
ATOM      9  C   UNL     1      -6.096   0.764   3.229  0.00  0.00    +0.007 A 
ATOM     10  C   UNL     1      -5.940   0.111   2.055  0.00  0.00    -0.022 A 
ATOM     11  C   UNL     1      -7.033  -0.694   1.398  0.00  0.00    +0.019 C 
ATOM     12  C   UNL     1      -8.368  -0.317   2.055  0.00  0.00    -0.073 C 
ATOM     13  C   UNL     1      -7.389   0.754   4.005  0.00  0.00    -0.020 C 
ATOM     14  C   UNL     1      -7.102   0.549   5.494  0.00  0.00    -0.005 C 
ATOM     15  C   UNL     1      -8.431   0.513   6.254  0.00  0.00    +0.006 C 
ATOM     16  C   UNL     1      -9.310  -0.606   5.691  0.00  0.00    -0.020 C 
ATOM     17  C   UNL     1      -9.525  -0.372   4.191  0.00  0.00    -0.074 C 
ATOM     18  C   UNL     1      -8.617  -1.955   5.893  0.00  0.00    +0.049 C 
ATOM     19  C   UNL     1      -8.373  -2.188   7.385  0.00  0.00    +0.206 C 
ATOM     20  C   UNL     1      -7.477  -1.075   7.933  0.00  0.00    +0.172 C 
ATOM     21  C   UNL     1      -8.171   0.274   7.740  0.00  0.00    +0.133 C 
ATOM     22  N   UNL     1      -8.204  -0.385   3.527  0.00  0.00    +0.386 N 
ATOM     23  H   UNL     1      -7.723  -1.259   3.765  0.00  0.00    -0.081 HD
ENDROOT
BRANCH   1  25
ATOM     24  C   UNL     1      -0.013   1.086   0.008  0.00  0.00    +0.277 C 
ATOM     25  O   UNL     1      -0.682   1.547   1.184  0.00  0.00    -0.495 OA
ENDBRANCH   1  25
BRANCH  21  26
ATOM     26  C   UNL     1      -7.290   1.372   8.278  0.00  0.00    +0.313 C 
ATOM     27  O   UNL     1      -6.910   2.255   7.546  0.00  0.00    -0.250 OA
BRANCH  26  28
ATOM     28  O   UNL     1      -6.928   1.370   9.570  0.00  0.00    -0.468 OA
ATOM     29  C   UNL     1      -6.078   2.459  10.019  0.00  0.00    +0.280 C 
ENDBRANCH  26  28
ENDBRANCH  21  26
BRANCH  20  30
ATOM     30  O   UNL     1      -6.232  -1.076   7.230  0.00  0.00    -0.375 OA
ATOM     31  C   UNL     1      -5.231  -1.907   7.822  0.00  0.00    +0.194 C 
ENDBRANCH  20  30
BRANCH  19  32
ATOM     32  O   UNL     1      -9.642  -2.180   8.090  0.00  0.00    -0.455 OA
BRANCH  32  33
ATOM     33  C   UNL     1     -10.278  -3.362   8.218  0.00  0.00    +0.340 C 
ATOM     34  O   UNL     1      -9.786  -4.371   7.753  0.00  0.00    -0.245 OA
BRANCH  33  35
ATOM     35  C   UNL     1     -11.571  -3.430   8.922  0.00  0.00    +0.059 A 
ATOM     36  C   UNL     1     -12.137  -2.271   9.463  0.00  0.00    +0.017 A 
ATOM     37  C   UNL     1     -13.342  -2.337  10.113  0.00  0.00    +0.023 A 
ATOM     38  C   UNL     1     -13.998  -3.558  10.244  0.00  0.00    +0.025 A 
ATOM     39  C   UNL     1     -13.435  -4.715   9.712  0.00  0.00    +0.023 A 
ATOM     40  C   UNL     1     -12.232  -4.655   9.056  0.00  0.00    +0.017 A 
BRANCH  38  41
ATOM     41  N   UNL     1     -15.218  -3.622  10.908  0.00  0.00    -0.358 N 
ATOM     42  H   UNL     1     -15.676  -4.472  11.000  0.00  0.00    +0.142 HD
ATOM     43  H   UNL     1     -15.611  -2.817  11.279  0.00  0.00    +0.142 HD
ENDBRANCH  38  41
ENDBRANCH  33  35
ENDBRANCH  32  33
ENDBRANCH  19  32
TORSDOF 8
