REMARK  Name = ZINC36305735
REMARK  17 active torsions:
REMARK  status: ('A' for Active; 'I' for Inactive)
REMARK    1  A    between atoms: C_1  and  N_2
REMARK    2  A    between atoms: C_3  and  O_30
REMARK    3  A    between atoms: C_4  and  C_13
REMARK    4  A    between atoms: C_5  and  C_7
REMARK    5  A    between atoms: C_13  and  N_14
REMARK    6  A    between atoms: N_14  and  C_15
REMARK    7  A    between atoms: N_14  and  C_19
REMARK    8  A    between atoms: C_15  and  C_16
REMARK    9  A    between atoms: C_16  and  O_17
REMARK   10  A    between atoms: O_17  and  C_18
REMARK   11  A    between atoms: C_19  and  C_20
REMARK   12  A    between atoms: C_20  and  C_22
REMARK   13  A    between atoms: C_20  and  O_29
REMARK   14  A    between atoms: C_22  and  C_23
REMARK   15  A    between atoms: O_30  and  C_31
REMARK   16  A    between atoms: C_36  and  O_37
REMARK   17  A    between atoms: O_37  and  C_38
REMARK                            x       y       z     vdW  Elec       q    Type
REMARK                         _______ _______ _______ _____ _____    ______ ____
ROOT
ATOM      1  C   UNL     1       1.643   1.219   0.021  0.00  0.00    +0.176 C 
ATOM      2  N   UNL     1       1.084  -0.135   0.057  0.00  0.00    -0.235 N 
ATOM      3  C   UNL     1       0.789  -0.905  -1.022  0.00  0.00    +0.221 A 
ATOM      4  C   UNL     1       0.294  -2.084  -0.566  0.00  0.00    +0.025 A 
ATOM      5  C   UNL     1       0.287  -2.032   0.841  0.00  0.00    +0.098 A 
ATOM      6  N   UNL     1       0.767  -0.864   1.210  0.00  0.00    -0.168 NA
ENDROOT
BRANCH   5   7
ATOM      7  C   UNL     1      -0.175  -3.111   1.750  0.00  0.00    +0.002 A 
ATOM      8  C   UNL     1      -1.347  -3.809   1.467  0.00  0.00    +0.010 A 
ATOM      9  C   UNL     1      -1.772  -4.811   2.316  0.00  0.00    +0.001 A 
ATOM     10  C   UNL     1      -1.037  -5.122   3.446  0.00  0.00    +0.000 A 
ATOM     11  C   UNL     1       0.127  -4.431   3.732  0.00  0.00    +0.001 A 
ATOM     12  C   UNL     1       0.564  -3.432   2.887  0.00  0.00    +0.010 A 
ENDBRANCH   5   7
BRANCH   4  13
ATOM     13  C   UNL     1      -0.166  -3.242  -1.414  0.00  0.00    -0.035 C 
BRANCH  13  14
ATOM     14  N   UNL     1       0.992  -4.063  -1.791  0.00  0.00    +0.386 N 
ATOM     15  H   UNL     1       1.681  -3.483  -2.247  0.00  0.00    -0.081 HD
BRANCH  14  16
ATOM     16  C   UNL     1       0.561  -5.125  -2.709  0.00  0.00    -0.050 C 
BRANCH  16  17
ATOM     17  C   UNL     1       0.093  -4.503  -4.026  0.00  0.00    +0.141 C 
BRANCH  17  18
ATOM     18  O   UNL     1       1.189  -3.834  -4.653  0.00  0.00    -0.385 OA
ATOM     19  C   UNL     1       0.858  -3.214  -5.897  0.00  0.00    +0.193 C 
ENDBRANCH  17  18
ENDBRANCH  16  17
ENDBRANCH  14  16
BRANCH  14  20
ATOM     20  C   UNL     1       1.579  -4.665  -0.587  0.00  0.00    -0.046 C 
BRANCH  20  21
ATOM     21  C   UNL     1       2.857  -5.418  -0.963  0.00  0.00    +0.102 C 
BRANCH  21  22
ATOM     22  O   UNL     1       3.835  -4.489  -1.437  0.00  0.00    -0.393 OA
ATOM     23  H   UNL     1       4.082  -3.814  -0.790  0.00  0.00    +0.210 HD
ENDBRANCH  21  22
BRANCH  21  24
ATOM     24  C   UNL     1       3.400  -6.148   0.267  0.00  0.00    +0.064 C 
BRANCH  24  25
ATOM     25  C   UNL     1       4.587  -6.987  -0.131  0.00  0.00    -0.045 A 
ATOM     26  C   UNL     1       4.403  -8.293  -0.545  0.00  0.00    +0.004 A 
ATOM     27  C   UNL     1       5.491  -9.063  -0.909  0.00  0.00    +0.000 A 
ATOM     28  C   UNL     1       6.764  -8.526  -0.861  0.00  0.00    +0.000 A 
ATOM     29  C   UNL     1       6.949  -7.220  -0.448  0.00  0.00    +0.000 A 
ATOM     30  C   UNL     1       5.860  -6.449  -0.087  0.00  0.00    +0.004 A 
ENDBRANCH  24  25
ENDBRANCH  21  24
ENDBRANCH  20  21
ENDBRANCH  14  20
ENDBRANCH  13  14
ENDBRANCH   4  13
BRANCH   3  31
ATOM     31  O   UNL     1       0.958  -0.558  -2.323  0.00  0.00    -0.434 OA
BRANCH  31  32
ATOM     32  C   UNL     1      -0.049   0.116  -2.940  0.00  0.00    +0.172 A 
ATOM     33  C   UNL     1      -1.166   0.509  -2.219  0.00  0.00    +0.050 A 
ATOM     34  C   UNL     1      -2.189   1.193  -2.848  0.00  0.00    +0.004 A 
ATOM     35  C   UNL     1      -2.102   1.487  -4.196  0.00  0.00    +0.004 A 
ATOM     36  C   UNL     1      -0.991   1.097  -4.922  0.00  0.00    +0.049 A 
ATOM     37  C   UNL     1       0.041   0.416  -4.296  0.00  0.00    +0.162 A 
BRANCH  37  38
ATOM     38  O   UNL     1       1.137   0.037  -5.007  0.00  0.00    -0.491 OA
ATOM     39  C   UNL     1       1.161   0.380  -6.394  0.00  0.00    +0.277 C 
ENDBRANCH  37  38
ENDBRANCH  31  32
ENDBRANCH   3  31
TORSDOF 14
