REMARK  Name = ZINC42569194
REMARK  8 active torsions:
REMARK  status: ('A' for Active; 'I' for Inactive)
REMARK    1  A    between atoms: C_1  and  C_2
REMARK    2  A    between atoms: C_7  and  N_8
REMARK    3  A    between atoms: C_9  and  C_11
REMARK    4  A    between atoms: C_11  and  C_13
REMARK    5  A    between atoms: C_11  and  N_14
REMARK    6  A    between atoms: C_17  and  N_20
REMARK    7  A    between atoms: N_20  and  S_21
REMARK    8  A    between atoms: S_21  and  C_24
REMARK                            x       y       z     vdW  Elec       q    Type
REMARK                         _______ _______ _______ _____ _____    ______ ____
ROOT
ATOM      1  C   UNL     1      -0.169   0.054   4.882  0.00  0.00    +0.016 C 
ATOM      2  C   UNL     1       1.026   1.005   4.973  0.00  0.00    -0.004 C 
ENDROOT
BRANCH   1   3
ATOM      3  N   UNL     1      -0.122  -0.900   5.999  0.00  0.00    +0.387 N 
ATOM      4  C   UNL     1      -1.298  -1.776   5.941  0.00  0.00    -0.076 C 
ATOM      5  C   UNL     1      -1.214  -2.823   7.054  0.00  0.00    +0.002 C 
ATOM      6  C   UNL     1      -1.168  -2.115   8.411  0.00  0.00    +0.073 C 
ATOM      7  C   UNL     1       0.020  -1.149   8.432  0.00  0.00    +0.002 C 
ATOM      8  C   UNL     1      -0.111  -0.164   7.269  0.00  0.00    -0.076 C 
ATOM      9  H   UNL     1       0.715  -1.459   5.927  0.00  0.00    -0.081 HD
BRANCH   6  10
ATOM     10  N   UNL     1      -1.010  -3.109   9.476  0.00  0.00    -0.192 NA
ATOM     11  H   UNL     1      -0.474  -3.903   9.324  0.00  0.00    +0.148 HD
BRANCH  10  12
ATOM     12  S   UNL     1      -1.746  -2.876  10.941  0.00  0.00    +0.027 S 
ATOM     13  O   UNL     1      -1.364  -4.000  11.722  0.00  0.00    -0.158 OA
ATOM     14  O   UNL     1      -1.371  -1.562  11.331  0.00  0.00    -0.158 OA
ATOM     15  C   UNL     1      -3.524  -2.938  10.585  0.00  0.00    +0.214 C 
ENDBRANCH  10  12
ENDBRANCH   6  10
ENDBRANCH   1   3
BRANCH   1  17
ATOM     16  N   UNL     1      -0.689  -0.176   2.475  0.00  0.00    -0.287 N 
ATOM     17  C   UNL     1      -0.115  -0.698   3.577  0.00  0.00    +0.203 C 
ATOM     18  O   UNL     1       0.446  -1.772   3.519  0.00  0.00    -0.277 OA
ATOM     19  H   UNL     1      -1.080   0.711   2.506  0.00  0.00    +0.155 HD
BRANCH  16  26
ATOM     20  C   UNL     1      -2.863   0.243   0.689  0.00  0.00    +0.046 C 
ATOM     21  C   UNL     1      -1.762  -0.740   0.386  0.00  0.00    -0.028 A 
ATOM     22  C   UNL     1      -1.788  -1.466  -0.789  0.00  0.00    +0.025 A 
ATOM     23  C   UNL     1      -0.777  -2.369  -1.067  0.00  0.00    +0.041 A 
ATOM     24  C   UNL     1       0.261  -2.548  -0.170  0.00  0.00    +0.022 A 
ATOM     25  C   UNL     1       0.291  -1.825   1.006  0.00  0.00    +0.025 A 
ATOM     26  C   UNL     1      -0.719  -0.914   1.286  0.00  0.00    +0.036 A 
ATOM     27 CL   UNL     1      -0.812  -3.280  -2.544  0.00  0.00    -0.084 Cl
ENDBRANCH  16  26
ENDBRANCH   1  17
TORSDOF 5
