REMARK  Name = ZINC15218178
REMARK  4 active torsions:
REMARK  status: ('A' for Active; 'I' for Inactive)
REMARK    1  A    between atoms: C_1  and  C_2
REMARK    2  A    between atoms: C_2  and  C_18
REMARK    3  A    between atoms: C_4  and  C_9
REMARK    4  A    between atoms: C_10  and  C_11
REMARK                            x       y       z     vdW  Elec       q    Type
REMARK                         _______ _______ _______ _____ _____    ______ ____
ROOT
ATOM      1  C   UNL     1       5.732  -0.802  -0.845  0.00  0.00    +0.036 C 
ATOM      2  C   UNL     1       4.774  -0.335   0.252  0.00  0.00    +0.048 C 
ATOM      3  C   UNL     1       4.785   1.179   0.267  0.00  0.00    +0.021 C 
ATOM      4  C   UNL     1       3.621   1.818   0.079  0.00  0.00    +0.031 C 
ATOM      5  N   UNL     1       2.439   1.107  -0.118  0.00  0.00    -0.297 N 
ATOM      6  C   UNL     1       2.383  -0.231  -0.144  0.00  0.00    +0.135 C 
ATOM      7  S   UNL     1       0.871  -0.993  -0.402  0.00  0.00    -0.019 S 
ATOM      8  N   UNL     1       3.478  -0.997   0.032  0.00  0.00    -0.318 N 
ATOM      9  C   UNL     1       5.328  -0.822   1.592  0.00  0.00    +0.036 C 
ATOM     10  H   UNL     1       1.617   1.606  -0.247  0.00  0.00    +0.154 HD
ATOM     11  H   UNL     1       3.413  -1.964   0.013  0.00  0.00    +0.149 HD
ENDROOT
BRANCH   4  12
ATOM     12  C   UNL     1       3.590   3.288   0.086  0.00  0.00    +0.023 C 
ATOM     13  C   UNL     1       2.412   3.936   0.067  0.00  0.00    +0.011 C 
BRANCH  13  14
ATOM     14  C   UNL     1       1.195   3.265   0.554  0.00  0.00    -0.007 A 
ATOM     15  C   UNL     1       1.268   2.362   1.619  0.00  0.00    +0.009 A 
ATOM     16  C   UNL     1       0.124   1.738   2.070  0.00  0.00    +0.001 A 
ATOM     17  C   UNL     1      -1.094   1.999   1.468  0.00  0.00    +0.001 A 
ATOM     18  C   UNL     1      -1.177   2.894   0.417  0.00  0.00    +0.020 A 
ATOM     19  C   UNL     1      -0.041   3.527  -0.046  0.00  0.00    +0.048 A 
ATOM     20 CL   UNL     1      -0.145   4.646  -1.369  0.00  0.00    -0.083 Cl
ENDBRANCH  13  14
ENDBRANCH   4  12
TORSDOF 2
