REMARK  Name = ZINC04904331
REMARK  7 active torsions:
REMARK  status: ('A' for Active; 'I' for Inactive)
REMARK    1  A    between atoms: C_1  and  C_2
REMARK    2  A    between atoms: C_2  and  N_3
REMARK    3  A    between atoms: N_3  and  N_4
REMARK    4  A    between atoms: C_5  and  C_7
REMARK    5  A    between atoms: C_11  and  O_13
REMARK    6  A    between atoms: C_14  and  C_15
REMARK    7  A    between atoms: N_17  and  C_18
REMARK                            x       y       z     vdW  Elec       q    Type
REMARK                         _______ _______ _______ _____ _____    ______ ____
ROOT
ATOM      1  C   UNL     1       0.002   1.457   0.030  0.00  0.00    +0.062 C 
ATOM      2  C   UNL     1      -0.760   1.507  -1.268  0.00  0.00    +0.024 C 
ATOM      3  C   UNL     1      -2.109   1.524  -1.259  0.00  0.00    +0.087 C 
ENDROOT
BRANCH   3   4
ATOM      4  C   UNL     1      -2.810   1.318  -0.048  0.00  0.00    +0.243 C 
ATOM      5  O   UNL     1      -2.203   1.017   0.964  0.00  0.00    -0.270 OA
ATOM      6  N   UNL     1      -4.150   1.456  -0.013  0.00  0.00    -0.281 N 
ATOM      7  H   UNL     1      -4.623   1.798  -0.788  0.00  0.00    +0.155 HD
BRANCH   6   8
ATOM      8  C   UNL     1      -4.860   1.106   1.141  0.00  0.00    +0.053 A 
ATOM      9  C   UNL     1      -4.278   0.278   2.091  0.00  0.00    +0.044 A 
ATOM     10  C   UNL     1      -4.981  -0.066   3.230  0.00  0.00    +0.043 A 
ATOM     11  C   UNL     1      -6.265   0.413   3.423  0.00  0.00    +0.021 A 
ATOM     12  C   UNL     1      -6.848   1.238   2.479  0.00  0.00    +0.023 A 
ATOM     13  C   UNL     1      -6.147   1.590   1.340  0.00  0.00    +0.062 A 
ATOM     14 CL   UNL     1      -6.877   2.631   0.158  0.00  0.00    -0.082 Cl
ATOM     15 CL   UNL     1      -4.254  -1.101   4.419  0.00  0.00    -0.083 Cl
ENDBRANCH   6   8
ENDBRANCH   3   4
BRANCH   2  16
ATOM     16  N   UNL     1      -0.085   1.536  -2.457  0.00  0.00    -0.268 N 
ATOM     17  H   UNL     1       0.885   1.524  -2.464  0.00  0.00    +0.170 HD
BRANCH  16  18
ATOM     18  N   UNL     1      -0.794   1.582  -3.664  0.00  0.00    -0.233 N 
ATOM     19  C   UNL     1      -0.128   1.611  -4.836  0.00  0.00    +0.260 C 
ATOM     20  O   UNL     1       1.087   1.596  -4.845  0.00  0.00    -0.269 OA
ATOM     21  H   UNL     1      -1.764   1.594  -3.657  0.00  0.00    +0.173 HD
BRANCH  19  22
ATOM     22  C   UNL     1      -0.876   1.660  -6.110  0.00  0.00    +0.042 A 
ATOM     23  C   UNL     1      -2.272   1.683  -6.103  0.00  0.00    +0.013 A 
ATOM     24  C   UNL     1      -2.967   1.728  -7.294  0.00  0.00    +0.004 A 
ATOM     25  C   UNL     1      -2.285   1.751  -8.497  0.00  0.00    +0.045 A 
ATOM     26  C   UNL     1      -0.897   1.729  -8.514  0.00  0.00    +0.118 A 
ATOM     27  C   UNL     1      -0.190   1.689  -7.324  0.00  0.00    +0.058 A 
BRANCH  26  28
ATOM     28  O   UNL     1      -0.232   1.751  -9.699  0.00  0.00    -0.507 OA
ATOM     29  H   UNL     1      -0.025   2.640 -10.017  0.00  0.00    +0.292 HD
ENDBRANCH  26  28
ENDBRANCH  19  22
ENDBRANCH  16  18
ENDBRANCH   2  16
TORSDOF 6
