REMARK  Name = ZINC08899996
REMARK  9 active torsions:
REMARK  status: ('A' for Active; 'I' for Inactive)
REMARK    1  A    between atoms: C_3  and  C_14
REMARK    2  A    between atoms: C_6  and  C_7
REMARK    3  A    between atoms: C_10  and  O_13
REMARK    4  A    between atoms: C_14  and  O_16
REMARK    5  A    between atoms: O_16  and  C_17
REMARK    6  A    between atoms: C_17  and  C_18
REMARK    7  A    between atoms: N_20  and  C_21
REMARK    8  A    between atoms: C_24  and  S_28
REMARK    9  A    between atoms: S_28  and  N_31
REMARK                            x       y       z     vdW  Elec       q    Type
REMARK                         _______ _______ _______ _____ _____    ______ ____
ROOT
ATOM      1  C   UNL     1       3.675   5.921  -0.509  0.00  0.00    +0.328 C 
ENDROOT
BRANCH   1   2
ATOM      2  C   UNL     1       2.368   5.180  -0.392  0.00  0.00    +0.255 C 
ATOM      3  O   UNL     1       1.326   5.744  -0.652  0.00  0.00    -0.272 OA
ATOM      4  N   UNL     1       2.357   3.891   0.000  0.00  0.00    -0.280 N 
ATOM      5  H   UNL     1       3.182   3.461   0.277  0.00  0.00    +0.155 HD
BRANCH   4   6
ATOM      6  C   UNL     1       1.156   3.171   0.007  0.00  0.00    +0.071 A 
ATOM      7  C   UNL     1       0.748   2.485  -1.129  0.00  0.00    +0.065 A 
ATOM      8  C   UNL     1      -0.439   1.776  -1.119  0.00  0.00    +0.050 A 
ATOM      9  C   UNL     1      -1.223   1.755   0.020  0.00  0.00    +0.108 A 
ATOM     10  C   UNL     1      -0.817   2.432   1.155  0.00  0.00    +0.050 A 
ATOM     11  C   UNL     1       0.368   3.143   1.152  0.00  0.00    +0.065 A 
ATOM     12 CL   UNL     1       0.873   3.998   2.575  0.00  0.00    -0.082 Cl
ATOM     13 CL   UNL     1       1.728   2.516  -2.562  0.00  0.00    -0.082 Cl
BRANCH   9  14
ATOM     14  S   UNL     1      -2.739   0.857   0.027  0.00  0.00    +0.056 S 
ATOM     15  O   UNL     1      -3.553   1.442   1.034  0.00  0.00    -0.153 OA
ATOM     16  O   UNL     1      -3.157   0.756  -1.327  0.00  0.00    -0.153 OA
BRANCH  14  17
ATOM     17  N   UNL     1      -2.394  -0.682   0.532  0.00  0.00    -0.204 NA
ATOM     18  H   UNL     1      -3.062  -1.196   1.012  0.00  0.00    +0.144 HD
ATOM     19  H   UNL     1      -1.524  -1.070   0.347  0.00  0.00    +0.144 HD
ENDBRANCH  14  17
ENDBRANCH   9  14
ENDBRANCH   4   6
ENDBRANCH   1   2
BRANCH   1  20
ATOM     20  O   UNL     1       3.423   7.282  -0.946  0.00  0.00    -0.452 OA
BRANCH  20  21
ATOM     21  C   UNL     1       4.495   8.084  -1.101  0.00  0.00    +0.340 C 
ATOM     22  O   UNL     1       5.610   7.657  -0.877  0.00  0.00    -0.245 OA
BRANCH  21  25
ATOM     23  C   UNL     1       5.256  11.614  -2.115  0.00  0.00    +0.009 A 
ATOM     24  C   UNL     1       5.426  10.312  -1.703  0.00  0.00    +0.015 A 
ATOM     25  C   UNL     1       4.314   9.480  -1.542  0.00  0.00    +0.059 A 
ATOM     26  C   UNL     1       3.032   9.971  -1.805  0.00  0.00    +0.015 A 
ATOM     27  C   UNL     1       2.864  11.274  -2.211  0.00  0.00    +0.009 A 
ATOM     28  C   UNL     1       3.975  12.104  -2.372  0.00  0.00    -0.018 A 
BRANCH  28  29
ATOM     29  C   UNL     1       3.793  13.507  -2.816  0.00  0.00    -0.018 A 
ATOM     30  C   UNL     1       4.901  14.339  -2.971  0.00  0.00    +0.012 A 
ATOM     31  C   UNL     1       4.730  15.641  -3.390  0.00  0.00    +0.046 A 
ATOM     32  C   UNL     1       3.454  16.128  -3.646  0.00  0.00    +0.117 A 
ATOM     33  C   UNL     1       2.348  15.303  -3.486  0.00  0.00    +0.046 A 
ATOM     34  C   UNL     1       2.514  13.998  -3.073  0.00  0.00    +0.012 A 
BRANCH  32  35
ATOM     35  O   UNL     1       3.288  17.413  -4.054  0.00  0.00    -0.507 OA
ATOM     36  H   UNL     1       3.170  18.043  -3.330  0.00  0.00    +0.292 HD
ENDBRANCH  32  35
ENDBRANCH  28  29
ENDBRANCH  21  25
ENDBRANCH  20  21
ENDBRANCH   1  20
TORSDOF 9
