REMARK  Name = ZINC39612797
REMARK  7 active torsions:
REMARK  status: ('A' for Active; 'I' for Inactive)
REMARK    1  A    between atoms: C_7  and  C_10
REMARK    2  A    between atoms: C_10  and  C_11
REMARK    3  A    between atoms: C_11  and  C_12
REMARK    4  A    between atoms: N_14  and  N_15
REMARK    5  A    between atoms: C_16  and  C_18
REMARK    6  A    between atoms: C_18  and  N_19
REMARK    7  A    between atoms: C_27  and  C_29
REMARK                            x       y       z     vdW  Elec       q    Type
REMARK                         _______ _______ _______ _____ _____    ______ ____
ROOT
ATOM      1  N   UNL     1      -5.637   7.066  -2.507  0.00  0.00    -0.233 N 
ATOM      2  C   UNL     1      -5.795   7.738  -3.665  0.00  0.00    +0.246 C 
ATOM      3  O   UNL     1      -5.501   7.210  -4.717  0.00  0.00    -0.273 OA
ATOM      4  H   UNL     1      -5.872   7.488  -1.666  0.00  0.00    +0.173 HD
ENDROOT
BRANCH   1   7
ATOM      5  C   UNL     1      -4.978   5.087  -1.361  0.00  0.00    +0.229 C 
ATOM      6  O   UNL     1      -5.271   5.614  -0.309  0.00  0.00    -0.274 OA
ATOM      7  N   UNL     1      -5.135   5.758  -2.519  0.00  0.00    -0.234 N 
ATOM      8  H   UNL     1      -4.900   5.336  -3.360  0.00  0.00    +0.173 HD
BRANCH   5   9
ATOM      9  C   UNL     1      -4.437   3.680  -1.374  0.00  0.00    +0.102 C 
BRANCH   9  10
ATOM     10  C   UNL     1      -4.358   3.151   0.060  0.00  0.00    +0.046 C 
BRANCH  10  17
ATOM     11  C   UNL     1      -0.017   1.384   0.010  0.00  0.00    +0.001 A 
ATOM     12  C   UNL     1       0.002  -0.004   0.002  0.00  0.00    +0.002 A 
ATOM     13  C   UNL     1      -1.173  -0.723   0.009  0.00  0.00    +0.026 A 
ATOM     14  C   UNL     1      -2.392  -0.053   0.024  0.00  0.00    +0.047 A 
ATOM     15  N   UNL     1      -3.704  -0.472   0.034  0.00  0.00    -0.360 N 
ATOM     16  C   UNL     1      -4.539   0.612   0.047  0.00  0.00    +0.087 A 
ATOM     17  C   UNL     1      -3.818   1.744   0.047  0.00  0.00    -0.022 A 
ATOM     18  C   UNL     1      -2.406   1.353   0.032  0.00  0.00    +0.003 A 
ATOM     19  C   UNL     1      -1.203   2.062   0.030  0.00  0.00    +0.010 A 
ATOM     20  H   UNL     1      -3.993  -1.398   0.030  0.00  0.00    +0.165 HD
ENDBRANCH  10  17
ENDBRANCH   9  10
ENDBRANCH   5   9
ENDBRANCH   1   7
BRANCH   2  21
ATOM     21  C   UNL     1      -6.335   9.145  -3.653  0.00  0.00    +0.204 C 
BRANCH  21  22
ATOM     22  N   UNL     1      -6.410   9.651  -5.026  0.00  0.00    -0.294 N 
ATOM     23  C   UNL     1      -5.400  10.336  -5.715  0.00  0.00    +0.053 A 
ATOM     24  C   UNL     1      -4.122  10.703  -5.311  0.00  0.00    +0.025 A 
ATOM     25  C   UNL     1      -3.290  11.385  -6.178  0.00  0.00    +0.002 A 
ATOM     26  C   UNL     1      -3.725  11.705  -7.451  0.00  0.00    +0.002 A 
ATOM     27  C   UNL     1      -4.995  11.344  -7.861  0.00  0.00    +0.025 A 
ATOM     28  C   UNL     1      -5.838  10.657  -6.996  0.00  0.00    +0.050 A 
ATOM     29  N   UNL     1      -7.148  10.192  -7.181  0.00  0.00    -0.317 N 
ATOM     30  C   UNL     1      -7.556   9.530  -5.936  0.00  0.00    +0.266 C 
ATOM     31  H   UNL     1      -7.684  10.286  -7.983  0.00  0.00    +0.148 HD
BRANCH  30  32
ATOM     32  C   UNL     1      -7.869   8.055  -6.197  0.00  0.00    +0.424 C 
ATOM     33  F   UNL     1      -8.176   7.422  -4.987  0.00  0.00    -0.167 F 
ATOM     34  F   UNL     1      -8.961   7.957  -7.065  0.00  0.00    -0.167 F 
ATOM     35  F   UNL     1      -6.755   7.437  -6.776  0.00  0.00    -0.167 F 
ENDBRANCH  30  32
ENDBRANCH  21  22
ENDBRANCH   2  21
TORSDOF 7
