REMARK  Name = ZINC44713608
REMARK  8 active torsions:
REMARK  status: ('A' for Active; 'I' for Inactive)
REMARK    1  A    between atoms: C_1  and  C_2
REMARK    2  A    between atoms: C_5  and  C_8
REMARK    3  A    between atoms: C_12  and  C_21
REMARK    4  A    between atoms: N_23  and  C_24
REMARK    5  A    between atoms: C_24  and  C_26
REMARK    6  A    between atoms: C_24  and  C_27
REMARK    7  A    between atoms: C_28  and  C_34
REMARK    8  A    between atoms: C_32  and  C_33
REMARK                            x       y       z     vdW  Elec       q    Type
REMARK                         _______ _______ _______ _____ _____    ______ ____
ROOT
ATOM      1  C   UNL     1       0.075  -4.247  -0.013  0.00  0.00    +0.247 C 
ATOM      2  O   UNL     1      -0.034  -4.844  -1.066  0.00  0.00    -0.270 OA
ATOM      3  N   UNL     1       0.187  -4.932   1.142  0.00  0.00    -0.296 N 
ATOM      4  C   UNL     1       0.197  -4.391   2.522  0.00  0.00    +0.121 C 
ATOM      5  C   UNL     1      -0.627  -5.405   3.345  0.00  0.00    +0.100 C 
ATOM      6  C   UNL     1      -0.536  -6.720   2.552  0.00  0.00    -0.004 C 
ATOM      7  C   UNL     1       0.322  -6.397   1.320  0.00  0.00    +0.115 C 
ATOM      8  C   UNL     1      -1.926  -7.172   2.116  0.00  0.00    -0.010 C 
ATOM      9  C   UNL     1      -1.816  -8.510   1.380  0.00  0.00    -0.082 C 
ATOM     10  N   UNL     1      -1.210  -9.510   2.267  0.00  0.00    +0.379 N 
ATOM     11  C   UNL     1       0.162  -9.113   2.607  0.00  0.00    -0.082 C 
ATOM     12  C   UNL     1       0.135  -7.800   3.395  0.00  0.00    -0.010 C 
ATOM     13  H   UNL     1      -1.757  -9.584   3.112  0.00  0.00    -0.086 HD
ATOM     14  H   UNL     1      -1.194 -10.405   1.801  0.00  0.00    -0.086 HD
ENDROOT
BRANCH   1  19
ATOM     15  C   UNL     1       0.113   1.508   0.039  0.00  0.00    +0.044 C 
ATOM     16  C   UNL     1       0.103   0.001   0.025  0.00  0.00    -0.050 A 
ATOM     17  C   UNL     1      -0.505  -0.675  -1.018  0.00  0.00    +0.004 A 
ATOM     18  C   UNL     1      -0.518  -2.054  -1.037  0.00  0.00    +0.013 A 
ATOM     19  C   UNL     1       0.085  -2.768  -0.000  0.00  0.00    +0.037 A 
ATOM     20  C   UNL     1       0.697  -2.081   1.049  0.00  0.00    +0.013 A 
ATOM     21  C   UNL     1       0.707  -0.701   1.053  0.00  0.00    +0.004 A 
ENDBRANCH   1  19
BRANCH   5  22
ATOM     22  C   UNL     1      -2.061  -4.953   3.452  0.00  0.00    +0.219 C 
ATOM     23  O   UNL     1      -2.584  -4.371   2.526  0.00  0.00    -0.275 OA
ATOM     24  N   UNL     1      -2.761  -5.195   4.578  0.00  0.00    -0.308 N 
ATOM     25  H   UNL     1      -2.343  -5.660   5.319  0.00  0.00    +0.149 HD
BRANCH  24  26
ATOM     26  C   UNL     1      -4.155  -4.755   4.682  0.00  0.00    +0.104 C 
ATOM     27  C   UNL     1      -4.200  -3.335   5.250  0.00  0.00    +0.033 C 
BRANCH  26  28
ATOM     28  C   UNL     1      -4.908  -5.686   5.597  0.00  0.00    +0.015 A 
ATOM     29  C   UNL     1      -6.089  -6.288   5.324  0.00  0.00    +0.038 A 
ATOM     30  N   UNL     1      -6.426  -7.037   6.394  0.00  0.00    -0.281 N 
ATOM     31  H   UNL     1      -7.224  -7.581   6.481  0.00  0.00    +0.189 HD
ATOM     32  N   UNL     1      -5.420  -6.890   7.358  0.00  0.00    -0.179 NA
ATOM     33  C   UNL     1      -4.508  -6.085   6.877  0.00  0.00    +0.065 A 
ATOM     34  C   UNL     1      -3.246  -5.657   7.581  0.00  0.00    +0.068 C 
ATOM     35  C   UNL     1      -6.884  -6.148   4.051  0.00  0.00    +0.065 C 
ENDBRANCH  26  28
ENDBRANCH  24  26
ENDBRANCH   5  22
TORSDOF 4
