REMARK  Name = ZINC35929059
REMARK  6 active torsions:
REMARK  status: ('A' for Active; 'I' for Inactive)
REMARK    1  A    between atoms: C_1  and  O_2
REMARK    2  A    between atoms: O_2  and  C_3
REMARK    3  A    between atoms: C_6  and  C_10
REMARK    4  A    between atoms: C_12  and  N_38
REMARK    5  A    between atoms: N_13  and  C_31
REMARK    6  A    between atoms: C_31  and  C_32
REMARK                            x       y       z     vdW  Elec       q    Type
REMARK                         _______ _______ _______ _____ _____    ______ ____
ROOT
ATOM      1  C   UNL     1       2.259  -2.481   4.294  0.00  0.00    +0.091 A 
ATOM      2  C   UNL     1       2.365  -3.879   4.472  0.00  0.00    +0.086 A 
ATOM      3  C   UNL     1       1.946  -5.006   3.775  0.00  0.00    +0.126 A 
ATOM      4  N   UNL     1       2.359  -6.084   4.464  0.00  0.00    -0.244 N 
ATOM      5  N   UNL     1       3.049  -5.682   5.613  0.00  0.00    -0.149 NA
ATOM      6  C   UNL     1       3.080  -4.369   5.664  0.00  0.00    +0.188 A 
ATOM      7  N   UNL     1       3.590  -3.454   6.513  0.00  0.00    -0.193 NA
ATOM      8  C   UNL     1       3.445  -2.168   6.270  0.00  0.00    +0.220 A 
ATOM      9  N   UNL     1       2.812  -1.687   5.204  0.00  0.00    -0.213 NA
ATOM     10  N   UNL     1       3.985  -1.267   7.170  0.00  0.00    -0.297 N 
ATOM     11  C   UNL     1       3.849   0.180   6.954  0.00  0.00    +0.127 C 
ATOM     12  C   UNL     1       3.203   0.803   8.198  0.00  0.00    +0.125 C 
ATOM     13  N   UNL     1       3.924   0.329   9.388  0.00  0.00    -0.314 N 
ATOM     14  C   UNL     1       4.060  -1.118   9.604  0.00  0.00    +0.125 C 
ATOM     15  C   UNL     1       4.701  -1.741   8.363  0.00  0.00    +0.127 C 
ATOM     16  C   UNL     1       4.467   1.234  10.293  0.00  0.00    +0.099 A 
ATOM     17  C   UNL     1       4.209   2.593  10.148  0.00  0.00    +0.042 A 
ATOM     18  C   UNL     1       4.756   3.482  11.055  0.00  0.00    +0.005 A 
ATOM     19  C   UNL     1       5.546   2.980  12.081  0.00  0.00    +0.018 A 
ATOM     20  C   UNL     1       5.761   1.619  12.165  0.00  0.00    +0.084 A 
ATOM     21  N   UNL     1       5.221   0.794  11.288  0.00  0.00    -0.350 N 
ATOM     22  H   UNL     1       5.385  -0.159  11.372  0.00  0.00    +0.166 HD
ENDROOT
BRANCH   1  26
ATOM     23  C   UNL     1       0.237  -0.857   0.926  0.00  0.00    +0.123 A 
ATOM     24  C   UNL     1      -0.422  -1.740   1.773  0.00  0.00    +0.046 A 
ATOM     25  C   UNL     1       0.230  -2.269   2.865  0.00  0.00    +0.016 A 
ATOM     26  C   UNL     1       1.556  -1.916   3.123  0.00  0.00    +0.037 A 
ATOM     27  C   UNL     1       2.217  -1.027   2.269  0.00  0.00    +0.136 A 
ATOM     28  C   UNL     1       1.558  -0.506   1.174  0.00  0.00    +0.084 A 
ATOM     29  F   UNL     1       3.501  -0.682   2.514  0.00  0.00    -0.205 F 
BRANCH  23  31
ATOM     30  C   UNL     1      -1.768  -0.741  -0.344  0.00  0.00    +0.277 C 
ATOM     31  O   UNL     1      -0.410  -0.339  -0.149  0.00  0.00    -0.495 OA
ENDBRANCH  23  31
ENDBRANCH   1  26
BRANCH   3  32
ATOM     32  N   UNL     1       1.234  -5.016   2.590  0.00  0.00    -0.343 N 
ATOM     33  H   UNL     1       1.098  -4.190   2.099  0.00  0.00    +0.144 HD
ATOM     34  H   UNL     1       0.872  -5.848   2.249  0.00  0.00    +0.144 HD
ENDBRANCH   3  32
BRANCH   4  35
ATOM     35  C   UNL     1       2.121  -7.475   4.069  0.00  0.00    +0.180 C 
BRANCH  35  36
ATOM     36  C   UNL     1       3.257  -7.953   3.203  0.00  0.00    -0.026 A 
ATOM     37  C   UNL     1       3.196  -7.791   1.831  0.00  0.00    +0.005 A 
ATOM     38  C   UNL     1       4.239  -8.229   1.036  0.00  0.00    +0.000 A 
ATOM     39  C   UNL     1       5.343  -8.829   1.613  0.00  0.00    +0.000 A 
ATOM     40  C   UNL     1       5.404  -8.991   2.985  0.00  0.00    +0.000 A 
ATOM     41  C   UNL     1       4.364  -8.548   3.780  0.00  0.00    +0.005 A 
ENDBRANCH  35  36
ENDBRANCH   4  35
TORSDOF 5
