REMARK  Name = ZINC36571030
REMARK  15 active torsions:
REMARK  status: ('A' for Active; 'I' for Inactive)
REMARK    1  A    between atoms: C_1  and  C_2
REMARK    2  A    between atoms: C_2  and  C_3
REMARK    3  A    between atoms: C_3  and  N_4
REMARK    4  A    between atoms: N_4  and  C_5
REMARK    5  A    between atoms: C_5  and  C_7
REMARK    6  A    between atoms: C_5  and  C_19
REMARK    7  A    between atoms: C_16  and  O_17
REMARK    8  A    between atoms: O_17  and  C_18
REMARK    9  A    between atoms: N_21  and  C_22
REMARK   10  A    between atoms: C_22  and  C_23
REMARK   11  A    between atoms: C_22  and  C_24
REMARK   12  A    between atoms: C_22  and  C_25
REMARK   13  A    between atoms: C_26  and  C_28
REMARK   14  A    between atoms: C_29  and  O_35
REMARK   15  A    between atoms: C_33  and  O_34
REMARK                            x       y       z     vdW  Elec       q    Type
REMARK                         _______ _______ _______ _____ _____    ______ ____
ROOT
ATOM      1  C   UNL     1       2.341  -2.291   0.872  0.00  0.00    +0.196 C 
ENDROOT
BRANCH   1   2
ATOM      2  C   UNL     1       2.108  -1.118  -0.045  0.00  0.00    +0.031 A 
ATOM      3  C   UNL     1       0.801  -0.751  -0.406  0.00  0.00    -0.009 A 
ATOM      4  C   UNL     1      -0.313  -1.460   0.074  0.00  0.00    +0.009 A 
ATOM      5  C   UNL     1      -1.566  -1.077  -0.295  0.00  0.00    +0.001 A 
ATOM      6  C   UNL     1      -1.761   0.011  -1.145  0.00  0.00    +0.001 A 
ATOM      7  C   UNL     1      -0.706   0.721  -1.629  0.00  0.00    +0.008 A 
ATOM      8  C   UNL     1       0.602   0.355  -1.269  0.00  0.00    -0.017 A 
ATOM      9  C   UNL     1       1.716   1.066  -1.750  0.00  0.00    +0.012 A 
ATOM     10  C   UNL     1       2.969   0.685  -1.383  0.00  0.00    +0.046 A 
ATOM     11  C   UNL     1       3.168  -0.403  -0.526  0.00  0.00    +0.126 A 
BRANCH  11  12
ATOM     12  O   UNL     1       4.431  -0.755  -0.172  0.00  0.00    -0.495 OA
ATOM     13  C   UNL     1       5.496   0.049  -0.683  0.00  0.00    +0.277 C 
ENDBRANCH  11  12
ENDBRANCH   1   2
BRANCH   1  14
ATOM     14  C   UNL     1       3.814  -2.602   0.927  0.00  0.00    +0.239 C 
ATOM     15  O   UNL     1       4.502  -2.127   1.805  0.00  0.00    -0.273 OA
ATOM     16  N   UNL     1       4.367  -3.409  -0.001  0.00  0.00    -0.309 N 
ATOM     17  H   UNL     1       3.831  -3.738  -0.739  0.00  0.00    +0.149 HD
BRANCH  16  18
ATOM     18  C   UNL     1       5.778  -3.789   0.106  0.00  0.00    +0.026 C 
ATOM     19  C   UNL     1       5.991  -4.601   1.386  0.00  0.00    +0.031 C 
ATOM     20  C   UNL     1       6.171  -4.636  -1.106  0.00  0.00    +0.031 C 
ATOM     21  C   UNL     1       6.644  -2.529   0.151  0.00  0.00    +0.031 C 
ENDBRANCH  16  18
ENDBRANCH   1  14
BRANCH   1  22
ATOM     22  N   UNL     1       1.861  -1.961   2.217  0.00  0.00    -0.282 N 
ATOM     23  C   UNL     1       0.986  -2.776   2.839  0.00  0.00    +0.255 C 
ATOM     24  O   UNL     1       0.594  -3.785   2.284  0.00  0.00    -0.270 OA
BRANCH  23  25
ATOM     25  C   UNL     1       0.504  -2.445   4.190  0.00  0.00    +0.119 A 
ATOM     26  C   UNL     1      -0.652  -1.668   4.357  0.00  0.00    +0.133 A 
ATOM     27  C   UNL     1      -1.097  -1.363   5.633  0.00  0.00    +0.046 A 
ATOM     28  C   UNL     1      -0.405  -1.821   6.739  0.00  0.00    +0.007 A 
ATOM     29  C   UNL     1       0.735  -2.587   6.586  0.00  0.00    +0.046 A 
ATOM     30  C   UNL     1       1.194  -2.909   5.319  0.00  0.00    +0.133 A 
BRANCH  30  31
ATOM     31  O   UNL     1       2.310  -3.666   5.172  0.00  0.00    -0.506 OA
ATOM     32  H   UNL     1       3.130  -3.154   5.126  0.00  0.00    +0.292 HD
ENDBRANCH  30  31
BRANCH  26  33
ATOM     33  O   UNL     1      -1.331  -1.217   3.273  0.00  0.00    -0.506 OA
ATOM     34  H   UNL     1      -2.021  -1.820   2.962  0.00  0.00    +0.292 HD
ENDBRANCH  26  33
ENDBRANCH  23  25
BRANCH  22  35
ATOM     35  C   UNL     1       2.333  -0.746   2.885  0.00  0.00    +0.109 C 
BRANCH  35  37
ATOM     36  C   UNL     1       1.879   1.683   3.251  0.00  0.00    +0.005 C 
ATOM     37  C   UNL     1       1.329   0.385   2.656  0.00  0.00    +0.016 C 
ENDBRANCH  35  37
ENDBRANCH  22  35
ENDBRANCH   1  22
TORSDOF 10
