REMARK  Name = ZINC35992059
REMARK  11 active torsions:
REMARK  status: ('A' for Active; 'I' for Inactive)
REMARK    1  A    between atoms: C_1  and  C_2
REMARK    2  A    between atoms: C_2  and  O_3
REMARK    3  A    between atoms: O_3  and  C_4
REMARK    4  A    between atoms: C_4  and  C_6
REMARK    5  A    between atoms: C_7  and  C_22
REMARK    6  A    between atoms: N_8  and  C_21
REMARK    7  A    between atoms: C_12  and  C_14
REMARK    8  A    between atoms: C_17  and  C_20
REMARK    9  A    between atoms: C_22  and  N_23
REMARK   10  A    between atoms: C_27  and  C_30
REMARK   11  A    between atoms: C_31  and  C_33
REMARK                            x       y       z     vdW  Elec       q    Type
REMARK                         _______ _______ _______ _____ _____    ______ ____
ROOT
ATOM      1  C   UNL     1      -0.491  -2.136  -0.852  0.00  0.00    +0.080 C 
ATOM      2  C   UNL     1      -1.124  -3.328  -0.891  0.00  0.00    +0.041 C 
ATOM      3  N   UNL     1      -2.483  -3.401  -1.008  0.00  0.00    -0.260 N 
ATOM      4  C   UNL     1      -3.279  -2.328  -1.090  0.00  0.00    +0.307 C 
ATOM      5  O   UNL     1      -4.479  -2.493  -1.192  0.00  0.00    -0.252 OA
ATOM      6  N   UNL     1      -2.794  -1.071  -1.064  0.00  0.00    -0.288 N 
ATOM      7  C   UNL     1      -1.339  -0.883  -0.935  0.00  0.00    +0.144 C 
ATOM      8  C   UNL     1      -3.104  -4.727  -1.044  0.00  0.00    +0.139 C 
ATOM      9  H   UNL     1      -3.390  -0.307  -1.126  0.00  0.00    +0.151 HD
ENDROOT
BRANCH   7  10
ATOM     10  C   UNL     1      -0.871  -0.083  -2.123  0.00  0.00    -0.022 A 
ATOM     11  C   UNL     1      -1.289  -0.426  -3.395  0.00  0.00    +0.006 A 
ATOM     12  C   UNL     1      -0.860   0.308  -4.485  0.00  0.00    +0.004 A 
ATOM     13  C   UNL     1      -0.013   1.385  -4.302  0.00  0.00    -0.050 A 
ATOM     14  C   UNL     1       0.404   1.729  -3.030  0.00  0.00    +0.004 A 
ATOM     15  C   UNL     1      -0.028   0.997  -1.940  0.00  0.00    +0.006 A 
ATOM     16  C   UNL     1       0.456   2.185  -5.490  0.00  0.00    +0.044 C 
ENDBRANCH   7  10
BRANCH   1  17
ATOM     17  C   UNL     1       0.917  -2.059  -0.731  0.00  0.00    +0.339 C 
ATOM     18  O   UNL     1       1.421  -1.800   0.345  0.00  0.00    -0.245 OA
BRANCH  17  19
ATOM     19  O   UNL     1       1.699  -2.273  -1.809  0.00  0.00    -0.462 OA
BRANCH  19  21
ATOM     20  C   UNL     1       3.828  -2.452  -2.939  0.00  0.00    +0.048 C 
ATOM     21  C   UNL     1       3.112  -2.180  -1.615  0.00  0.00    +0.229 C 
ENDBRANCH  19  21
ENDBRANCH  17  19
ENDBRANCH   1  17
BRANCH   2  22
ATOM     22  C   UNL     1      -0.318  -4.599  -0.806  0.00  0.00    +0.136 C 
BRANCH  22  23
ATOM     23  N   UNL     1      -0.643  -5.302   0.442  0.00  0.00    -0.294 NA
ATOM     24  C   UNL     1      -0.210  -4.527   1.611  0.00  0.00    +0.104 C 
ATOM     25  C   UNL     1      -0.726  -5.202   2.887  0.00  0.00    +0.124 C 
ATOM     26  N   UNL     1      -0.294  -6.608   2.878  0.00  0.00    -0.292 N 
ATOM     27  C   UNL     1      -0.572  -7.414   1.680  0.00  0.00    +0.087 C 
ATOM     28  C   UNL     1      -0.063  -6.652   0.452  0.00  0.00    +0.107 C 
ATOM     29  C   UNL     1       0.147  -8.760   1.788  0.00  0.00    +0.029 C 
ATOM     30  C   UNL     1       0.339  -7.143   3.941  0.00  0.00    +0.247 C 
ATOM     31  O   UNL     1       0.785  -8.273   3.877  0.00  0.00    -0.270 OA
BRANCH  30  32
ATOM     32  C   UNL     1       0.492  -6.358   5.183  0.00  0.00    +0.037 A 
ATOM     33  C   UNL     1      -0.440  -5.370   5.507  0.00  0.00    +0.014 A 
ATOM     34  C   UNL     1      -0.293  -4.641   6.668  0.00  0.00    +0.021 A 
ATOM     35  C   UNL     1       0.778  -4.886   7.512  0.00  0.00    +0.041 A 
ATOM     36  C   UNL     1       1.706  -5.864   7.196  0.00  0.00    +0.021 A 
ATOM     37  C   UNL     1       1.566  -6.604   6.041  0.00  0.00    +0.014 A 
ATOM     38 CL   UNL     1       0.957  -3.963   8.971  0.00  0.00    -0.084 Cl
ENDBRANCH  30  32
ENDBRANCH  22  23
ENDBRANCH   2  22
TORSDOF 7
