REMARK  Name = ZINC06768520
REMARK  4 active torsions:
REMARK  status: ('A' for Active; 'I' for Inactive)
REMARK    1  A    between atoms: C_6  and  C_7
REMARK    2  A    between atoms: C_8  and  N_18
REMARK    3  A    between atoms: C_13  and  C_16
REMARK    4  A    between atoms: N_18  and  C_19
REMARK                            x       y       z     vdW  Elec       q    Type
REMARK                         _______ _______ _______ _____ _____    ______ ____
ROOT
ATOM      1  C   UNL     1       3.357  -1.132  -0.074  0.00  0.00    +0.088 A 
ATOM      2  C   UNL     1       2.102  -1.597  -0.267  0.00  0.00    +0.147 A 
ATOM      3  N   UNL     1       1.323  -0.558  -0.741  0.00  0.00    -0.199 N 
ATOM      4  C   UNL     1       2.105   0.548  -0.839  0.00  0.00    +0.154 A 
ATOM      5  N   UNL     1       3.370   0.216  -0.431  0.00  0.00    -0.336 N 
ATOM      6  H   UNL     1       4.135   0.811  -0.396  0.00  0.00    +0.167 HD
ATOM      7  C   UNL     1       1.297   1.582  -1.319  0.00  0.00    +0.114 A 
ATOM      8  C   UNL     1       0.005   1.043  -1.500  0.00  0.00    +0.156 A 
ATOM      9  N   UNL     1       0.031  -0.216  -1.158  0.00  0.00    -0.170 NA
ENDROOT
BRANCH   1  15
ATOM     10  C   UNL     1       4.357  -2.757   1.527  0.00  0.00    +0.011 A 
ATOM     11  C   UNL     1       5.435  -3.486   1.986  0.00  0.00    +0.020 A 
ATOM     12  C   UNL     1       6.666  -3.374   1.362  0.00  0.00    +0.041 A 
ATOM     13  C   UNL     1       6.823  -2.535   0.271  0.00  0.00    +0.020 A 
ATOM     14  C   UNL     1       5.752  -1.804  -0.200  0.00  0.00    +0.011 A 
ATOM     15  C   UNL     1       4.508  -1.912   0.425  0.00  0.00    +0.002 A 
ATOM     16 CL   UNL     1       8.018  -4.290   1.949  0.00  0.00    -0.084 Cl
ENDBRANCH   1  15
BRANCH   7  17
ATOM     17  C   UNL     1       1.702   2.931  -1.577  0.00  0.00    +0.104 C 
ATOM     18  N   UNL     1       2.023   4.001  -1.782  0.00  0.00    -0.191 NA
ENDBRANCH   7  17
BRANCH   2  19
ATOM     19  N   UNL     1       1.667  -2.899  -0.028  0.00  0.00    -0.324 N 
ATOM     20  H   UNL     1       1.986  -3.526  -0.752  0.00  0.00    +0.148 HD
BRANCH  19  21
ATOM     21  C   UNL     1       0.205  -2.951   0.105  0.00  0.00    +0.072 C 
ATOM     22  C   UNL     1      -0.197  -4.240   0.824  0.00  0.00    +0.022 C 
ATOM     23  C   UNL     1      -1.641  -4.121   1.315  0.00  0.00    +0.002 C 
ATOM     24  C   UNL     1      -1.854  -2.744   1.947  0.00  0.00    +0.000 C 
ATOM     25  C   UNL     1      -2.822  -1.932   1.085  0.00  0.00    +0.000 C 
ATOM     26  C   UNL     1      -2.092  -1.425  -0.161  0.00  0.00    +0.000 C 
ATOM     27  C   UNL     1      -1.920  -2.576  -1.155  0.00  0.00    +0.002 C 
ATOM     28  C   UNL     1      -0.435  -2.921  -1.285  0.00  0.00    +0.022 C 
ENDBRANCH  19  21
ENDBRANCH   2  19
TORSDOF 4
