REMARK  Name = ZINC12506769
REMARK  5 active torsions:
REMARK  status: ('A' for Active; 'I' for Inactive)
REMARK    1  A    between atoms: C_1  and  O_2
REMARK    2  A    between atoms: O_2  and  C_3
REMARK    3  A    between atoms: C_5  and  C_12
REMARK    4  A    between atoms: C_8  and  O_9
REMARK    5  A    between atoms: O_9  and  C_10
REMARK                            x       y       z     vdW  Elec       q    Type
REMARK                         _______ _______ _______ _____ _____    ______ ____
ROOT
ATOM      1  C   UNL     1       2.402   0.381  -4.230  0.00  0.00    +0.209 C 
ATOM      2  N   UNL     1       2.143  -0.241  -5.542  0.00  0.00    -0.294 N 
ATOM      3  C   UNL     1       2.962  -1.289  -5.936  0.00  0.00    +0.159 C 
ATOM      4  N   UNL     1       4.338  -1.060  -5.876  0.00  0.00    -0.259 N 
ATOM      5  C   UNL     1       4.754  -0.244  -4.825  0.00  0.00    +0.205 A 
ATOM      6  N   UNL     1       3.856   0.447  -4.046  0.00  0.00    -0.288 N 
ATOM      7  C   UNL     1       4.578   1.160  -3.114  0.00  0.00    +0.076 A 
ATOM      8  C   UNL     1       4.238   2.028  -2.084  0.00  0.00    +0.077 A 
ATOM      9  C   UNL     1       5.230   2.590  -1.305  0.00  0.00    +0.164 A 
ATOM     10  C   UNL     1       6.569   2.294  -1.544  0.00  0.00    +0.164 A 
ATOM     11  C   UNL     1       6.924   1.438  -2.566  0.00  0.00    +0.079 A 
ATOM     12  C   UNL     1       5.929   0.862  -3.362  0.00  0.00    +0.095 A 
ATOM     13  N   UNL     1       5.965  -0.001  -4.421  0.00  0.00    -0.214 NA
ATOM     14  O   UNL     1       7.535   2.856  -0.758  0.00  0.00    -0.488 OA
ATOM     15  C   UNL     1       7.713   4.266  -0.900  0.00  0.00    +0.232 C 
ATOM     16  C   UNL     1       6.723   5.025  -0.032  0.00  0.00    +0.082 C 
ATOM     17  C   UNL     1       5.283   4.806  -0.468  0.00  0.00    +0.232 C 
ATOM     18  O   UNL     1       4.901   3.441  -0.288  0.00  0.00    -0.488 OA
ATOM     19  N   UNL     1       2.474  -2.427  -6.341  0.00  0.00    -0.375 N 
ATOM     20  H   UNL     1       1.422   0.072  -6.111  0.00  0.00    +0.151 HD
ATOM     21  H   UNL     1       1.513  -2.559  -6.373  0.00  0.00    +0.158 HD
ATOM     22  H   UNL     1       4.958  -1.441  -6.517  0.00  0.00    +0.158 HD
ATOM     23  H   UNL     1       3.071  -3.143  -6.611  0.00  0.00    +0.158 HD
ENDROOT
BRANCH   1  26
ATOM     24  C   UNL     1       0.606  -0.608  -1.056  0.00  0.00    +0.163 A 
ATOM     25  C   UNL     1       1.173   0.159  -2.062  0.00  0.00    +0.056 A 
ATOM     26  C   UNL     1       1.787  -0.455  -3.138  0.00  0.00    -0.002 A 
ATOM     27  C   UNL     1       1.837  -1.835  -3.214  0.00  0.00    +0.031 A 
ATOM     28  C   UNL     1       1.273  -2.606  -2.213  0.00  0.00    +0.087 A 
ATOM     29  C   UNL     1       0.662  -1.996  -1.129  0.00  0.00    +0.180 A 
ATOM     30 CL   UNL     1       1.337  -4.338  -2.312  0.00  0.00    -0.080 Cl
BRANCH  24  32
ATOM     31  C   UNL     1      -0.017   1.425   0.010  0.00  0.00    +0.277 C 
ATOM     32  O   UNL     1       0.002  -0.004   0.002  0.00  0.00    -0.491 OA
ENDBRANCH  24  32
BRANCH  29  33
ATOM     33  O   UNL     1       0.112  -2.752  -0.141  0.00  0.00    -0.490 OA
ATOM     34  C   UNL     1      -1.259  -3.125  -0.296  0.00  0.00    +0.277 C 
ENDBRANCH  29  33
ENDBRANCH   1  26
TORSDOF 3
