REMARK  Name = ZINC34757278
REMARK  11 active torsions:
REMARK  status: ('A' for Active; 'I' for Inactive)
REMARK    1  A    between atoms: C_1  and  C_2
REMARK    2  A    between atoms: C_2  and  C_3
REMARK    3  A    between atoms: C_3  and  C_4
REMARK    4  A    between atoms: C_4  and  S_5
REMARK    5  A    between atoms: S_5  and  C_6
REMARK    6  A    between atoms: N_21  and  C_24
REMARK    7  A    between atoms: C_24  and  C_25
REMARK    8  A    between atoms: N_27  and  C_28
REMARK    9  A    between atoms: N_27  and  C_30
REMARK   10  A    between atoms: C_28  and  C_29
REMARK   11  A    between atoms: C_30  and  C_31
REMARK                            x       y       z     vdW  Elec       q    Type
REMARK                         _______ _______ _______ _____ _____    ______ ____
ROOT
ATOM      1  C   UNL     1       0.166  -5.524  -2.558  0.00  0.00    +0.191 A 
ATOM      2  N   UNL     1       0.761  -6.232  -3.512  0.00  0.00    -0.206 NA
ATOM      3  C   UNL     1       2.068  -6.436  -3.524  0.00  0.00    +0.134 A 
ATOM      4  C   UNL     1       2.865  -5.880  -2.485  0.00  0.00    +0.051 A 
ATOM      5  C   UNL     1       4.323  -5.978  -2.300  0.00  0.00    -0.025 A 
ATOM      6  C   UNL     1       4.841  -5.360  -1.227  0.00  0.00    -0.004 A 
ATOM      7  S   UNL     1       3.451  -4.615  -0.405  0.00  0.00    -0.073 S 
ATOM      8  C   UNL     1       2.170  -5.143  -1.510  0.00  0.00    +0.115 A 
ATOM      9  N   UNL     1       0.861  -4.979  -1.569  0.00  0.00    -0.215 NA
ATOM     10  C   UNL     1       6.334  -5.532  -1.138  0.00  0.00    +0.043 C 
ATOM     11  C   UNL     1       6.645  -6.715  -2.080  0.00  0.00    +0.010 C 
ATOM     12  C   UNL     1       5.466  -6.644  -3.071  0.00  0.00    +0.037 C 
ATOM     13  N   UNL     1       2.651  -7.179  -4.533  0.00  0.00    -0.318 N 
ATOM     14  C   UNL     1       2.735  -8.645  -4.442  0.00  0.00    +0.088 C 
ATOM     15  C   UNL     1       2.193  -9.244  -5.744  0.00  0.00    -0.059 C 
ATOM     16  N   UNL     1       2.914  -8.666  -6.885  0.00  0.00    +0.387 N 
ATOM     17  C   UNL     1       2.642  -7.226  -6.970  0.00  0.00    -0.059 C 
ATOM     18  C   UNL     1       3.201  -6.527  -5.732  0.00  0.00    +0.088 C 
ATOM     19  H   UNL     1       3.905  -8.814  -6.765  0.00  0.00    -0.081 HD
ENDROOT
BRANCH   1  20
ATOM     20  S   UNL     1      -1.581  -5.298  -2.613  0.00  0.00    -0.086 S 
BRANCH  20  21
ATOM     21  C   UNL     1      -1.938  -4.285  -1.151  0.00  0.00    +0.077 C 
BRANCH  21  22
ATOM     22  C   UNL     1      -3.441  -4.011  -1.076  0.00  0.00    +0.011 C 
BRANCH  22  24
ATOM     23  C   UNL     1      -5.246  -2.882   0.233  0.00  0.00    +0.004 C 
ATOM     24  C   UNL     1      -3.743  -3.157   0.158  0.00  0.00    -0.003 C 
ENDBRANCH  22  24
ENDBRANCH  21  22
ENDBRANCH  20  21
ENDBRANCH   1  20
BRANCH  16  25
ATOM     25  C   UNL     1       2.471  -9.320  -8.123  0.00  0.00    +0.019 C 
BRANCH  25  26
ATOM     26  C   UNL     1       3.295  -8.817  -9.280  0.00  0.00    +0.199 C 
ATOM     27  O   UNL     1       4.166  -7.994  -9.091  0.00  0.00    -0.278 OA
ATOM     28  N   UNL     1       3.065  -9.281 -10.524  0.00  0.00    -0.304 N 
BRANCH  28  29
ATOM     29  C   UNL     1       2.014 -10.275 -10.752  0.00  0.00    +0.104 C 
ATOM     30  C   UNL     1       0.693  -9.561 -11.050  0.00  0.00    +0.024 C 
ENDBRANCH  28  29
BRANCH  28  31
ATOM     31  C   UNL     1       3.867  -8.791 -11.649  0.00  0.00    +0.104 C 
ATOM     32  C   UNL     1       5.100  -9.680 -11.822  0.00  0.00    +0.024 C 
ENDBRANCH  28  31
ENDBRANCH  25  26
ENDBRANCH  16  25
TORSDOF 8
