REMARK  Name = ZINC36568991
REMARK  18 active torsions:
REMARK  status: ('A' for Active; 'I' for Inactive)
REMARK    1  A    between atoms: C_1  and  C_2
REMARK    2  A    between atoms: C_2  and  C_3
REMARK    3  A    between atoms: C_3  and  N_4
REMARK    4  A    between atoms: N_4  and  C_5
REMARK    5  A    between atoms: C_5  and  C_7
REMARK    6  A    between atoms: C_5  and  C_16
REMARK    7  A    between atoms: C_8  and  O_15
REMARK    8  A    between atoms: C_10  and  O_14
REMARK    9  A    between atoms: C_12  and  O_13
REMARK   10  A    between atoms: N_18  and  C_19
REMARK   11  A    between atoms: C_19  and  C_20
REMARK   12  A    between atoms: C_19  and  C_21
REMARK   13  A    between atoms: C_19  and  C_22
REMARK   14  A    between atoms: C_22  and  C_23
REMARK   15  A    between atoms: C_23  and  C_24
REMARK   16  A    between atoms: C_23  and  C_25
REMARK   17  A    between atoms: C_23  and  C_26
REMARK   18  A    between atoms: C_27  and  C_29
REMARK                            x       y       z     vdW  Elec       q    Type
REMARK                         _______ _______ _______ _____ _____    ______ ____
ROOT
ATOM      1  C   UNL     1      -0.939  -1.976  -3.275  0.00  0.00    +0.199 C 
ENDROOT
BRANCH   1   2
ATOM      2  C   UNL     1      -2.413  -2.291  -3.280  0.00  0.00    +0.065 A 
ATOM      3  C   UNL     1      -3.336  -1.293  -3.008  0.00  0.00    +0.129 A 
ATOM      4  C   UNL     1      -4.692  -1.583  -3.013  0.00  0.00    +0.091 A 
ATOM      5  C   UNL     1      -5.125  -2.871  -3.290  0.00  0.00    +0.124 A 
ATOM      6  C   UNL     1      -4.202  -3.869  -3.564  0.00  0.00    +0.091 A 
ATOM      7  C   UNL     1      -2.846  -3.578  -3.563  0.00  0.00    +0.129 A 
BRANCH   7   8
ATOM      8  O   UNL     1      -1.942  -4.555  -3.835  0.00  0.00    -0.506 OA
ATOM      9  H   UNL     1      -1.639  -5.040  -3.055  0.00  0.00    +0.292 HD
ENDBRANCH   7   8
BRANCH   5  10
ATOM     10  O   UNL     1      -6.454  -3.155  -3.294  0.00  0.00    -0.507 OA
ATOM     11  H   UNL     1      -6.879  -3.038  -4.155  0.00  0.00    +0.292 HD
ENDBRANCH   5  10
BRANCH   3  12
ATOM     12  O   UNL     1      -2.912  -0.031  -2.736  0.00  0.00    -0.506 OA
ATOM     13  H   UNL     1      -2.902   0.555  -3.505  0.00  0.00    +0.292 HD
ENDBRANCH   3  12
ENDBRANCH   1   2
BRANCH   1  14
ATOM     14  C   UNL     1      -0.663  -0.848  -4.235  0.00  0.00    +0.239 C 
ATOM     15  O   UNL     1      -0.173   0.185  -3.831  0.00  0.00    -0.273 OA
ATOM     16  N   UNL     1      -0.962  -0.987  -5.542  0.00  0.00    -0.308 N 
ATOM     17  H   UNL     1      -1.354  -1.813  -5.864  0.00  0.00    +0.149 HD
BRANCH  16  18
ATOM     18  C   UNL     1      -0.693   0.110  -6.475  0.00  0.00    +0.030 C 
ATOM     19  C   UNL     1      -1.320   1.399  -5.940  0.00  0.00    +0.031 C 
ATOM     20  C   UNL     1       0.818   0.299  -6.618  0.00  0.00    +0.031 C 
BRANCH  18  21
ATOM     21  C   UNL     1      -1.298  -0.223  -7.840  0.00  0.00    +0.031 C 
BRANCH  21  22
ATOM     22  C   UNL     1      -1.011  -1.686  -8.182  0.00  0.00    -0.036 C 
ATOM     23  C   UNL     1      -1.995  -2.587  -7.434  0.00  0.00    +0.010 C 
ATOM     24  C   UNL     1      -1.169  -1.899  -9.689  0.00  0.00    +0.010 C 
ATOM     25  C   UNL     1       0.419  -2.037  -7.765  0.00  0.00    +0.010 C 
ENDBRANCH  21  22
ENDBRANCH  18  21
ENDBRANCH  16  18
ENDBRANCH   1  14
BRANCH   1  26
ATOM     26  N   UNL     1      -0.529  -1.580  -1.925  0.00  0.00    -0.282 N 
ATOM     27  C   UNL     1       0.575  -0.828  -1.750  0.00  0.00    +0.248 C 
ATOM     28  O   UNL     1       0.766  -0.268  -0.688  0.00  0.00    -0.270 OA
BRANCH  27  29
ATOM     29  C   UNL     1       1.553  -0.683  -2.849  0.00  0.00    +0.038 A 
ATOM     30  C   UNL     1       1.419  -1.445  -4.011  0.00  0.00    +0.013 A 
ATOM     31  C   UNL     1       2.335  -1.305  -5.033  0.00  0.00    +0.002 A 
ATOM     32  C   UNL     1       3.384  -0.412  -4.909  0.00  0.00    +0.020 A 
ATOM     33  C   UNL     1       3.523   0.347  -3.759  0.00  0.00    +0.042 A 
ATOM     34  C   UNL     1       2.610   0.220  -2.731  0.00  0.00    +0.033 A 
ATOM     35 CL   UNL     1       4.844   1.464  -3.613  0.00  0.00    -0.084 Cl
ENDBRANCH  27  29
BRANCH  26  36
ATOM     36  C   UNL     1      -1.320  -2.003  -0.766  0.00  0.00    +0.109 C 
BRANCH  36  38
ATOM     37  C   UNL     1      -1.242  -3.207   1.421  0.00  0.00    +0.005 C 
ATOM     38  C   UNL     1      -0.453  -2.862   0.156  0.00  0.00    +0.016 C 
ENDBRANCH  36  38
ENDBRANCH  26  36
ENDBRANCH   1  26
TORSDOF 12
