REMARK  Name = ZINC40376753
REMARK  7 active torsions:
REMARK  status: ('A' for Active; 'I' for Inactive)
REMARK    1  A    between atoms: C_1  and  C_2
REMARK    2  A    between atoms: C_2  and  C_3
REMARK    3  A    between atoms: C_3  and  C_5
REMARK    4  A    between atoms: C_3  and  N_9
REMARK    5  A    between atoms: N_6  and  O_7
REMARK    6  A    between atoms: N_9  and  S_10
REMARK    7  A    between atoms: S_10  and  C_13
REMARK                            x       y       z     vdW  Elec       q    Type
REMARK                         _______ _______ _______ _____ _____    ______ ____
ROOT
ATOM      1  N   UNL     1       0.195  -0.178   2.313  0.00  0.00    -0.180 NA
ATOM      2  H   UNL     1      -0.467  -0.840   2.566  0.00  0.00    +0.149 HD
ENDROOT
BRANCH   1   3
ATOM      3  S   UNL     1       0.394   1.187   3.231  0.00  0.00    +0.060 S 
ATOM      4  O   UNL     1       0.335   2.289   2.336  0.00  0.00    -0.153 OA
ATOM      5  O   UNL     1      -0.482   1.060   4.342  0.00  0.00    -0.153 OA
BRANCH   3   6
ATOM      6  C   UNL     1       2.034   1.147   3.874  0.00  0.00    +0.120 A 
ATOM      7  C   UNL     1       2.950   2.108   3.490  0.00  0.00    +0.045 A 
ATOM      8  C   UNL     1       4.237   2.077   3.996  0.00  0.00    +0.020 A 
ATOM      9  C   UNL     1       4.607   1.084   4.886  0.00  0.00    +0.016 A 
ATOM     10  C   UNL     1       3.691   0.124   5.270  0.00  0.00    +0.018 A 
ATOM     11  C   UNL     1       2.402   0.158   4.768  0.00  0.00    +0.044 A 
ATOM     12 BR   UNL     1       1.146  -1.152   5.300  0.00  0.00    -0.048 Br
ATOM     13 BR   UNL     1       5.492   3.391   3.470  0.00  0.00    -0.050 Br
ENDBRANCH   3   6
ENDBRANCH   1   3
BRANCH   1  14
ATOM     14  C   UNL     1       1.019  -0.385   1.120  0.00  0.00    +0.142 C 
BRANCH  14  15
ATOM     15  C   UNL     1       1.799  -1.666   1.264  0.00  0.00    +0.150 C 
ATOM     16  N   UNL     1       2.907  -1.824   0.618  0.00  0.00    -0.075 NA
ATOM     17  N   UNL     1       1.330  -2.669   2.083  0.00  0.00    -0.343 N 
ATOM     18  H   UNL     1       0.498  -2.550   2.568  0.00  0.00    +0.144 HD
ATOM     19  H   UNL     1       1.832  -3.494   2.176  0.00  0.00    +0.144 HD
BRANCH  16  20
ATOM     20  O   UNL     1       3.639  -3.028   0.753  0.00  0.00    -0.408 OA
ATOM     21  H   UNL     1       4.454  -3.054   0.232  0.00  0.00    +0.328 HD
ENDBRANCH  16  20
ENDBRANCH  14  15
BRANCH  14  23
ATOM     22  C   UNL     1      -0.574   0.875  -0.336  0.00  0.00    +0.006 C 
ATOM     23  C   UNL     1       0.118  -0.472  -0.113  0.00  0.00    +0.025 C 
ENDBRANCH  14  23
ENDBRANCH   1  14
TORSDOF 6
