REMARK  Name = ZINC41026295
REMARK  6 active torsions:
REMARK  status: ('A' for Active; 'I' for Inactive)
REMARK    1  A    between atoms: C_1  and  C_2
REMARK    2  A    between atoms: C_2  and  C_4
REMARK    3  A    between atoms: C_2  and  N_10
REMARK    4  A    between atoms: N_17  and  C_20
REMARK    5  A    between atoms: N_26  and  C_27
REMARK    6  A    between atoms: C_28  and  C_35
REMARK                            x       y       z     vdW  Elec       q    Type
REMARK                         _______ _______ _______ _____ _____    ______ ____
ROOT
ATOM      1  N   UNL     1      -1.372  -0.511   0.012  0.00  0.00    -0.307 N 
ATOM      2  C   UNL     1      -2.069  -0.646  -1.176  0.00  0.00    +0.219 A 
ATOM      3  N   UNL     1      -1.466  -0.314  -2.312  0.00  0.00    -0.199 NA
ATOM      4  C   UNL     1      -2.091  -0.426  -3.478  0.00  0.00    +0.139 A 
ATOM      5  C   UNL     1      -3.415  -0.907  -3.488  0.00  0.00    +0.079 A 
ATOM      6  C   UNL     1      -4.372  -1.155  -4.496  0.00  0.00    +0.148 A 
ATOM      7  N   UNL     1      -5.458  -1.606  -3.935  0.00  0.00    -0.172 NA
ATOM      8  N   UNL     1      -5.277  -1.678  -2.548  0.00  0.00    -0.214 N 
ATOM      9  C   UNL     1      -4.014  -1.246  -2.259  0.00  0.00    +0.170 A 
ATOM     10  N   UNL     1      -3.308  -1.106  -1.138  0.00  0.00    -0.195 NA
ATOM     11  N   UNL     1      -1.456  -0.077  -4.656  0.00  0.00    -0.293 N 
ATOM     12  H   UNL     1      -1.794  -0.752   0.852  0.00  0.00    +0.149 HD
ATOM     13  H   UNL     1      -1.923  -0.163  -5.502  0.00  0.00    +0.154 HD
ENDROOT
BRANCH  11  14
ATOM     14  C   UNL     1      -0.155   0.394  -4.628  0.00  0.00    +0.083 A 
ATOM     15  C   UNL     1       0.629   0.792  -5.696  0.00  0.00    +0.068 A 
ATOM     16  C   UNL     1       1.984   1.255  -5.396  0.00  0.00    -0.023 A 
ATOM     17  C   UNL     1       2.295   1.230  -4.088  0.00  0.00    -0.004 A 
ATOM     18  S   UNL     1       0.831   0.621  -3.290  0.00  0.00    -0.077 S 
ATOM     19  C   UNL     1       3.699   1.710  -3.836  0.00  0.00    +0.043 C 
ATOM     20  C   UNL     1       4.388   1.642  -5.217  0.00  0.00    +0.010 C 
ATOM     21  C   UNL     1       3.188   1.780  -6.175  0.00  0.00    +0.037 C 
BRANCH  15  22
ATOM     22  C   UNL     1       0.123   0.751  -7.070  0.00  0.00    +0.244 C 
ATOM     23  O   UNL     1      -0.446   1.720  -7.538  0.00  0.00    -0.270 OA
ATOM     24  N   UNL     1       0.289  -0.359  -7.816  0.00  0.00    -0.325 N 
ATOM     25  H   UNL     1       0.742  -1.131  -7.443  0.00  0.00    +0.145 HD
ATOM     26  H   UNL     1      -0.046  -0.386  -8.726  0.00  0.00    +0.145 HD
ENDBRANCH  15  22
ENDBRANCH  11  14
BRANCH   8  27
ATOM     27  C   UNL     1      -6.228  -2.116  -1.617  0.00  0.00    +0.068 A 
ATOM     28  C   UNL     1      -5.825  -2.812  -0.486  0.00  0.00    +0.028 A 
ATOM     29  C   UNL     1      -6.766  -3.243   0.430  0.00  0.00    +0.002 A 
ATOM     30  C   UNL     1      -8.107  -2.980   0.221  0.00  0.00    +0.000 A 
ATOM     31  C   UNL     1      -8.512  -2.287  -0.905  0.00  0.00    +0.002 A 
ATOM     32  C   UNL     1      -7.576  -1.849  -1.822  0.00  0.00    +0.028 A 
ENDBRANCH   8  27
BRANCH   1  34
ATOM     33  C   UNL     1      -0.019   1.526   0.010  0.00  0.00    +0.033 C 
ATOM     34  C   UNL     1       0.002  -0.004   0.002  0.00  0.00    +0.100 C 
BRANCH  34  35
ATOM     35  C   UNL     1       0.731  -0.503   1.223  0.00  0.00    -0.027 A 
ATOM     36  C   UNL     1       0.081  -0.558   2.442  0.00  0.00    +0.005 A 
ATOM     37  C   UNL     1       0.749  -1.016   3.562  0.00  0.00    +0.000 A 
ATOM     38  C   UNL     1       2.068  -1.420   3.463  0.00  0.00    +0.000 A 
ATOM     39  C   UNL     1       2.718  -1.365   2.244  0.00  0.00    +0.000 A 
ATOM     40  C   UNL     1       2.048  -0.911   1.123  0.00  0.00    +0.005 A 
ENDBRANCH  34  35
ENDBRANCH   1  34
TORSDOF 5
