REMARK  Name = ZINC15223455
REMARK  3 active torsions:
REMARK  status: ('A' for Active; 'I' for Inactive)
REMARK    1  A    between atoms: N_11  and  N_12
REMARK    2  A    between atoms: C_13  and  C_14
REMARK    3  A    between atoms: C_17  and  C_19
REMARK                            x       y       z     vdW  Elec       q    Type
REMARK                         _______ _______ _______ _____ _____    ______ ____
ROOT
ATOM      1  N   UNL     1      -5.367   3.736   0.013  0.00  0.00    -0.184 NA
ATOM      2  C   UNL     1      -6.668   3.763  -0.047  0.00  0.00    +0.176 C 
ENDROOT
BRANCH   1  13
ATOM      3  C   UNL     1       1.131   1.708   0.533  0.00  0.00    +0.002 A 
ATOM      4  C   UNL     1       1.110   3.074   0.776  0.00  0.00    +0.002 A 
ATOM      5  C   UNL     1      -0.076   3.772   0.745  0.00  0.00    +0.030 A 
ATOM      6  C   UNL     1      -1.270   3.099   0.467  0.00  0.00    +0.091 A 
ATOM      7  C   UNL     1      -1.242   1.717   0.216  0.00  0.00    +0.067 A 
ATOM      8  C   UNL     1      -0.038   1.030   0.257  0.00  0.00    +0.028 A 
ATOM      9  N   UNL     1      -2.553   1.345  -0.032  0.00  0.00    -0.325 N 
ATOM     10  H   UNL     1      -2.877   0.422  -0.242  0.00  0.00    +0.169 HD
ATOM     11  C   UNL     1      -3.320   2.471   0.066  0.00  0.00    +0.214 A 
ATOM     12  N   UNL     1      -2.564   3.499   0.368  0.00  0.00    -0.213 NA
ATOM     13  N   UNL     1      -4.686   2.518  -0.113  0.00  0.00    -0.206 N 
ATOM     14  H   UNL     1      -5.175   1.708  -0.326  0.00  0.00    +0.177 HD
ENDBRANCH   1  13
BRANCH   2  15
ATOM     15  C   UNL     1      -7.427   2.510  -0.051  0.00  0.00    +0.148 A 
ATOM     16  C   UNL     1      -8.787   2.390  -0.234  0.00  0.00    +0.051 A 
ATOM     17  C   UNL     1      -9.084   1.022  -0.165  0.00  0.00    +0.050 A 
ATOM     18  C   UNL     1      -7.910   0.368   0.063  0.00  0.00    +0.137 A 
ATOM     19  O   UNL     1      -6.917   1.275   0.130  0.00  0.00    -0.454 OA
BRANCH  18  20
ATOM     20  C   UNL     1      -7.753  -1.092   0.211  0.00  0.00    +0.037 A 
ATOM     21  C   UNL     1      -8.572  -1.800   1.094  0.00  0.00    +0.013 A 
ATOM     22  C   UNL     1      -8.425  -3.165   1.224  0.00  0.00    +0.002 A 
ATOM     23  C   UNL     1      -7.460  -3.834   0.491  0.00  0.00    +0.021 A 
ATOM     24  C   UNL     1      -6.640  -3.139  -0.382  0.00  0.00    +0.060 A 
ATOM     25  C   UNL     1      -6.781  -1.772  -0.527  0.00  0.00    +0.070 A 
ATOM     26 CL   UNL     1      -5.753  -0.903  -1.623  0.00  0.00    -0.081 Cl
ATOM     27 CL   UNL     1      -5.434  -3.988  -1.298  0.00  0.00    -0.082 Cl
ENDBRANCH  18  20
ENDBRANCH   2  15
TORSDOF 3
