REMARK  Name = ZINC09593675
REMARK  6 active torsions:
REMARK  status: ('A' for Active; 'I' for Inactive)
REMARK    1  A    between atoms: C_1  and  C_2
REMARK    2  A    between atoms: C_9  and  N_14
REMARK    3  A    between atoms: C_10  and  C_11
REMARK    4  A    between atoms: C_15  and  C_17
REMARK    5  A    between atoms: C_22  and  C_33
REMARK    6  A    between atoms: C_25  and  C_28
REMARK                            x       y       z     vdW  Elec       q    Type
REMARK                         _______ _______ _______ _____ _____    ______ ____
ROOT
ATOM      1  N   UNL     1       0.696  -5.846   2.434  0.00  0.00    -0.274 N 
ATOM      2  C   UNL     1       1.678  -6.094   3.323  0.00  0.00    +0.269 C 
ATOM      3  O   UNL     1       2.385  -5.187   3.717  0.00  0.00    -0.268 OA
ATOM      4  H   UNL     1       0.132  -6.570   2.120  0.00  0.00    +0.156 HD
ENDROOT
BRANCH   1  12
ATOM      5  C   UNL     1      -0.019   1.526   0.010  0.00  0.00    +0.008 C 
ATOM      6  C   UNL     1       0.002  -0.004   0.002  0.00  0.00    -0.009 C 
ATOM      7  C   UNL     1      -1.434  -0.537   0.019  0.00  0.00    +0.008 C 
ATOM      8  C   UNL     1      -1.433  -2.045  -0.237  0.00  0.00    +0.037 C 
ATOM      9  C   UNL     1      -0.464  -2.704   0.734  0.00  0.00    -0.023 A 
ATOM     10  C   UNL     1       0.485  -1.986   1.374  0.00  0.00    -0.004 A 
ATOM     11  S   UNL     1       1.343  -3.167   2.373  0.00  0.00    -0.077 S 
ATOM     12  C   UNL     1       0.493  -4.557   1.968  0.00  0.00    +0.085 A 
ATOM     13  C   UNL     1      -0.459  -4.119   1.061  0.00  0.00    +0.068 A 
ATOM     14  C   UNL     1       0.739  -0.515   1.248  0.00  0.00    +0.046 C 
BRANCH  13  15
ATOM     15  C   UNL     1      -1.421  -5.045   0.456  0.00  0.00    +0.244 C 
ATOM     16  O   UNL     1      -1.149  -5.611  -0.587  0.00  0.00    -0.270 OA
ATOM     17  N   UNL     1      -2.607  -5.271   1.055  0.00  0.00    -0.325 N 
ATOM     18  H   UNL     1      -2.825  -4.821   1.886  0.00  0.00    +0.145 HD
ATOM     19  H   UNL     1      -3.244  -5.884   0.655  0.00  0.00    +0.145 HD
ENDBRANCH  13  15
ENDBRANCH   1  12
BRANCH   2  20
ATOM     20  C   UNL     1       1.894  -7.468   3.820  0.00  0.00    +0.149 A 
ATOM     21  C   UNL     1       2.878  -7.867   4.753  0.00  0.00    +0.078 A 
ATOM     22  C   UNL     1       2.745  -9.195   4.942  0.00  0.00    +0.119 A 
ATOM     23  N   UNL     1       1.716  -9.635   4.158  0.00  0.00    -0.238 N 
ATOM     24  N   UNL     1       1.198  -8.537   3.473  0.00  0.00    -0.164 NA
ATOM     25  C   UNL     1       1.282 -11.034   4.097  0.00  0.00    +0.215 C 
ATOM     26  C   UNL     1       2.410 -11.928   4.624  0.00  0.00    +0.066 C 
ATOM     27  C   UNL     1       2.909 -11.399   5.973  0.00  0.00    +0.140 C 
ATOM     28  N   UNL     1       3.478 -10.052   5.768  0.00  0.00    -0.319 N 
ATOM     29  H   UNL     1       4.311  -9.778   6.182  0.00  0.00    +0.148 HD
BRANCH  27  30
ATOM     30  C   UNL     1       1.759 -11.324   6.944  0.00  0.00    +0.125 A 
ATOM     31  C   UNL     1       1.482 -12.222   7.906  0.00  0.00    +0.046 A 
ATOM     32  C   UNL     1       0.325 -11.761   8.576  0.00  0.00    +0.041 A 
ATOM     33  C   UNL     1      -0.036 -10.610   7.982  0.00  0.00    +0.195 A 
ATOM     34  O   UNL     1       0.839 -10.347   6.998  0.00  0.00    -0.466 OA
ENDBRANCH  27  30
BRANCH  25  35
ATOM     35  C   UNL     1       0.961 -11.408   2.649  0.00  0.00    +0.412 C 
ATOM     36  F   UNL     1       2.104 -11.242   1.860  0.00  0.00    -0.168 F 
ATOM     37  F   UNL     1       0.546 -12.743   2.593  0.00  0.00    -0.168 F 
ATOM     38  F   UNL     1      -0.061 -10.582   2.169  0.00  0.00    -0.168 F 
ENDBRANCH  25  35
ENDBRANCH   2  20
TORSDOF 5
