REMARK  Name = ZINC39668440
REMARK  8 active torsions:
REMARK  status: ('A' for Active; 'I' for Inactive)
REMARK    1  A    between atoms: C_1  and  C_2
REMARK    2  A    between atoms: C_2  and  C_4
REMARK    3  A    between atoms: C_2  and  O_33
REMARK    4  A    between atoms: C_4  and  N_5
REMARK    5  A    between atoms: C_6  and  C_8
REMARK    6  A    between atoms: C_19  and  C_21
REMARK    7  A    between atoms: C_27  and  C_29
REMARK    8  A    between atoms: O_33  and  C_34
REMARK                            x       y       z     vdW  Elec       q    Type
REMARK                         _______ _______ _______ _____ _____    ______ ____
ROOT
ATOM      1  C   UNL     1       1.210  -4.090  -2.382  0.00  0.00    +0.100 C 
ATOM      2  C   UNL     1       1.829  -4.710  -1.109  0.00  0.00    +0.121 C 
ATOM      3  N   UNL     1       2.546  -5.914  -1.591  0.00  0.00    -0.299 N 
ATOM      4  C   UNL     1       3.156  -5.491  -2.874  0.00  0.00    +0.115 C 
ATOM      5  C   UNL     1       2.084  -4.604  -3.538  0.00  0.00    -0.004 C 
ATOM      6  C   UNL     1       1.244  -5.428  -4.509  0.00  0.00    -0.010 C 
ATOM      7  C   UNL     1       2.123  -5.881  -5.679  0.00  0.00    -0.082 C 
ATOM      8  N   UNL     1       2.680  -4.705  -6.358  0.00  0.00    +0.379 N 
ATOM      9  C   UNL     1       3.560  -3.968  -5.443  0.00  0.00    -0.082 C 
ATOM     10  C   UNL     1       2.743  -3.435  -4.263  0.00  0.00    -0.010 C 
ATOM     11  C   UNL     1       2.626  -7.121  -0.997  0.00  0.00    +0.236 C 
ATOM     12  O   UNL     1       3.257  -8.015  -1.520  0.00  0.00    -0.274 OA
ATOM     13  H   UNL     1       3.209  -5.003  -7.164  0.00  0.00    -0.086 HD
ATOM     14  H   UNL     1       1.928  -4.103  -6.656  0.00  0.00    -0.086 HD
ENDROOT
BRANCH  11  15
ATOM     15  C   UNL     1       1.930  -7.361   0.319  0.00  0.00    +0.162 C 
ATOM     16  C   UNL     1       2.781  -6.793   1.474  0.00  0.00    +0.033 C 
ATOM     17  C   UNL     1       2.595  -7.849   2.595  0.00  0.00    +0.021 C 
ATOM     18  C   UNL     1       2.525  -9.163   1.777  0.00  0.00    +0.109 C 
ATOM     19  N   UNL     1       1.783  -8.806   0.550  0.00  0.00    -0.283 N 
ATOM     20  C   UNL     1       1.086  -9.659  -0.227  0.00  0.00    +0.320 C 
ATOM     21  O   UNL     1       0.514  -9.249  -1.215  0.00  0.00    -0.266 OA
BRANCH  20  22
ATOM     22  C   UNL     1       1.020 -11.121   0.131  0.00  0.00    +0.470 C 
ATOM     23  F   UNL     1       0.246 -11.798  -0.817  0.00  0.00    -0.162 F 
ATOM     24  F   UNL     1       2.312 -11.656   0.148  0.00  0.00    -0.162 F 
ATOM     25  F   UNL     1       0.439 -11.265   1.396  0.00  0.00    -0.162 F 
ENDBRANCH  20  22
ENDBRANCH  11  15
BRANCH   1  27
ATOM     26  N   UNL     1       0.319  -1.847  -2.926  0.00  0.00    -0.312 N 
ATOM     27  C   UNL     1       1.264  -2.585  -2.312  0.00  0.00    +0.218 C 
ATOM     28  O   UNL     1       2.159  -2.039  -1.702  0.00  0.00    -0.275 OA
ATOM     29  H   UNL     1      -0.397  -2.284  -3.414  0.00  0.00    +0.149 HD
BRANCH  26  30
ATOM     30  C   UNL     1       0.372  -0.385  -2.858  0.00  0.00    +0.148 C 
BRANCH  30  32
ATOM     31  C   UNL     1      -0.684   1.730  -3.668  0.00  0.00    +0.053 C 
ATOM     32  C   UNL     1      -0.808   0.205  -3.633  0.00  0.00    +0.187 C 
BRANCH  32  33
ATOM     33  O   UNL     1      -2.030  -0.159  -2.989  0.00  0.00    -0.486 OA
BRANCH  33  34
ATOM     34  C   UNL     1      -3.154  -0.160  -3.753  0.00  0.00    +0.139 A 
ATOM     35  C   UNL     1      -3.079   0.093  -5.119  0.00  0.00    +0.049 A 
ATOM     36  C   UNL     1      -4.251   0.082  -5.857  0.00  0.00    +0.023 A 
ATOM     37  C   UNL     1      -5.449  -0.179  -5.217  0.00  0.00    +0.111 A 
ATOM     38  N   UNL     1      -5.486  -0.415  -3.920  0.00  0.00    -0.260 NA
ATOM     39  C   UNL     1      -4.392  -0.419  -3.184  0.00  0.00    +0.156 A 
ENDBRANCH  33  34
ENDBRANCH  32  33
ENDBRANCH  30  32
ENDBRANCH  26  30
ENDBRANCH   1  27
TORSDOF 7
