REMARK  Name = ZINC39652611
REMARK  11 active torsions:
REMARK  status: ('A' for Active; 'I' for Inactive)
REMARK    1  A    between atoms: C_1  and  C_2
REMARK    2  A    between atoms: C_2  and  O_3
REMARK    3  A    between atoms: O_3  and  C_4
REMARK    4  A    between atoms: C_9  and  C_10
REMARK    5  A    between atoms: C_10  and  C_11
REMARK    6  A    between atoms: C_11  and  N_12
REMARK    7  A    between atoms: C_13  and  C_15
REMARK    8  A    between atoms: C_26  and  C_28
REMARK    9  A    between atoms: C_33  and  O_34
REMARK   10  A    between atoms: O_34  and  C_35
REMARK   11  A    between atoms: C_35  and  C_37
REMARK                            x       y       z     vdW  Elec       q    Type
REMARK                         _______ _______ _______ _____ _____    ______ ____
ROOT
ATOM      1  C   UNL     1       0.911   1.125   7.331  0.00  0.00    +0.100 C 
ATOM      2  C   UNL     1       1.691   2.312   6.722  0.00  0.00    +0.121 C 
ATOM      3  N   UNL     1       0.780   3.472   6.867  0.00  0.00    -0.296 N 
ATOM      4  C   UNL     1       0.155   3.287   8.198  0.00  0.00    +0.115 C 
ATOM      5  C   UNL     1      -0.093   1.769   8.302  0.00  0.00    -0.004 C 
ATOM      6  C   UNL     1       0.166   1.287   9.726  0.00  0.00    -0.010 C 
ATOM      7  C   UNL     1      -0.881   1.895  10.664  0.00  0.00    -0.082 C 
ATOM      8  N   UNL     1      -2.224   1.494  10.226  0.00  0.00    +0.379 N 
ATOM      9  C   UNL     1      -2.500   2.040   8.892  0.00  0.00    -0.082 C 
ATOM     10  C   UNL     1      -1.522   1.439   7.880  0.00  0.00    -0.010 C 
ATOM     11  C   UNL     1       0.568   4.471   5.987  0.00  0.00    +0.250 C 
ATOM     12  O   UNL     1      -0.144   5.408   6.290  0.00  0.00    -0.270 OA
ATOM     13  H   UNL     1      -2.279   0.487  10.194  0.00  0.00    -0.086 HD
ATOM     14  H   UNL     1      -2.908   1.844  10.880  0.00  0.00    -0.086 HD
ENDROOT
BRANCH  11  15
ATOM     15  C   UNL     1       1.201   4.426   4.654  0.00  0.00    +0.079 A 
ATOM     16  C   UNL     1       2.478   3.881   4.501  0.00  0.00    +0.017 A 
ATOM     17  C   UNL     1       3.063   3.842   3.253  0.00  0.00    +0.001 A 
ATOM     18  C   UNL     1       2.391   4.342   2.150  0.00  0.00    +0.004 A 
ATOM     19  C   UNL     1       1.128   4.884   2.288  0.00  0.00    +0.047 A 
ATOM     20  C   UNL     1       0.522   4.926   3.535  0.00  0.00    +0.144 A 
BRANCH  20  21
ATOM     21  O   UNL     1      -0.721   5.453   3.671  0.00  0.00    -0.425 OA
BRANCH  21  22
ATOM     22  C   UNL     1      -1.770   4.617   3.614  0.00  0.00    +0.309 C 
ATOM     23  O   UNL     1      -1.589   3.425   3.536  0.00  0.00    -0.251 OA
ATOM     24  C   UNL     1      -3.173   5.166   3.647  0.00  0.00    +0.136 C 
ENDBRANCH  21  22
ENDBRANCH  20  21
ENDBRANCH  11  15
BRANCH   1  26
ATOM     25  N   UNL     1      -0.047  -0.954   6.394  0.00  0.00    -0.315 N 
ATOM     26  C   UNL     1       0.184   0.366   6.251  0.00  0.00    +0.218 C 
ATOM     27  O   UNL     1      -0.193   0.944   5.253  0.00  0.00    -0.275 OA
ATOM     28  H   UNL     1       0.255  -1.415   7.192  0.00  0.00    +0.149 HD
BRANCH  25  29
ATOM     29  C   UNL     1      -0.754  -1.692   5.344  0.00  0.00    +0.109 C 
BRANCH  29  30
ATOM     30  C   UNL     1      -0.883  -3.160   5.752  0.00  0.00    +0.057 C 
BRANCH  30  36
ATOM     31  C   UNL     1      -0.910  -4.421   3.585  0.00  0.00    +0.124 A 
ATOM     32  C   UNL     1      -1.581  -5.124   2.595  0.00  0.00    +0.046 A 
ATOM     33  C   UNL     1      -2.946  -5.318   2.691  0.00  0.00    +0.004 A 
ATOM     34  C   UNL     1      -3.642  -4.812   3.773  0.00  0.00    +0.000 A 
ATOM     35  C   UNL     1      -2.976  -4.111   4.761  0.00  0.00    +0.007 A 
ATOM     36  C   UNL     1      -1.610  -3.919   4.672  0.00  0.00    -0.004 A 
BRANCH  31  37
ATOM     37  O   UNL     1       0.432  -4.230   3.492  0.00  0.00    -0.492 OA
BRANCH  37  39
ATOM     38  C   UNL     1       2.584  -4.461   2.416  0.00  0.00    +0.048 C 
ATOM     39  C   UNL     1       1.088  -4.775   2.345  0.00  0.00    +0.225 C 
ENDBRANCH  37  39
ENDBRANCH  31  37
ENDBRANCH  30  36
ENDBRANCH  29  30
ENDBRANCH  25  29
ENDBRANCH   1  26
TORSDOF 9
