REMARK  Name = ZINC22112421
REMARK  7 active torsions:
REMARK  status: ('A' for Active; 'I' for Inactive)
REMARK    1  A    between atoms: C_1  and  C_2
REMARK    2  A    between atoms: N_6  and  N_7
REMARK    3  A    between atoms: N_7  and  C_8
REMARK    4  A    between atoms: C_8  and  C_9
REMARK    5  A    between atoms: C_14  and  O_15
REMARK    6  A    between atoms: O_15  and  C_16
REMARK    7  A    between atoms: C_16  and  C_17
REMARK                            x       y       z     vdW  Elec       q    Type
REMARK                         _______ _______ _______ _____ _____    ______ ____
ROOT
ATOM      1  C   UNL     1      -0.815   1.633  -3.525  0.00  0.00    +0.014 A 
ATOM      2  C   UNL     1      -0.295   1.274  -4.754  0.00  0.00    +0.028 A 
ATOM      3  C   UNL     1       0.845   0.492  -4.822  0.00  0.00    +0.042 A 
ATOM      4  C   UNL     1       1.465   0.067  -3.661  0.00  0.00    +0.023 A 
ATOM      5  C   UNL     1       0.951   0.428  -2.430  0.00  0.00    +0.047 A 
ATOM      6  C   UNL     1      -0.194   1.208  -2.360  0.00  0.00    +0.126 A 
ATOM      7 CL   UNL     1       1.496   0.043  -6.368  0.00  0.00    -0.084 Cl
ENDROOT
BRANCH   1   8
ATOM      8  C   UNL     1      -2.056   2.484  -3.450  0.00  0.00    +0.159 C 
BRANCH   8   9
ATOM      9  N   UNL     1      -1.678   3.879  -3.187  0.00  0.00    -0.277 N 
ATOM     10  H   UNL     1      -0.617   4.150  -3.078  0.00  0.00    +0.167 HD
BRANCH   9  16
ATOM     11  C   UNL     1      -2.488   5.543  -0.715  0.00  0.00    +0.090 C 
ATOM     12  C   UNL     1      -3.185   5.435  -2.047  0.00  0.00    +0.146 A 
ATOM     13  N   UNL     1      -4.282   6.044  -2.395  0.00  0.00    -0.157 NA
ATOM     14  N   UNL     1      -4.599   5.729  -3.600  0.00  0.00    -0.253 N 
ATOM     15  C   UNL     1      -3.709   4.897  -4.091  0.00  0.00    +0.193 A 
ATOM     16  N   UNL     1      -2.782   4.680  -3.113  0.00  0.00    -0.227 N 
ATOM     17  S   UNL     1      -3.714   4.193  -5.707  0.00  0.00    -0.010 S 
ATOM     18  H   UNL     1      -5.505   6.150  -4.059  0.00  0.00    +0.191 HD
ENDBRANCH   9  16
ENDBRANCH   8   9
ENDBRANCH   1   8
BRANCH   6  19
ATOM     19  O   UNL     1      -0.704   1.559  -1.150  0.00  0.00    -0.487 OA
BRANCH  19  20
ATOM     20  C   UNL     1      -0.013   1.086   0.008  0.00  0.00    +0.266 C 
BRANCH  20  21
ATOM     21  C   UNL     1      -0.718   1.572   1.248  0.00  0.00    +0.008 A 
ATOM     22  C   UNL     1      -1.854   2.352   1.136  0.00  0.00    +0.010 A 
ATOM     23  C   UNL     1      -2.502   2.798   2.272  0.00  0.00    +0.020 A 
ATOM     24  C   UNL     1      -2.013   2.463   3.523  0.00  0.00    +0.042 A 
ATOM     25  C   UNL     1      -0.877   1.683   3.636  0.00  0.00    +0.040 A 
ATOM     26  C   UNL     1      -0.232   1.232   2.498  0.00  0.00    +0.049 A 
ATOM     27 CL   UNL     1       1.190   0.247   2.638  0.00  0.00    -0.083 Cl
ATOM     28 CL   UNL     1      -2.827   3.024   4.951  0.00  0.00    -0.083 Cl
ENDBRANCH  20  21
ENDBRANCH  19  20
ENDBRANCH   6  19
TORSDOF 6
