REMARK  Name = ZINC39711240
REMARK  10 active torsions:
REMARK  status: ('A' for Active; 'I' for Inactive)
REMARK    1  A    between atoms: C_1  and  C_2
REMARK    2  A    between atoms: C_6  and  C_15
REMARK    3  A    between atoms: C_13  and  C_14
REMARK    4  A    between atoms: C_15  and  C_17
REMARK    5  A    between atoms: C_15  and  N_29
REMARK    6  A    between atoms: N_22  and  C_23
REMARK    7  A    between atoms: N_29  and  C_30
REMARK    8  A    between atoms: N_29  and  C_37
REMARK    9  A    between atoms: C_30  and  C_31
REMARK   10  A    between atoms: C_37  and  C_38
REMARK                            x       y       z     vdW  Elec       q    Type
REMARK                         _______ _______ _______ _____ _____    ______ ____
ROOT
ATOM      1  C   UNL     1      -1.738  -6.835  -2.790  0.00  0.00    -0.009 C 
ENDROOT
BRANCH   1   7
ATOM      2  C   UNL     1       3.843  -3.212  -0.193  0.00  0.00    +0.044 C 
ATOM      3  C   UNL     1       2.576  -4.016  -0.051  0.00  0.00    -0.047 A 
ATOM      4  C   UNL     1       2.188  -4.829  -1.067  0.00  0.00    +0.013 A 
ATOM      5  C   UNL     1       0.956  -5.605  -0.919  0.00  0.00    -0.007 A 
ATOM      6  C   UNL     1       0.528  -6.434  -1.913  0.00  0.00    -0.006 C 
ATOM      7  C   UNL     1      -0.759  -7.200  -1.673  0.00  0.00    +0.088 C 
ATOM      8  C   UNL     1      -1.461  -6.982  -0.351  0.00  0.00    +0.223 C 
ATOM      9  O   UNL     1      -2.497  -7.571  -0.106  0.00  0.00    -0.275 OA
ATOM     10  N   UNL     1      -0.945  -6.149   0.536  0.00  0.00    -0.285 N 
ATOM     11  C   UNL     1       0.185  -5.473   0.330  0.00  0.00    +0.041 A 
ATOM     12  C   UNL     1       0.676  -4.603   1.321  0.00  0.00    +0.027 A 
ATOM     13  C   UNL     1       1.830  -3.914   1.123  0.00  0.00    -0.046 A 
ATOM     14  C   UNL     1       2.321  -2.998   2.215  0.00  0.00    +0.044 C 
ATOM     15  H   UNL     1      -1.411  -6.023   1.378  0.00  0.00    +0.155 HD
ENDBRANCH   1   7
BRANCH   1  16
ATOM     16  C   UNL     1      -2.347  -5.460  -2.505  0.00  0.00    +0.205 C 
ATOM     17  N   UNL     1      -3.402  -5.155  -3.481  0.00  0.00    -0.152 NA
ATOM     18  N   UNL     1      -3.084  -4.143  -4.109  0.00  0.00    -0.070 NA
ATOM     19  N   UNL     1      -1.856  -3.619  -3.707  0.00  0.00    -0.179 N 
ATOM     20  N   UNL     1      -1.339  -4.398  -2.701  0.00  0.00    -0.185 NA
ATOM     21  H   UNL     1      -1.433  -2.830  -4.079  0.00  0.00    +0.191 HD
BRANCH  20  22
ATOM     22  C   UNL     1      -1.150  -3.617  -1.472  0.00  0.00    +0.080 C 
ATOM     23  C   UNL     1      -2.493  -3.032  -1.028  0.00  0.00    +0.021 C 
ATOM     24  C   UNL     1      -2.297  -2.219   0.253  0.00  0.00    +0.002 C 
ATOM     25  C   UNL     1      -1.308  -1.081  -0.012  0.00  0.00    +0.000 C 
ATOM     26  C   UNL     1       0.035  -1.666  -0.455  0.00  0.00    +0.002 C 
ATOM     27  C   UNL     1      -0.162  -2.480  -1.736  0.00  0.00    +0.021 C 
ENDBRANCH  20  22
ENDBRANCH   1  16
BRANCH   1  28
ATOM     28  N   UNL     1      -2.807  -7.841  -2.853  0.00  0.00    +0.392 N 
ATOM     29  H   UNL     1      -3.440  -7.707  -2.079  0.00  0.00    -0.080 HD
BRANCH  28  30
ATOM     30  C   UNL     1      -3.541  -7.697  -4.117  0.00  0.00    -0.042 C 
BRANCH  30  31
ATOM     31  C   UNL     1      -5.014  -7.558  -3.829  0.00  0.00    -0.064 A 
ATOM     32  C   UNL     1      -5.567  -8.194  -2.734  0.00  0.00    +0.002 A 
ATOM     33  C   UNL     1      -6.918  -8.067  -2.470  0.00  0.00    +0.000 A 
ATOM     34  C   UNL     1      -7.715  -7.302  -3.301  0.00  0.00    +0.000 A 
ATOM     35  C   UNL     1      -7.162  -6.664  -4.395  0.00  0.00    +0.000 A 
ATOM     36  C   UNL     1      -5.810  -6.788  -4.657  0.00  0.00    +0.002 A 
ENDBRANCH  30  31
ENDBRANCH  28  30
BRANCH  28  37
ATOM     37  C   UNL     1      -2.219  -9.185  -2.778  0.00  0.00    -0.002 C 
BRANCH  37  38
ATOM     38  C   UNL     1      -2.146  -9.622  -1.338  0.00  0.00    +0.089 A 
ATOM     39  C   UNL     1      -3.197  -9.836  -0.526  0.00  0.00    +0.042 A 
ATOM     40  C   UNL     1      -2.673 -10.230   0.727  0.00  0.00    +0.041 A 
ATOM     41  C   UNL     1      -1.334 -10.233   0.606  0.00  0.00    +0.195 A 
ATOM     42  O   UNL     1      -1.020  -9.870  -0.648  0.00  0.00    -0.470 OA
ENDBRANCH  37  38
ENDBRANCH  28  37
ENDBRANCH   1  28
TORSDOF 8
