REMARK  Name = ZINC18130553
REMARK  7 active torsions:
REMARK  status: ('A' for Active; 'I' for Inactive)
REMARK    1  A    between atoms: C_1  and  C_2
REMARK    2  A    between atoms: C_2  and  C_3
REMARK    3  A    between atoms: C_3  and  C_4
REMARK    4  A    between atoms: C_6  and  C_12
REMARK    5  A    between atoms: C_7  and  O_11
REMARK    6  A    between atoms: C_9  and  O_10
REMARK    7  A    between atoms: C_13  and  C_18
REMARK                            x       y       z     vdW  Elec       q    Type
REMARK                         _______ _______ _______ _____ _____    ______ ____
ROOT
ATOM      1  C   UNL     1      -1.259  -4.871  -2.719  0.00  0.00    +0.104 A 
ATOM      2  C   UNL     1      -1.165  -6.246  -3.051  0.00  0.00    +0.027 A 
ATOM      3  C   UNL     1      -2.084  -6.495  -4.026  0.00  0.00    +0.114 A 
ATOM      4  N   UNL     1      -2.726  -5.339  -4.295  0.00  0.00    -0.284 N 
ATOM      5  H   UNL     1      -3.433  -5.222  -4.949  0.00  0.00    +0.188 HD
ATOM      6  N   UNL     1      -2.201  -4.339  -3.467  0.00  0.00    -0.173 NA
ENDROOT
BRANCH   2   7
ATOM      7  C   UNL     1      -0.235  -7.232  -2.449  0.00  0.00    -0.011 A 
ATOM      8  C   UNL     1       1.137  -6.987  -2.448  0.00  0.00    +0.012 A 
ATOM      9  C   UNL     1       2.004  -7.905  -1.887  0.00  0.00    +0.050 A 
ATOM     10  C   UNL     1       1.507  -9.070  -1.324  0.00  0.00    +0.162 A 
ATOM     11  C   UNL     1       0.141  -9.319  -1.323  0.00  0.00    +0.162 A 
ATOM     12  C   UNL     1      -0.734  -8.403  -1.878  0.00  0.00    +0.058 A 
ATOM     13  O   UNL     1      -0.334 -10.470  -0.764  0.00  0.00    -0.488 OA
ATOM     14  C   UNL     1      -0.008 -11.680  -1.452  0.00  0.00    +0.232 C 
ATOM     15  C   UNL     1       1.368 -12.180  -1.041  0.00  0.00    +0.082 C 
ATOM     16  C   UNL     1       2.478 -11.227  -1.455  0.00  0.00    +0.232 C 
ATOM     17  O   UNL     1       2.358  -9.980  -0.767  0.00  0.00    -0.488 OA
ENDBRANCH   2   7
BRANCH   1  20
ATOM     18  C   UNL     1       0.489  -4.050   0.505  0.00  0.00    -0.005 A 
ATOM     19  C   UNL     1      -0.269  -4.713  -0.438  0.00  0.00    +0.021 A 
ATOM     20  C   UNL     1      -0.446  -4.160  -1.704  0.00  0.00    +0.045 A 
ATOM     21  C   UNL     1       0.148  -2.932  -2.015  0.00  0.00    +0.130 A 
ATOM     22  C   UNL     1       0.907  -2.273  -1.063  0.00  0.00    +0.091 A 
ATOM     23  C   UNL     1       1.073  -2.829   0.197  0.00  0.00    +0.124 A 
BRANCH  23  24
ATOM     24  O   UNL     1       1.815  -2.178   1.131  0.00  0.00    -0.506 OA
ATOM     25  H   UNL     1       2.754  -2.407   1.118  0.00  0.00    +0.292 HD
ENDBRANCH  23  24
BRANCH  21  26
ATOM     26  O   UNL     1      -0.020  -2.387  -3.248  0.00  0.00    -0.506 OA
ATOM     27  H   UNL     1      -0.745  -1.749  -3.301  0.00  0.00    +0.292 HD
ENDBRANCH  21  26
BRANCH  18  28
ATOM     28  C   UNL     1       0.679  -4.650   1.874  0.00  0.00    +0.038 C 
BRANCH  28  30
ATOM     29  C   UNL     1       2.241  -5.937   3.339  0.00  0.00    +0.004 C 
ATOM     30  C   UNL     1       2.048  -5.328   1.948  0.00  0.00    +0.001 C 
ENDBRANCH  28  30
ENDBRANCH  18  28
ENDBRANCH   1  20
TORSDOF 6
