REMARK  Name = ZINC02457849
REMARK  7 active torsions:
REMARK  status: ('A' for Active; 'I' for Inactive)
REMARK    1  A    between atoms: C_1  and  C_2
REMARK    2  A    between atoms: C_2  and  C_3
REMARK    3  A    between atoms: C_3  and  C_5
REMARK    4  A    between atoms: C_3  and  N_6
REMARK    5  A    between atoms: C_7  and  C_9
REMARK    6  A    between atoms: C_9  and  O_27
REMARK    7  A    between atoms: N_19  and  C_20
REMARK                            x       y       z     vdW  Elec       q    Type
REMARK                         _______ _______ _______ _____ _____    ______ ____
ROOT
ATOM      1  C   UNL     1      -1.345   5.971  -0.064  0.00  0.00    +0.247 C 
ATOM      2  C   UNL     1      -1.273   7.480  -0.049  0.00  0.00    +0.034 A 
ATOM      3  C   UNL     1      -2.410   8.251  -0.133  0.00  0.00    +0.025 A 
ATOM      4  C   UNL     1      -2.305   9.632  -0.117  0.00  0.00    +0.018 A 
ATOM      5  C   UNL     1      -1.062  10.231  -0.016  0.00  0.00    +0.017 A 
ATOM      6  C   UNL     1       0.080   9.459   0.068  0.00  0.00    +0.025 A 
ATOM      7  C   UNL     1      -0.020   8.074   0.052  0.00  0.00    +0.043 A 
ATOM      8  N   UNL     1       1.122   7.276   0.135  0.00  0.00    -0.269 N 
ATOM      9  C   UNL     1       1.078   5.938   0.129  0.00  0.00    +0.314 C 
ATOM     10  O   UNL     1       2.124   5.323   0.212  0.00  0.00    -0.252 OA
ATOM     11  N   UNL     1      -0.069   5.242   0.030  0.00  0.00    -0.214 N 
ATOM     12 BR   UNL     1      -3.862  10.699  -0.232  0.00  0.00    -0.050 Br
ATOM     13  H   UNL     1       1.986   7.711   0.205  0.00  0.00    +0.156 HD
ENDROOT
BRANCH  11  14
ATOM     14  C   UNL     1      -0.050   3.842   0.023  0.00  0.00    +0.041 A 
ATOM     15  C   UNL     1      -0.279   3.137   1.198  0.00  0.00    +0.024 A 
ATOM     16  C   UNL     1      -0.259   1.756   1.187  0.00  0.00    +0.002 A 
ATOM     17  C   UNL     1      -0.012   1.076   0.009  0.00  0.00    +0.000 A 
ATOM     18  C   UNL     1       0.222   1.775  -1.161  0.00  0.00    +0.002 A 
ATOM     19  C   UNL     1       0.198   3.156  -1.158  0.00  0.00    +0.024 A 
ENDBRANCH  11  14
BRANCH   1  21
ATOM     20  N   UNL     1      -1.381   5.662  -2.518  0.00  0.00    -0.309 N 
ATOM     21  C   UNL     1      -2.027   5.550  -1.341  0.00  0.00    +0.269 C 
ATOM     22  O   UNL     1      -3.157   5.111  -1.309  0.00  0.00    -0.270 OA
ATOM     23  H   UNL     1      -0.477   6.013  -2.544  0.00  0.00    +0.149 HD
BRANCH  20  24
ATOM     24  C   UNL     1      -2.044   5.254  -3.759  0.00  0.00    +0.070 C 
ATOM     25  C   UNL     1      -1.856   3.749  -3.966  0.00  0.00    +0.028 C 
BRANCH  24  27
ATOM     26  C   UNL     1      -1.726   7.505  -4.794  0.00  0.00    +0.005 C 
ATOM     27  C   UNL     1      -1.430   6.011  -4.938  0.00  0.00    +0.018 C 
ENDBRANCH  24  27
ENDBRANCH  20  24
ENDBRANCH   1  21
BRANCH   1  28
ATOM     28  O   UNL     1      -2.170   5.558   1.028  0.00  0.00    -0.360 OA
ATOM     29  H   UNL     1      -3.037   5.987   1.050  0.00  0.00    +0.213 HD
ENDBRANCH   1  28
TORSDOF 5
