REMARK  Name = ZINC10775560
REMARK  10 active torsions:
REMARK  status: ('A' for Active; 'I' for Inactive)
REMARK    1  A    between atoms: C_1  and  C_2
REMARK    2  A    between atoms: C_5  and  C_33
REMARK    3  A    between atoms: N_11  and  C_12
REMARK    4  A    between atoms: C_12  and  C_13
REMARK    5  A    between atoms: C_13  and  N_63
REMARK    6  A    between atoms: C_14  and  N_63
REMARK    7  A    between atoms: C_15  and  N_63
REMARK    8  A    between atoms: C_16  and  C_18
REMARK    9  A    between atoms: N_24  and  S_25
REMARK   10  A    between atoms: S_25  and  C_28
REMARK                            x       y       z     vdW  Elec       q    Type
REMARK                         _______ _______ _______ _____ _____    ______ ____
ROOT
ATOM      1  C   UNL     1      -0.451  -5.027  -0.285  0.00  0.00    +0.046 C 
ATOM      2  C   UNL     1      -0.402  -3.526  -0.161  0.00  0.00    -0.024 A 
ATOM      3  C   UNL     1      -0.419  -2.947   1.081  0.00  0.00    +0.006 A 
ATOM      4  C   UNL     1      -0.376  -1.570   1.240  0.00  0.00    +0.005 A 
ATOM      5  C   UNL     1      -0.315  -0.760   0.119  0.00  0.00    -0.035 A 
ATOM      6  C   UNL     1      -0.303  -1.331  -1.129  0.00  0.00    +0.044 A 
ATOM      7  C   UNL     1      -0.340  -2.730  -1.328  0.00  0.00    +0.083 A 
ATOM      8  N   UNL     1      -0.316  -3.138  -2.615  0.00  0.00    -0.224 NA
ATOM      9  C   UNL     1      -0.273  -2.296  -3.622  0.00  0.00    +0.168 A 
ATOM     10  S   UNL     1      -0.240  -0.713  -2.793  0.00  0.00    -0.052 S 
ATOM     11  N   UNL     1      -0.248  -2.567  -4.980  0.00  0.00    -0.251 N 
ATOM     12  C   UNL     1      -0.191  -1.554  -5.868  0.00  0.00    +0.240 C 
ATOM     13  O   UNL     1      -0.250  -0.406  -5.482  0.00  0.00    -0.273 OA
ATOM     14  C   UNL     1      -0.268   0.738   0.268  0.00  0.00    +0.045 C 
ENDROOT
BRANCH  12  15
ATOM     15  C   UNL     1      -0.055  -1.849  -7.340  0.00  0.00    +0.166 C 
ATOM     16  C   UNL     1       1.284  -1.306  -7.850  0.00  0.00    +0.030 C 
ATOM     17  C   UNL     1       1.353  -1.480  -9.370  0.00  0.00    +0.003 C 
ATOM     18  C   UNL     1       0.223  -0.689 -10.031  0.00  0.00    +0.017 C 
ATOM     19  C   UNL     1      -1.125  -1.228  -9.544  0.00  0.00    +0.110 C 
ATOM     20  N   UNL     1      -1.146  -1.195  -8.076  0.00  0.00    -0.164 NA
BRANCH  20  21
ATOM     21  S   UNL     1      -2.374  -0.436  -7.265  0.00  0.00    +0.068 S 
ATOM     22  O   UNL     1      -3.497  -0.437  -8.137  0.00  0.00    -0.152 OA
ATOM     23  O   UNL     1      -2.419  -1.010  -5.966  0.00  0.00    -0.152 OA
BRANCH  21  24
ATOM     24  C   UNL     1      -1.899   1.248  -7.057  0.00  0.00    +0.143 A 
ATOM     25  C   UNL     1      -2.120   2.304  -7.876  0.00  0.00    +0.036 A 
ATOM     26  C   UNL     1      -1.653   3.551  -7.503  0.00  0.00    +0.010 A 
ATOM     27  C   UNL     1      -0.979   3.677  -6.333  0.00  0.00    +0.047 A 
ATOM     28  S   UNL     1      -0.996   2.003  -5.715  0.00  0.00    -0.077 S 
ENDBRANCH  21  24
ENDBRANCH  20  21
ENDBRANCH  12  15
BRANCH  11  29
ATOM     29  C   UNL     1      -0.283  -3.953  -5.452  0.00  0.00    +0.097 C 
BRANCH  29  30
ATOM     30  C   UNL     1      -1.724  -4.341  -5.789  0.00  0.00    -0.060 C 
BRANCH  30  33
ATOM     31  C   UNL     1      -1.389  -6.662  -5.188  0.00  0.00    -0.097 C 
ATOM     32  C   UNL     1      -3.077  -6.065  -6.817  0.00  0.00    -0.097 C 
ATOM     33  N   UNL     1      -1.740  -5.734  -6.283  0.00  0.00    +0.377 N 
ATOM     34  H   UNL     1      -1.047  -5.829  -7.036  0.00  0.00    -0.083 HD
ENDBRANCH  30  33
ENDBRANCH  29  30
ENDBRANCH  11  29
TORSDOF 6
