REMARK  Name = ZINC22309794
REMARK  11 active torsions:
REMARK  status: ('A' for Active; 'I' for Inactive)
REMARK    1  A    between atoms: C_1  and  C_2
REMARK    2  A    between atoms: C_2  and  N_3
REMARK    3  A    between atoms: C_7  and  S_29
REMARK    4  A    between atoms: C_11  and  S_12
REMARK    5  A    between atoms: S_12  and  C_13
REMARK    6  A    between atoms: C_13  and  C_14
REMARK    7  A    between atoms: C_22  and  C_26
REMARK    8  A    between atoms: C_23  and  C_25
REMARK    9  A    between atoms: C_26  and  C_27
REMARK   10  A    between atoms: C_26  and  C_28
REMARK   11  A    between atoms: S_29  and  N_32
REMARK                            x       y       z     vdW  Elec       q    Type
REMARK                         _______ _______ _______ _____ _____    ______ ____
ROOT
ATOM      1  N   UNL     1      -0.936   2.212   1.156  0.00  0.00    -0.319 N 
ATOM      2  C   UNL     1       0.183   2.843   1.673  0.00  0.00    +0.070 A 
ATOM      3  C   UNL     1       1.327   2.396   2.318  0.00  0.00    +0.030 A 
ATOM      4  C   UNL     1       2.285   3.302   2.723  0.00  0.00    +0.030 A 
ATOM      5  C   UNL     1       2.113   4.658   2.490  0.00  0.00    +0.107 A 
ATOM      6  C   UNL     1       0.987   5.119   1.844  0.00  0.00    +0.058 A 
ATOM      7  C   UNL     1       0.005   4.215   1.432  0.00  0.00    +0.092 A 
ATOM      8  N   UNL     1      -1.190   4.359   0.801  0.00  0.00    -0.222 NA
ATOM      9  C   UNL     1      -1.746   3.183   0.637  0.00  0.00    +0.170 A 
ENDROOT
BRANCH   5  10
ATOM     10  S   UNL     1       3.349   5.800   3.014  0.00  0.00    +0.056 S 
ATOM     11  O   UNL     1       2.702   7.056   3.169  0.00  0.00    -0.153 OA
ATOM     12  O   UNL     1       4.057   5.172   4.074  0.00  0.00    -0.153 OA
BRANCH  10  13
ATOM     13  N   UNL     1       4.420   5.970   1.764  0.00  0.00    -0.204 NA
ATOM     14  H   UNL     1       5.212   6.677   2.052  0.00  0.00    +0.144 HD
ATOM     15  H   UNL     1       3.892   6.351   0.877  0.00  0.00    +0.144 HD
ENDBRANCH  10  13
ENDBRANCH   5  10
BRANCH   1  17
ATOM     16  C   UNL     1      -0.641   0.137  -0.105  0.00  0.00    +0.027 C 
ATOM     17  C   UNL     1      -1.206   0.772   1.168  0.00  0.00    +0.121 C 
ENDBRANCH   1  17
BRANCH   9  18
ATOM     18  S   UNL     1      -3.303   2.898  -0.136  0.00  0.00    -0.083 S 
BRANCH  18  19
ATOM     19  C   UNL     1      -3.764   4.598  -0.551  0.00  0.00    +0.113 C 
BRANCH  19  20
ATOM     20  C   UNL     1      -5.103   4.601  -1.242  0.00  0.00    -0.020 A 
ATOM     21  C   UNL     1      -6.254   4.710  -0.531  0.00  0.00    +0.097 A 
ATOM     22  C   UNL     1      -7.496   4.710  -1.202  0.00  0.00    +0.338 A 
ATOM     23  O   UNL     1      -8.522   4.808  -0.553  0.00  0.00    -0.245 OA
ATOM     24  O   UNL     1      -7.575   4.605  -2.537  0.00  0.00    -0.422 OA
ATOM     25  C   UNL     1      -6.469   4.494  -3.303  0.00  0.00    +0.140 A 
ATOM     26  C   UNL     1      -5.199   4.493  -2.701  0.00  0.00    +0.022 A 
ATOM     27  C   UNL     1      -4.051   4.384  -3.491  0.00  0.00    +0.016 A 
ATOM     28  C   UNL     1      -4.174   4.283  -4.859  0.00  0.00    -0.041 A 
ATOM     29  C   UNL     1      -5.428   4.290  -5.452  0.00  0.00    -0.044 A 
ATOM     30  C   UNL     1      -6.569   4.386  -4.684  0.00  0.00    +0.050 A 
ATOM     31  C   UNL     1      -5.545   4.179  -6.951  0.00  0.00    +0.044 C 
BRANCH  28  32
ATOM     32  C   UNL     1      -2.940   4.165  -5.716  0.00  0.00    +0.013 C 
ATOM     33  C   UNL     1      -2.128   5.459  -5.623  0.00  0.00    +0.012 C 
ATOM     34  C   UNL     1      -2.089   2.992  -5.225  0.00  0.00    +0.012 C 
ENDBRANCH  28  32
ENDBRANCH  19  20
ENDBRANCH  18  19
ENDBRANCH   9  18
TORSDOF 7
