REMARK  Name = ZINC60032081
REMARK  9 active torsions:
REMARK  status: ('A' for Active; 'I' for Inactive)
REMARK    1  A    between atoms: C_1  and  C_2
REMARK    2  A    between atoms: C_6  and  O_9
REMARK    3  A    between atoms: C_7  and  C_8
REMARK    4  A    between atoms: O_9  and  C_10
REMARK    5  A    between atoms: C_10  and  C_12
REMARK    6  A    between atoms: C_10  and  C_13
REMARK    7  A    between atoms: N_15  and  N_16
REMARK    8  A    between atoms: C_17  and  C_19
REMARK    9  A    between atoms: C_25  and  C_27
REMARK                            x       y       z     vdW  Elec       q    Type
REMARK                         _______ _______ _______ _____ _____    ______ ____
ROOT
ATOM      1  N   UNL     1       1.306  -6.716   4.759  0.00  0.00    -0.233 N 
ATOM      2  C   UNL     1       1.416  -8.056   4.848  0.00  0.00    +0.250 C 
ATOM      3  O   UNL     1       1.015  -8.759   3.945  0.00  0.00    -0.272 OA
ATOM      4  H   UNL     1       1.626  -6.153   5.481  0.00  0.00    +0.173 HD
ENDROOT
BRANCH   2   5
ATOM      5  C   UNL     1       2.038  -8.681   6.071  0.00  0.00    +0.174 C 
ATOM      6  C   UNL     1       1.226  -8.241   7.314  0.00  0.00    +0.102 C 
ATOM      7  S   UNL     1       0.194  -9.752   7.573  0.00  0.00    -0.139 S 
ATOM      8  C   UNL     1       1.412 -10.956   6.879  0.00  0.00    +0.178 C 
ATOM      9  N   UNL     1       2.097 -10.119   5.874  0.00  0.00    -0.276 N 
ATOM     10  C   UNL     1       2.746 -10.666   4.827  0.00  0.00    +0.250 C 
ATOM     11  O   UNL     1       3.372  -9.956   4.062  0.00  0.00    -0.270 OA
BRANCH  10  12
ATOM     12  C   UNL     1       2.699 -12.118   4.610  0.00  0.00    +0.062 A 
ATOM     13  C   UNL     1       2.665 -13.086   5.570  0.00  0.00    +0.096 A 
ATOM     14  N   UNL     1       2.627 -14.308   4.988  0.00  0.00    -0.360 N 
ATOM     15  H   UNL     1       2.597 -15.150   5.469  0.00  0.00    +0.165 HD
ATOM     16  C   UNL     1       2.634 -14.187   3.613  0.00  0.00    +0.047 A 
ATOM     17  C   UNL     1       2.673 -12.816   3.312  0.00  0.00    +0.012 A 
ATOM     18  C   UNL     1       2.683 -12.392   1.986  0.00  0.00    +0.011 A 
ATOM     19  C   UNL     1       2.650 -13.325   0.972  0.00  0.00    +0.001 A 
ATOM     20  C   UNL     1       2.607 -14.679   1.268  0.00  0.00    +0.002 A 
ATOM     21  C   UNL     1       2.607 -15.113   2.576  0.00  0.00    +0.026 A 
ENDBRANCH  10  12
ENDBRANCH   2   5
BRANCH   1  24
ATOM     22  C   UNL     1       0.617  -4.795   3.533  0.00  0.00    +0.270 C 
ATOM     23  O   UNL     1       1.018  -4.091   4.436  0.00  0.00    -0.270 OA
ATOM     24  N   UNL     1       0.727  -6.135   3.623  0.00  0.00    -0.231 N 
ATOM     25  H   UNL     1       0.407  -6.697   2.900  0.00  0.00    +0.173 HD
BRANCH  22  26
ATOM     26  C   UNL     1      -0.005  -4.170   2.311  0.00  0.00    +0.257 C 
ATOM     27  C   UNL     1      -1.479  -4.572   2.226  0.00  0.00    +0.062 C 
BRANCH  26  28
ATOM     28  O   UNL     1       0.097  -2.747   2.399  0.00  0.00    -0.480 OA
BRANCH  28  34
ATOM     29  C   UNL     1       0.023   1.547   0.079  0.00  0.00    +0.044 C 
ATOM     30  C   UNL     1       0.015   0.040   0.062  0.00  0.00    -0.044 A 
ATOM     31  C   UNL     1      -0.038  -0.637  -1.143  0.00  0.00    +0.004 A 
ATOM     32  C   UNL     1      -0.045  -2.019  -1.163  0.00  0.00    +0.004 A 
ATOM     33  C   UNL     1      -0.001  -2.728   0.022  0.00  0.00    +0.046 A 
ATOM     34  C   UNL     1       0.052  -2.052   1.232  0.00  0.00    +0.125 A 
ATOM     35  C   UNL     1       0.066  -0.665   1.249  0.00  0.00    -0.006 A 
ATOM     36  C   UNL     1       0.130   0.073   2.561  0.00  0.00    +0.048 C 
ENDBRANCH  28  34
ENDBRANCH  26  28
ENDBRANCH  22  26
ENDBRANCH   1  24
TORSDOF 6
