REMARK  Name = ZINC02636416
REMARK  9 active torsions:
REMARK  status: ('A' for Active; 'I' for Inactive)
REMARK    1  A    between atoms: C_1  and  N_2
REMARK    2  A    between atoms: N_2  and  C_3
REMARK    3  A    between atoms: N_2  and  C_4
REMARK    4  A    between atoms: C_7  and  C_10
REMARK    5  A    between atoms: C_10  and  C_12
REMARK    6  A    between atoms: C_10  and  C_24
REMARK    7  A    between atoms: C_12  and  N_13
REMARK    8  A    between atoms: N_13  and  S_14
REMARK    9  A    between atoms: S_14  and  C_17
REMARK                            x       y       z     vdW  Elec       q    Type
REMARK                         _______ _______ _______ _____ _____    ______ ____
ROOT
ATOM      1  C   UNL     1      -4.870  -2.906   0.033  0.00  0.00    +0.066 C 
ENDROOT
BRANCH   1   2
ATOM      2  C   UNL     1      -5.656  -2.555   1.269  0.00  0.00    -0.014 A 
ATOM      3  C   UNL     1      -6.104  -1.336   1.612  0.00  0.00    +0.088 A 
ATOM      4  N   UNL     1      -6.777  -1.403   2.801  0.00  0.00    -0.360 N 
ATOM      5  H   UNL     1      -7.191  -0.650   3.251  0.00  0.00    +0.165 HD
ATOM      6  C   UNL     1      -6.780  -2.700   3.265  0.00  0.00    +0.047 A 
ATOM      7  C   UNL     1      -6.084  -3.479   2.322  0.00  0.00    +0.003 A 
ATOM      8  C   UNL     1      -5.931  -4.851   2.529  0.00  0.00    +0.010 A 
ATOM      9  C   UNL     1      -6.463  -5.432   3.646  0.00  0.00    +0.001 A 
ATOM     10  C   UNL     1      -7.154  -4.669   4.577  0.00  0.00    +0.002 A 
ATOM     11  C   UNL     1      -7.309  -3.311   4.397  0.00  0.00    +0.026 A 
ENDBRANCH   1   2
BRANCH   1  15
ATOM     12  C   UNL     1      -1.198  -0.719   0.010  0.00  0.00    +0.029 A 
ATOM     13  C   UNL     1      -1.181  -2.108   0.008  0.00  0.00    +0.023 A 
ATOM     14  C   UNL     1      -2.369  -2.812   0.016  0.00  0.00    +0.006 A 
ATOM     15  C   UNL     1      -3.575  -2.135   0.025  0.00  0.00    -0.039 A 
ATOM     16  C   UNL     1      -3.596  -0.752   0.027  0.00  0.00    +0.006 A 
ATOM     17  C   UNL     1      -2.411  -0.042   0.025  0.00  0.00    +0.023 A 
BRANCH  12  19
ATOM     18  C   UNL     1      -0.018   1.461   0.010  0.00  0.00    +0.129 C 
ATOM     19  N   UNL     1       0.002  -0.004   0.002  0.00  0.00    -0.336 N 
ATOM     20  C   UNL     1       1.281  -0.719  -0.014  0.00  0.00    +0.129 C 
ENDBRANCH  12  19
ENDBRANCH   1  15
BRANCH   1  21
ATOM     21  C   UNL     1      -5.686  -2.545  -1.210  0.00  0.00    +0.118 C 
BRANCH  21  22
ATOM     22  N   UNL     1      -6.888  -3.381  -1.265  0.00  0.00    -0.189 NA
ATOM     23  H   UNL     1      -6.953  -4.174  -0.709  0.00  0.00    +0.148 HD
BRANCH  22  24
ATOM     24  S   UNL     1      -8.134  -2.973  -2.275  0.00  0.00    +0.058 S 
ATOM     25  O   UNL     1      -9.127  -3.979  -2.122  0.00  0.00    -0.153 OA
ATOM     26  O   UNL     1      -8.404  -1.596  -2.052  0.00  0.00    -0.153 OA
BRANCH  24  27
ATOM     27  C   UNL     1      -7.533  -3.107  -3.926  0.00  0.00    +0.105 A 
ATOM     28  C   UNL     1      -6.944  -2.016  -4.537  0.00  0.00    +0.031 A 
ATOM     29  C   UNL     1      -6.471  -2.120  -5.832  0.00  0.00    +0.040 A 
ATOM     30  C   UNL     1      -6.587  -3.318  -6.516  0.00  0.00    +0.124 A 
ATOM     31  C   UNL     1      -7.177  -4.411  -5.903  0.00  0.00    +0.040 A 
ATOM     32  C   UNL     1      -7.644  -4.306  -4.606  0.00  0.00    +0.031 A 
ATOM     33  F   UNL     1      -6.126  -3.421  -7.782  0.00  0.00    -0.205 F 
ENDBRANCH  24  27
ENDBRANCH  22  24
ENDBRANCH  21  22
ENDBRANCH   1  21
TORSDOF 7
