REMARK  Name = ZINC40647667
REMARK  4 active torsions:
REMARK  status: ('A' for Active; 'I' for Inactive)
REMARK    1  A    between atoms: C_10  and  C_11
REMARK    2  A    between atoms: N_13  and  N_14
REMARK    3  A    between atoms: C_16  and  N_31
REMARK    4  A    between atoms: C_17  and  N_21
REMARK                            x       y       z     vdW  Elec       q    Type
REMARK                         _______ _______ _______ _____ _____    ______ ____
ROOT
ATOM      1  N   UNL     1       7.323   0.193   0.038  0.00  0.00    -0.246 N 
ATOM      2  C   UNL     1       8.531  -0.482   0.127  0.00  0.00    +0.171 A 
ATOM      3  C   UNL     1       9.733   0.218   0.125  0.00  0.00    +0.207 A 
ATOM      4  C   UNL     1      10.918  -0.505   0.216  0.00  0.00    +0.157 A 
ATOM      5  N   UNL     1      10.859  -1.833   0.300  0.00  0.00    -0.218 NA
ATOM      6  C   UNL     1       9.701  -2.460   0.299  0.00  0.00    +0.225 A 
ATOM      7  N   UNL     1       8.557  -1.810   0.220  0.00  0.00    -0.217 NA
ATOM      8  H   UNL     1       7.312   1.160  -0.029  0.00  0.00    +0.172 HD
ENDROOT
BRANCH   4   9
ATOM      9  N   UNL     1      12.142   0.146   0.217  0.00  0.00    -0.309 N 
ATOM     10  C   UNL     1      12.826   0.487   1.476  0.00  0.00    +0.111 C 
ATOM     11  C   UNL     1      14.134  -0.301   1.528  0.00  0.00    +0.054 C 
ATOM     12  C   UNL     1      14.881  -0.187   0.225  0.00  0.00    -0.041 A 
ATOM     13  C   UNL     1      16.242  -0.467   0.236  0.00  0.00    +0.004 A 
ATOM     14  C   UNL     1      16.983  -0.390  -0.925  0.00  0.00    +0.000 A 
ATOM     15  C   UNL     1      16.369  -0.034  -2.111  0.00  0.00    +0.000 A 
ATOM     16  C   UNL     1      15.019   0.248  -2.124  0.00  0.00    +0.005 A 
ATOM     17  C   UNL     1      14.273   0.177  -0.956  0.00  0.00    -0.027 A 
ATOM     18  C   UNL     1      12.810   0.518  -1.035  0.00  0.00    +0.142 C 
ENDBRANCH   4   9
BRANCH   1  21
ATOM     19  C   UNL     1       4.945   0.134  -0.039  0.00  0.00    +0.261 C 
ATOM     20  O   UNL     1       4.931   1.347  -0.124  0.00  0.00    -0.269 OA
ATOM     21  N   UNL     1       6.119  -0.523   0.047  0.00  0.00    -0.231 N 
ATOM     22  H   UNL     1       6.130  -1.490   0.115  0.00  0.00    +0.173 HD
BRANCH  19  32
ATOM     23  C   UNL     1      -0.015   1.359   0.085  0.00  0.00    +0.001 A 
ATOM     24  C   UNL     1       1.170   2.091   0.078  0.00  0.00    +0.001 A 
ATOM     25  C   UNL     1       2.380   1.466   0.040  0.00  0.00    +0.009 A 
ATOM     26  C   UNL     1       2.437   0.066   0.009  0.00  0.00    -0.006 A 
ATOM     27  C   UNL     1       1.233  -0.681   0.017  0.00  0.00    -0.017 A 
ATOM     28  C   UNL     1       0.003  -0.002   0.055  0.00  0.00    +0.008 A 
ATOM     29  C   UNL     1       1.289  -2.085  -0.014  0.00  0.00    +0.008 A 
ATOM     30  C   UNL     1       2.493  -2.721  -0.050  0.00  0.00    +0.001 A 
ATOM     31  C   UNL     1       3.684  -2.006  -0.058  0.00  0.00    +0.014 A 
ATOM     32  C   UNL     1       3.677  -0.619  -0.030  0.00  0.00    +0.046 A 
ENDBRANCH  19  32
ENDBRANCH   1  21
BRANCH   3  33
ATOM     33  N   UNL     1       9.751   1.696   0.028  0.00  0.00    +0.063 N 
ATOM     34  O   UNL     1       9.811   2.366   1.032  0.00  0.00    -0.126 OA
ATOM     35  O   UNL     1       9.706   2.231  -1.055  0.00  0.00    -0.126 OA
ENDBRANCH   3  33
TORSDOF 4
