REMARK  Name = ZINC19880017
REMARK  9 active torsions:
REMARK  status: ('A' for Active; 'I' for Inactive)
REMARK    1  A    between atoms: C_5  and  C_7
REMARK    2  A    between atoms: C_9  and  C_27
REMARK    3  A    between atoms: C_11  and  C_22
REMARK    4  A    between atoms: C_11  and  O_26
REMARK    5  A    between atoms: C_13  and  S_17
REMARK    6  A    between atoms: C_14  and  C_15
REMARK    7  A    between atoms: S_17  and  C_18
REMARK    8  A    between atoms: C_18  and  C_19
REMARK    9  A    between atoms: C_27  and  C_29
REMARK                            x       y       z     vdW  Elec       q    Type
REMARK                         _______ _______ _______ _____ _____    ______ ____
ROOT
ATOM      1  C   UNL     1       2.450   3.937  -0.004  0.00  0.00    +0.078 C 
ATOM      2  C   UNL     1       3.292   3.502  -1.205  0.00  0.00    +0.132 C 
ATOM      3  C   UNL     1       3.799   2.074  -0.961  0.00  0.00    +0.239 C 
ATOM      4  N   UNL     1       4.652   2.096   0.235  0.00  0.00    -0.303 N 
ATOM      5  C   UNL     1       4.226   2.789   1.344  0.00  0.00    +0.078 C 
ATOM      6  C   UNL     1       3.196   3.671   1.275  0.00  0.00    +0.065 C 
ATOM      7  H   UNL     1       5.614   1.562   0.235  0.00  0.00    +0.150 HD
ENDROOT
BRANCH   1  12
ATOM      8  C   UNL     1      -0.142   1.299   0.755  0.00  0.00    +0.000 A 
ATOM      9  C   UNL     1      -1.219   1.748   0.014  0.00  0.00    +0.001 A 
ATOM     10  C   UNL     1      -1.112   2.910  -0.726  0.00  0.00    +0.020 A 
ATOM     11  C   UNL     1       0.077   3.619  -0.734  0.00  0.00    +0.045 A 
ATOM     12  C   UNL     1       1.156   3.166   0.004  0.00  0.00    -0.020 A 
ATOM     13  C   UNL     1       1.046   2.006   0.748  0.00  0.00    +0.006 A 
ATOM     14 CL   UNL     1       0.213   5.075  -1.668  0.00  0.00    -0.083 Cl
ENDBRANCH   1  12
BRANCH   3  15
ATOM     15  C   UNL     1       4.611   1.599  -2.167  0.00  0.00    +0.436 C 
ATOM     16  F   UNL     1       5.098   0.310  -1.923  0.00  0.00    -0.166 F 
ATOM     17  F   UNL     1       3.793   1.581  -3.303  0.00  0.00    -0.166 F 
ATOM     18  F   UNL     1       5.685   2.470  -2.380  0.00  0.00    -0.166 F 
ENDBRANCH   3  15
BRANCH   6  19
ATOM     19  C   UNL     1       2.805   4.372   2.461  0.00  0.00    +0.098 C 
ATOM     20  N   UNL     1       2.495   4.928   3.401  0.00  0.00    -0.191 NA
ENDBRANCH   6  19
BRANCH   3  21
ATOM     21  O   UNL     1       2.690   1.198  -0.749  0.00  0.00    -0.364 OA
ATOM     22  H   UNL     1       2.863   0.129  -0.558  0.00  0.00    +0.212 HD
ENDBRANCH   3  21
BRANCH   2  23
ATOM     23  C   UNL     1       4.466   4.435  -1.364  0.00  0.00    +0.178 C 
ATOM     24  O   UNL     1       4.947   4.976  -0.389  0.00  0.00    -0.291 OA
BRANCH  23  25
ATOM     25  C   UNL     1       5.006   4.679  -2.646  0.00  0.00    +0.055 A 
ATOM     26  C   UNL     1       6.070   5.498  -3.008  0.00  0.00    +0.019 A 
ATOM     27  C   UNL     1       6.392   5.549  -4.338  0.00  0.00    +0.008 A 
ATOM     28  C   UNL     1       5.664   4.820  -5.227  0.00  0.00    +0.046 A 
ATOM     29  S   UNL     1       4.496   4.022  -4.225  0.00  0.00    -0.094 S 
ENDBRANCH  23  25
ENDBRANCH   2  23
BRANCH   5  30
ATOM     30  S   UNL     1       5.035   2.528   2.887  0.00  0.00    -0.100 S 
BRANCH  30  31
ATOM     31  C   UNL     1       6.271   1.303   2.391  0.00  0.00    +0.171 C 
BRANCH  31  32
ATOM     32  C   UNL     1       7.106   0.919   3.586  0.00  0.00    +0.221 C 
ATOM     33  O   UNL     1       6.886   1.424   4.666  0.00  0.00    -0.275 OA
ATOM     34  N   UNL     1       8.096   0.014   3.453  0.00  0.00    -0.329 N 
ATOM     35  H   UNL     1       8.705  -0.266   4.325  0.00  0.00    +0.145 HD
ATOM     36  H   UNL     1       8.295  -0.444   2.473  0.00  0.00    +0.145 HD
ENDBRANCH  31  32
ENDBRANCH  30  31
ENDBRANCH   5  30
TORSDOF 9
