REMARK  Name = ZINC05369377
REMARK  6 active torsions:
REMARK  status: ('A' for Active; 'I' for Inactive)
REMARK    1  A    between atoms: C_10  and  O_32
REMARK    2  A    between atoms: C_12  and  C_18
REMARK    3  A    between atoms: C_13  and  O_17
REMARK    4  A    between atoms: C_18  and  C_19
REMARK    5  A    between atoms: C_19  and  C_20
REMARK    6  A    between atoms: C_20  and  N_21
REMARK                            x       y       z     vdW  Elec       q    Type
REMARK                         _______ _______ _______ _____ _____    ______ ____
ROOT
ATOM      1  C   UNL     1       2.404   0.040  -0.021  0.00  0.00    +0.001 A 
ATOM      2  C   UNL     1       2.385   1.423  -0.013  0.00  0.00    +0.001 A 
ATOM      3  C   UNL     1       1.183   2.107   0.002  0.00  0.00    +0.012 A 
ATOM      4  C   UNL     1      -0.017   1.402   0.010  0.00  0.00    +0.033 A 
ATOM      5  C   UNL     1       0.002  -0.004   0.002  0.00  0.00    +0.033 A 
ATOM      6  C   UNL     1       1.221  -0.677  -0.013  0.00  0.00    +0.012 A 
ATOM      7  C   UNL     1      -1.267  -0.761   0.011  0.00  0.00    +0.198 C 
ATOM      8  O   UNL     1      -1.251  -1.977   0.004  0.00  0.00    -0.286 OA
ATOM      9  C   UNL     1      -2.552  -0.041   0.027  0.00  0.00    +0.078 A 
ATOM     10  C   UNL     1      -3.756  -0.748   0.035  0.00  0.00    +0.129 A 
ATOM     11  C   UNL     1      -4.967  -0.057   0.050  0.00  0.00    +0.053 A 
ATOM     12  C   UNL     1      -4.986   1.319   0.058  0.00  0.00    -0.002 A 
ATOM     13  C   UNL     1      -3.794   2.043   0.050  0.00  0.00    +0.132 A 
ATOM     14  C   UNL     1      -2.571   1.369   0.035  0.00  0.00    +0.078 A 
ATOM     15  C   UNL     1      -1.306   2.124   0.032  0.00  0.00    +0.198 C 
ATOM     16  O   UNL     1      -1.323   3.340   0.039  0.00  0.00    -0.286 OA
ENDROOT
BRANCH  13  17
ATOM     17  O   UNL     1      -3.823   3.399   0.058  0.00  0.00    -0.506 OA
ATOM     18  H   UNL     1      -3.839   3.797  -0.823  0.00  0.00    +0.292 HD
ENDBRANCH  13  17
BRANCH  10  19
ATOM     19  O   UNL     1      -3.748  -2.104   0.028  0.00  0.00    -0.506 OA
ATOM     20  H   UNL     1      -3.737  -2.502   0.909  0.00  0.00    +0.292 HD
ENDBRANCH  10  19
BRANCH  12  21
ATOM     21  C   UNL     1      -6.304   2.049   0.074  0.00  0.00    +0.040 C 
BRANCH  21  22
ATOM     22  C   UNL     1      -6.703   2.414  -1.357  0.00  0.00    +0.024 C 
BRANCH  22  23
ATOM     23  C   UNL     1      -8.042   3.155  -1.340  0.00  0.00    +0.117 C 
BRANCH  23  24
ATOM     24  N   UNL     1      -8.424   3.505  -2.711  0.00  0.00    -0.234 N 
ATOM     25  C   UNL     1      -8.091   4.655  -3.324  0.00  0.00    +0.254 C 
ATOM     26  O   UNL     1      -7.435   5.554  -2.837  0.00  0.00    -0.270 OA
ATOM     27  C   UNL     1      -8.653   4.640  -4.691  0.00  0.00    +0.049 A 
ATOM     28  C   UNL     1      -8.634   5.527  -5.755  0.00  0.00    +0.014 A 
ATOM     29  C   UNL     1      -9.286   5.200  -6.934  0.00  0.00    +0.001 A 
ATOM     30  C   UNL     1      -9.954   3.996  -7.055  0.00  0.00    +0.001 A 
ATOM     31  C   UNL     1      -9.981   3.098  -5.999  0.00  0.00    +0.014 A 
ATOM     32  C   UNL     1      -9.334   3.412  -4.814  0.00  0.00    +0.049 A 
ATOM     33  C   UNL     1      -9.158   2.720  -3.520  0.00  0.00    +0.254 C 
ATOM     34  O   UNL     1      -9.603   1.627  -3.234  0.00  0.00    -0.270 OA
ENDBRANCH  23  24
ENDBRANCH  22  23
ENDBRANCH  21  22
ENDBRANCH  12  21
TORSDOF 6
