REMARK  Name = ZINC35316470
REMARK  5 active torsions:
REMARK  status: ('A' for Active; 'I' for Inactive)
REMARK    1  A    between atoms: C_4  and  C_7
REMARK    2  A    between atoms: C_8  and  C_24
REMARK    3  A    between atoms: C_9  and  N_23
REMARK    4  A    between atoms: C_17  and  C_21
REMARK    5  A    between atoms: C_18  and  N_20
REMARK                            x       y       z     vdW  Elec       q    Type
REMARK                         _______ _______ _______ _____ _____    ______ ____
ROOT
ATOM      1  C   UNL     1       3.697  -0.686  -0.038  0.00  0.00    +0.019 A 
ATOM      2  C   UNL     1       4.575  -0.584  -1.141  0.00  0.00    +0.100 A 
ATOM      3  C   UNL     1       5.787  -1.296  -1.086  0.00  0.00    +0.135 A 
ATOM      4  N   UNL     1       6.106  -2.038  -0.050  0.00  0.00    -0.230 NA
ATOM      5  C   UNL     1       5.309  -2.174   1.030  0.00  0.00    +0.090 A 
ATOM      6  C   UNL     1       4.091  -1.480   1.032  0.00  0.00    +0.049 A 
ATOM      7  S   UNL     1       3.339  -1.888   2.585  0.00  0.00    -0.066 S 
ATOM      8  C   UNL     1       4.602  -2.951   3.242  0.00  0.00    +0.113 A 
ATOM      9  C   UNL     1       5.586  -2.984   2.236  0.00  0.00    +0.035 A 
ATOM     10  C   UNL     1       6.730  -3.767   2.491  0.00  0.00    +0.035 A 
ATOM     11  C   UNL     1       6.815  -4.466   3.692  0.00  0.00    +0.092 A 
ATOM     12  C   UNL     1       5.764  -4.381   4.627  0.00  0.00    +0.135 A 
ATOM     13  N   UNL     1       4.712  -3.618   4.373  0.00  0.00    -0.224 NA
ENDROOT
BRANCH   1  17
ATOM     14  C   UNL     1      -0.017   1.379   0.010  0.00  0.00    +0.000 A 
ATOM     15  C   UNL     1       1.169   2.093   0.002  0.00  0.00    +0.001 A 
ATOM     16  C   UNL     1       2.377   1.428  -0.013  0.00  0.00    +0.008 A 
ATOM     17  C   UNL     1       2.403   0.033  -0.021  0.00  0.00    -0.015 A 
ATOM     18  C   UNL     1       1.205  -0.680  -0.013  0.00  0.00    +0.008 A 
ATOM     19  C   UNL     1       0.002  -0.004   0.002  0.00  0.00    +0.001 A 
ENDBRANCH   1  17
BRANCH  12  20
ATOM     20  N   UNL     1       5.844  -5.074   5.821  0.00  0.00    -0.342 N 
ATOM     21  H   UNL     1       6.623  -5.618   6.015  0.00  0.00    +0.144 HD
ATOM     22  H   UNL     1       5.121  -5.015   6.465  0.00  0.00    +0.144 HD
ENDBRANCH  12  20
BRANCH   3  23
ATOM     23  N   UNL     1       6.667  -1.214  -2.154  0.00  0.00    -0.342 N 
ATOM     24  H   UNL     1       6.444  -0.670  -2.926  0.00  0.00    +0.144 HD
ATOM     25  H   UNL     1       7.506  -1.700  -2.129  0.00  0.00    +0.144 HD
ENDBRANCH   3  23
BRANCH  11  26
ATOM     26  C   UNL     1       7.966  -5.269   3.975  0.00  0.00    +0.103 C 
ATOM     27  N   UNL     1       8.879  -5.906   4.201  0.00  0.00    -0.191 NA
ENDBRANCH  11  26
BRANCH   2  28
ATOM     28  C   UNL     1       4.241   0.220  -2.279  0.00  0.00    +0.103 C 
ATOM     29  N   UNL     1       3.976   0.857  -3.181  0.00  0.00    -0.191 NA
ENDBRANCH   2  28
TORSDOF 5
