REMARK  Name = ZINC38705377
REMARK  12 active torsions:
REMARK  status: ('A' for Active; 'I' for Inactive)
REMARK    1  A    between atoms: C_1  and  C_2
REMARK    2  A    between atoms: C_2  and  C_3
REMARK    3  A    between atoms: C_3  and  C_4
REMARK    4  A    between atoms: C_4  and  N_5
REMARK    5  A    between atoms: C_6  and  C_25
REMARK    6  A    between atoms: C_9  and  C_16
REMARK    7  A    between atoms: C_17  and  C_24
REMARK    8  A    between atoms: C_19  and  C_23
REMARK    9  A    between atoms: C_21  and  O_22
REMARK   10  A    between atoms: C_27  and  O_33
REMARK   11  A    between atoms: C_28  and  O_32
REMARK   12  A    between atoms: O_33  and  C_34
REMARK                            x       y       z     vdW  Elec       q    Type
REMARK                         _______ _______ _______ _____ _____    ______ ____
ROOT
ATOM      1  N   UNL     1       1.217  -2.069  -2.648  0.00  0.00    -0.285 N 
ATOM      2  C   UNL     1       0.891  -2.401  -4.041  0.00  0.00    +0.141 C 
ATOM      3  C   UNL     1       2.150  -2.962  -4.641  0.00  0.00    +0.035 A 
ATOM      4  C   UNL     1       2.782  -3.498  -5.768  0.00  0.00    +0.102 A 
ATOM      5  N   UNL     1       4.029  -3.767  -5.431  0.00  0.00    -0.173 NA
ATOM      6  N   UNL     1       4.246  -3.453  -4.204  0.00  0.00    -0.272 N 
ATOM      7  H   UNL     1       5.092  -3.562  -3.743  0.00  0.00    +0.189 HD
ATOM      8  C   UNL     1       3.109  -2.941  -3.646  0.00  0.00    +0.126 A 
ATOM      9  C   UNL     1       2.507  -2.381  -2.431  0.00  0.00    +0.265 C 
ATOM     10  O   UNL     1       3.092  -2.224  -1.376  0.00  0.00    -0.268 OA
ENDROOT
BRANCH   4  11
ATOM     11  C   UNL     1       2.164  -3.725  -7.098  0.00  0.00    +0.047 A 
ATOM     12  C   UNL     1       2.788  -3.252  -8.250  0.00  0.00    -0.037 A 
ATOM     13  C   UNL     1       2.209  -3.466  -9.484  0.00  0.00    +0.007 A 
ATOM     14  C   UNL     1       1.009  -4.147  -9.582  0.00  0.00    -0.047 A 
ATOM     15  C   UNL     1       0.381  -4.620  -8.446  0.00  0.00    +0.049 A 
ATOM     16  C   UNL     1       0.954  -4.418  -7.201  0.00  0.00    +0.127 A 
ATOM     17  C   UNL     1       0.384  -4.375 -10.935  0.00  0.00    +0.044 C 
ATOM     18  C   UNL     1       4.095  -2.509  -8.148  0.00  0.00    +0.044 C 
BRANCH  16  19
ATOM     19  O   UNL     1       0.340  -4.887  -6.083  0.00  0.00    -0.506 OA
ATOM     20  H   UNL     1      -0.340  -4.296  -5.731  0.00  0.00    +0.292 HD
ENDBRANCH  16  19
ENDBRANCH   4  11
BRANCH   2  21
ATOM     21  C   UNL     1       0.468  -1.160  -4.784  0.00  0.00    -0.018 A 
ATOM     22  C   UNL     1      -0.697  -1.167  -5.530  0.00  0.00    +0.055 A 
ATOM     23  C   UNL     1      -1.087  -0.027  -6.215  0.00  0.00    +0.163 A 
ATOM     24  C   UNL     1      -0.306   1.123  -6.149  0.00  0.00    +0.173 A 
ATOM     25  C   UNL     1       0.860   1.123  -5.399  0.00  0.00    +0.063 A 
ATOM     26  C   UNL     1       1.241  -0.017  -4.714  0.00  0.00    +0.025 A 
ATOM     27 BR   UNL     1       1.925   2.683  -5.306  0.00  0.00    -0.046 Br
BRANCH  24  28
ATOM     28  O   UNL     1      -0.685   2.244  -6.819  0.00  0.00    -0.503 OA
ATOM     29  H   UNL     1      -1.250   2.837  -6.306  0.00  0.00    +0.292 HD
ENDBRANCH  24  28
BRANCH  23  30
ATOM     30  O   UNL     1      -2.232  -0.032  -6.949  0.00  0.00    -0.491 OA
ATOM     31  C   UNL     1      -2.983  -1.248  -6.971  0.00  0.00    +0.277 C 
ENDBRANCH  23  30
ENDBRANCH   2  21
BRANCH   1  32
ATOM     32  C   UNL     1       0.297  -1.491  -1.665  0.00  0.00    +0.109 C 
BRANCH  32  33
ATOM     33  C   UNL     1       0.368   0.036  -1.737  0.00  0.00    +0.019 C 
BRANCH  33  35
ATOM     34  C   UNL     1      -0.522   2.166  -0.782  0.00  0.00    +0.004 C 
ATOM     35  C   UNL     1      -0.593   0.640  -0.711  0.00  0.00    -0.002 C 
ENDBRANCH  33  35
ENDBRANCH  32  33
ENDBRANCH   1  32
TORSDOF 8
