REMARK  Name = ZINC13775546
REMARK  8 active torsions:
REMARK  status: ('A' for Active; 'I' for Inactive)
REMARK    1  A    between atoms: C_1  and  O_2
REMARK    2  A    between atoms: O_2  and  C_3
REMARK    3  A    between atoms: C_5  and  C_10
REMARK    4  A    between atoms: C_8  and  O_9
REMARK    5  A    between atoms: C_10  and  C_12
REMARK    6  A    between atoms: C_10  and  C_24
REMARK    7  A    between atoms: C_13  and  O_23
REMARK    8  A    between atoms: C_30  and  O_31
REMARK                            x       y       z     vdW  Elec       q    Type
REMARK                         _______ _______ _______ _____ _____    ______ ____
ROOT
ATOM      1  C   UNL     1       0.590  -3.968   2.791  0.00  0.00    +0.100 C 
ENDROOT
BRANCH   1   2
ATOM      2  C   UNL     1       0.241  -3.766   4.244  0.00  0.00    +0.090 A 
ATOM      3  C   UNL     1       1.164  -4.043   5.239  0.00  0.00    +0.224 A 
ATOM      4  N   UNL     1       0.844  -3.797   6.508  0.00  0.00    -0.189 NA
ATOM      5  C   UNL     1      -0.343  -3.317   6.859  0.00  0.00    +0.175 A 
ATOM      6  N   UNL     1      -1.324  -3.161   5.938  0.00  0.00    -0.287 N 
ATOM      7  C   UNL     1      -1.016  -3.291   4.617  0.00  0.00    +0.262 A 
ATOM      8  O   UNL     1      -1.837  -2.996   3.764  0.00  0.00    -0.267 OA
ATOM      9  C   UNL     1      -2.727  -2.897   6.239  0.00  0.00    +0.128 C 
ATOM     10  C   UNL     1      -2.931  -2.104   7.519  0.00  0.00    +0.033 C 
ATOM     11  C   UNL     1      -2.345  -2.906   8.689  0.00  0.00    +0.079 C 
ATOM     12  S   UNL     1      -0.542  -2.840   8.548  0.00  0.00    -0.087 S 
BRANCH   3  13
ATOM     13  O   UNL     1       2.376  -4.558   4.926  0.00  0.00    -0.492 OA
ATOM     14  H   UNL     1       2.946  -4.715   5.691  0.00  0.00    +0.294 HD
ENDBRANCH   3  13
ENDBRANCH   1   2
BRANCH   1  15
ATOM     15  C   UNL     1       0.909  -2.636   2.162  0.00  0.00    +0.090 A 
ATOM     16  C   UNL     1       1.835  -1.756   2.763  0.00  0.00    +0.282 A 
ATOM     17  O   UNL     1       2.416  -2.074   3.791  0.00  0.00    -0.265 OA
ATOM     18  N   UNL     1       2.067  -0.572   2.191  0.00  0.00    -0.185 NA
ATOM     19  C   UNL     1       1.472  -0.198   1.063  0.00  0.00    +0.175 A 
ATOM     20  N   UNL     1       0.615  -1.033   0.430  0.00  0.00    -0.291 N 
ATOM     21  C   UNL     1       0.315  -2.255   1.005  0.00  0.00    +0.204 A 
ATOM     22  C   UNL     1      -0.048  -0.770  -0.843  0.00  0.00    +0.128 C 
ATOM     23  C   UNL     1      -0.159   0.707  -1.177  0.00  0.00    +0.033 C 
ATOM     24  C   UNL     1       1.255   1.301  -1.228  0.00  0.00    +0.079 C 
ATOM     25  S   UNL     1       1.860   1.419   0.473  0.00  0.00    -0.087 S 
BRANCH  21  26
ATOM     26  O   UNL     1      -0.579  -3.075   0.409  0.00  0.00    -0.493 OA
ATOM     27  H   UNL     1      -0.185  -3.691  -0.225  0.00  0.00    +0.294 HD
ENDBRANCH  21  26
ENDBRANCH   1  15
BRANCH   1  30
ATOM     28  C   UNL     1       2.754  -7.064   2.827  0.00  0.00    +0.162 A 
ATOM     29  C   UNL     1       1.654  -6.228   2.930  0.00  0.00    +0.054 A 
ATOM     30  C   UNL     1       1.788  -4.875   2.683  0.00  0.00    -0.031 A 
ATOM     31  C   UNL     1       3.022  -4.350   2.344  0.00  0.00    +0.008 A 
ATOM     32  C   UNL     1       4.125  -5.178   2.244  0.00  0.00    +0.049 A 
ATOM     33  C   UNL     1       3.995  -6.536   2.485  0.00  0.00    +0.158 A 
BRANCH  28  35
ATOM     34  C   UNL     1       1.318  -8.868   3.409  0.00  0.00    +0.277 C 
ATOM     35  O   UNL     1       2.622  -8.397   3.064  0.00  0.00    -0.491 OA
ENDBRANCH  28  35
BRANCH  33  36
ATOM     36  O   UNL     1       5.079  -7.352   2.388  0.00  0.00    -0.503 OA
ATOM     37  H   UNL     1       5.570  -7.453   3.215  0.00  0.00    +0.292 HD
ENDBRANCH  33  36
ENDBRANCH   1  30
TORSDOF 7
