REMARK  Name = ZINC64352839
REMARK  7 active torsions:
REMARK  status: ('A' for Active; 'I' for Inactive)
REMARK    1  A    between atoms: C_4  and  C_7
REMARK    2  A    between atoms: C_9  and  C_17
REMARK    3  A    between atoms: C_17  and  C_19
REMARK    4  A    between atoms: C_17  and  C_29
REMARK    5  A    between atoms: C_19  and  N_20
REMARK    6  A    between atoms: C_21  and  C_23
REMARK    7  A    between atoms: C_23  and  N_24
REMARK                            x       y       z     vdW  Elec       q    Type
REMARK                         _______ _______ _______ _____ _____    ______ ____
ROOT
ATOM      1  C   UNL     1       4.205  -0.344  -2.669  0.00  0.00    +0.065 C 
ENDROOT
BRANCH   1   3
ATOM      2  C   UNL     1       4.625  -2.468  -1.053  0.00  0.00    +0.137 C 
ATOM      3  C   UNL     1       3.906  -1.204  -1.468  0.00  0.00    -0.025 C 
ATOM      4  C   UNL     1       2.940  -1.002  -0.543  0.00  0.00    +0.000 A 
ATOM      5  C   UNL     1       1.918   0.040  -0.384  0.00  0.00    +0.010 A 
ATOM      6  C   UNL     1       1.071  -0.027   0.669  0.00  0.00    +0.001 A 
ATOM      7  C   UNL     1       1.145  -1.064   1.609  0.00  0.00    +0.002 A 
ATOM      8  C   UNL     1       2.057  -2.056   1.531  0.00  0.00    +0.026 A 
ATOM      9  C   UNL     1       2.997  -2.085   0.464  0.00  0.00    +0.043 A 
ATOM     10  N   UNL     1       3.962  -2.926   0.172  0.00  0.00    -0.374 N 
ATOM     11  H   UNL     1       4.197  -3.718   0.681  0.00  0.00    +0.161 HD
BRANCH   2  15
ATOM     12  C   UNL     1       8.741  -1.629  -0.276  0.00  0.00    +0.000 A 
ATOM     13  C   UNL     1       8.368  -2.208  -1.474  0.00  0.00    +0.000 A 
ATOM     14  C   UNL     1       7.036  -2.479  -1.726  0.00  0.00    +0.006 A 
ATOM     15  C   UNL     1       6.077  -2.172  -0.778  0.00  0.00    -0.021 A 
ATOM     16  C   UNL     1       6.450  -1.594   0.420  0.00  0.00    +0.006 A 
ATOM     17  C   UNL     1       7.782  -1.321   0.671  0.00  0.00    +0.000 A 
ENDBRANCH   2  15
ENDBRANCH   1   3
BRANCH   1  18
ATOM     18  C   UNL     1       2.973   0.438  -3.046  0.00  0.00    -0.039 A 
ATOM     19  C   UNL     1       1.810  -0.227  -3.387  0.00  0.00    +0.004 A 
ATOM     20  C   UNL     1       0.679   0.490  -3.733  0.00  0.00    +0.000 A 
ATOM     21  C   UNL     1       0.712   1.872  -3.737  0.00  0.00    +0.000 A 
ATOM     22  C   UNL     1       1.875   2.537  -3.396  0.00  0.00    +0.000 A 
ATOM     23  C   UNL     1       3.004   1.820  -3.046  0.00  0.00    +0.004 A 
ENDBRANCH   1  18
BRANCH   1  24
ATOM     24  C   UNL     1       4.623  -1.232  -3.841  0.00  0.00    +0.116 C 
BRANCH  24  25
ATOM     25  N   UNL     1       5.034  -0.392  -4.969  0.00  0.00    -0.313 N 
ATOM     26  C   UNL     1       5.446  -0.962  -6.119  0.00  0.00    +0.232 C 
ATOM     27  O   UNL     1       5.477  -2.170  -6.220  0.00  0.00    -0.274 OA
ATOM     28  H   UNL     1       5.009   0.574  -4.888  0.00  0.00    +0.149 HD
BRANCH  26  29
ATOM     29  C   UNL     1       5.868  -0.097  -7.279  0.00  0.00    +0.221 C 
BRANCH  29  30
ATOM     30  N   UNL     1       6.269  -0.948  -8.402  0.00  0.00    -0.247 N 
ATOM     31  C   UNL     1       5.379  -1.437  -9.469  0.00  0.00    +0.132 C 
ATOM     32  C   UNL     1       6.322  -2.270 -10.361  0.00  0.00    +0.069 C 
ATOM     33  C   UNL     1       7.665  -2.150  -9.677  0.00  0.00    +0.104 C 
ATOM     34  N   UNL     1       7.556  -1.425  -8.641  0.00  0.00    -0.196 NA
ENDBRANCH  29  30
ENDBRANCH  26  29
ENDBRANCH  24  25
ENDBRANCH   1  24
TORSDOF 7
