REMARK  Name = ZINC10015714
REMARK  7 active torsions:
REMARK  status: ('A' for Active; 'I' for Inactive)
REMARK    1  A    between atoms: C_1  and  C_2
REMARK    2  A    between atoms: C_7  and  C_8
REMARK    3  A    between atoms: C_11  and  S_13
REMARK    4  A    between atoms: S_13  and  C_14
REMARK    5  A    between atoms: C_14  and  C_15
REMARK    6  A    between atoms: N_21  and  C_22
REMARK    7  A    between atoms: C_27  and  C_28
REMARK                            x       y       z     vdW  Elec       q    Type
REMARK                         _______ _______ _______ _____ _____    ______ ____
ROOT
ATOM      1  C   UNL     1       2.017   9.737   0.032  0.00  0.00    +0.146 A 
ATOM      2  N   UNL     1       2.301  10.331   1.178  0.00  0.00    -0.199 NA
ATOM      3  C   UNL     1       2.859  11.539   1.183  0.00  0.00    +0.217 A 
ATOM      4  N   UNL     1       3.120  12.153   0.035  0.00  0.00    -0.181 NA
ATOM      5  C   UNL     1       2.829  11.556  -1.115  0.00  0.00    +0.224 A 
ATOM      6  N   UNL     1       2.276  10.345  -1.113  0.00  0.00    -0.198 NA
ATOM      7  N   UNL     1       3.099  12.190  -2.312  0.00  0.00    -0.283 N 
ATOM      8  N   UNL     1       3.160  12.156   2.381  0.00  0.00    -0.327 N 
ATOM      9  H   UNL     1       2.966  11.720  -3.151  0.00  0.00    +0.155 HD
ATOM     10  H   UNL     1       3.562  13.038   2.384  0.00  0.00    +0.145 HD
ATOM     11  H   UNL     1       2.968  11.707   3.219  0.00  0.00    +0.145 HD
ENDROOT
BRANCH   7  12
ATOM     12  C   UNL     1       3.565  13.508  -2.315  0.00  0.00    +0.036 A 
ATOM     13  C   UNL     1       3.284  14.348  -1.245  0.00  0.00    +0.023 A 
ATOM     14  C   UNL     1       3.750  15.648  -1.249  0.00  0.00    +0.002 A 
ATOM     15  C   UNL     1       4.486  16.117  -2.321  0.00  0.00    +0.000 A 
ATOM     16  C   UNL     1       4.763  15.286  -3.391  0.00  0.00    +0.005 A 
ATOM     17  C   UNL     1       4.305  13.983  -3.391  0.00  0.00    -0.029 A 
ATOM     18  C   UNL     1       4.607  13.077  -4.557  0.00  0.00    +0.045 C 
ENDBRANCH   7  12
BRANCH   1  19
ATOM     19  C   UNL     1       1.391   8.366   0.030  0.00  0.00    +0.155 C 
BRANCH  19  20
ATOM     20  S   UNL     1       2.693   7.109   0.004  0.00  0.00    -0.058 S 
BRANCH  20  24
ATOM     21  C   UNL     1       1.069   3.586   0.001  0.00  0.00    +0.249 A 
ATOM     22  N   UNL     1       0.016   4.367   0.015  0.00  0.00    -0.106 NA
ATOM     23  N   UNL     1       0.396   5.596   0.024  0.00  0.00    -0.101 NA
ATOM     24  C   UNL     1       1.708   5.648   0.006  0.00  0.00    +0.278 A 
ATOM     25  O   UNL     1       2.162   4.380  -0.009  0.00  0.00    -0.411 OA
BRANCH  21  32
ATOM     26  C   UNL     1      -1.453   2.167   0.019  0.00  0.00    +0.044 C 
ATOM     27  C   UNL     1      -0.149   1.413   0.001  0.00  0.00    -0.038 A 
ATOM     28  C   UNL     1      -0.149   0.033  -0.009  0.00  0.00    +0.004 A 
ATOM     29  C   UNL     1       1.048  -0.661  -0.031  0.00  0.00    +0.000 A 
ATOM     30  C   UNL     1       2.251   0.022  -0.043  0.00  0.00    +0.001 A 
ATOM     31  C   UNL     1       2.265   1.401  -0.033  0.00  0.00    +0.013 A 
ATOM     32  C   UNL     1       1.061   2.108  -0.010  0.00  0.00    +0.041 A 
ENDBRANCH  21  32
ENDBRANCH  20  24
ENDBRANCH  19  20
ENDBRANCH   1  19
TORSDOF 5
