REMARK  Name = ZINC39674354
REMARK  8 active torsions:
REMARK  status: ('A' for Active; 'I' for Inactive)
REMARK    1  A    between atoms: C_1  and  C_2
REMARK    2  A    between atoms: C_6  and  C_9
REMARK    3  A    between atoms: C_13  and  C_22
REMARK    4  A    between atoms: N_24  and  C_25
REMARK    5  A    between atoms: C_25  and  C_27
REMARK    6  A    between atoms: C_25  and  C_28
REMARK    7  A    between atoms: C_29  and  C_35
REMARK    8  A    between atoms: C_32  and  C_34
REMARK                            x       y       z     vdW  Elec       q    Type
REMARK                         _______ _______ _______ _____ _____    ______ ____
ROOT
ATOM      1  C   UNL     1       0.108  -2.820   3.527  0.00  0.00    +0.251 C 
ATOM      2  O   UNL     1       1.079  -3.066   4.217  0.00  0.00    -0.270 OA
ATOM      3  N   UNL     1      -1.124  -3.160   3.951  0.00  0.00    -0.296 N 
ATOM      4  C   UNL     1      -2.415  -2.951   3.254  0.00  0.00    +0.121 C 
ATOM      5  C   UNL     1      -3.224  -4.237   3.536  0.00  0.00    +0.100 C 
ATOM      6  C   UNL     1      -2.617  -4.807   4.829  0.00  0.00    -0.004 C 
ATOM      7  C   UNL     1      -1.495  -3.834   5.219  0.00  0.00    +0.115 C 
ATOM      8  C   UNL     1      -3.674  -4.865   5.928  0.00  0.00    -0.010 C 
ATOM      9  C   UNL     1      -3.062  -5.489   7.185  0.00  0.00    -0.082 C 
ATOM     10  N   UNL     1      -2.574  -6.838   6.877  0.00  0.00    +0.379 N 
ATOM     11  C   UNL     1      -1.493  -6.766   5.886  0.00  0.00    -0.082 C 
ATOM     12  C   UNL     1      -2.038  -6.196   4.573  0.00  0.00    -0.010 C 
ATOM     13  H   UNL     1      -2.227  -7.270   7.720  0.00  0.00    -0.086 HD
ATOM     14  H   UNL     1      -3.331  -7.392   6.505  0.00  0.00    -0.086 HD
ENDROOT
BRANCH   1  20
ATOM     15  C   UNL     1       0.381   1.372   0.827  0.00  0.00    +0.047 C 
ATOM     16  C   UNL     1       0.413  -0.132   0.917  0.00  0.00    -0.014 A 
ATOM     17  C   UNL     1       0.604  -0.888  -0.225  0.00  0.00    +0.007 A 
ATOM     18  C   UNL     1       0.634  -2.269  -0.152  0.00  0.00    +0.021 A 
ATOM     19  C   UNL     1       0.474  -2.904   1.064  0.00  0.00    +0.056 A 
ATOM     20  C   UNL     1       0.281  -2.148   2.223  0.00  0.00    +0.091 A 
ATOM     21  C   UNL     1       0.257  -0.752   2.143  0.00  0.00    +0.140 A 
ATOM     22  F   UNL     1       0.076  -0.012   3.259  0.00  0.00    -0.204 F 
ATOM     23 CL   UNL     1       0.512  -4.637   1.151  0.00  0.00    -0.083 Cl
ENDBRANCH   1  20
BRANCH   5  24
ATOM     24  C   UNL     1      -4.680  -3.908   3.737  0.00  0.00    +0.219 C 
ATOM     25  O   UNL     1      -5.000  -2.839   4.214  0.00  0.00    -0.275 OA
ATOM     26  N   UNL     1      -5.628  -4.801   3.388  0.00  0.00    -0.309 N 
ATOM     27  H   UNL     1      -5.372  -5.655   3.007  0.00  0.00    +0.149 HD
BRANCH  26  28
ATOM     28  C   UNL     1      -7.044  -4.480   3.585  0.00  0.00    +0.100 C 
ATOM     29  C   UNL     1      -7.548  -3.652   2.401  0.00  0.00    +0.033 C 
BRANCH  28  30
ATOM     30  C   UNL     1      -7.839  -5.757   3.679  0.00  0.00    -0.001 C 
ATOM     31  C   UNL     1      -8.604  -6.176   4.690  0.00  0.00    +0.063 C 
ATOM     32  N   UNL     1      -9.159  -7.375   4.406  0.00  0.00    -0.159 NA
ATOM     33  N   UNL     1      -8.857  -7.831   3.300  0.00  0.00    -0.180 NA
ATOM     34  C   UNL     1      -7.961  -6.862   2.645  0.00  0.00    +0.154 C 
ATOM     35  C   UNL     1      -6.596  -7.494   2.365  0.00  0.00    +0.039 C 
ATOM     36  C   UNL     1      -8.820  -5.415   5.972  0.00  0.00    +0.067 C 
ENDBRANCH  28  30
ENDBRANCH  26  28
ENDBRANCH   5  24
TORSDOF 4
