REMARK  Name = ZINC65314216
REMARK  7 active torsions:
REMARK  status: ('A' for Active; 'I' for Inactive)
REMARK    1  A    between atoms: C_4  and  C_7
REMARK    2  A    between atoms: C_7  and  N_8
REMARK    3  A    between atoms: C_12  and  N_15
REMARK    4  A    between atoms: C_19  and  C_22
REMARK    5  A    between atoms: N_24  and  C_25
REMARK    6  A    between atoms: N_28  and  C_31
REMARK    7  A    between atoms: C_31  and  C_32
REMARK                            x       y       z     vdW  Elec       q    Type
REMARK                         _______ _______ _______ _____ _____    ______ ____
ROOT
ATOM      1  N   UNL     1       5.428  -1.575   5.207  0.00  0.00    -0.328 N 
ATOM      2  C   UNL     1       4.975  -2.744   5.974  0.00  0.00    +0.105 C 
ATOM      3  C   UNL     1       4.383  -2.264   7.302  0.00  0.00    +0.020 C 
ATOM      4  C   UNL     1       5.411  -1.395   8.030  0.00  0.00    +0.016 C 
ATOM      5  C   UNL     1       5.741  -0.169   7.177  0.00  0.00    +0.092 C 
ATOM      6  C   UNL     1       6.353  -0.628   5.845  0.00  0.00    +0.118 C 
ENDROOT
BRANCH   1  11
ATOM      7  N   UNL     1       4.131  -0.995   1.338  0.00  0.00    -0.225 N 
ATOM      8  C   UNL     1       4.870  -0.031   1.924  0.00  0.00    +0.269 A 
ATOM      9  O   UNL     1       5.144   0.990   1.312  0.00  0.00    -0.266 OA
ATOM     10  C   UNL     1       5.321  -0.208   3.239  0.00  0.00    +0.096 A 
ATOM     11  C   UNL     1       4.996  -1.373   3.909  0.00  0.00    +0.055 A 
ATOM     12  C   UNL     1       4.220  -2.355   3.255  0.00  0.00    +0.156 A 
ATOM     13  N   UNL     1       3.808  -2.164   2.033  0.00  0.00    -0.174 NA
BRANCH   7  14
ATOM     14  C   UNL     1       3.659  -0.812  -0.036  0.00  0.00    +0.182 C 
BRANCH  14  18
ATOM     15  C   UNL     1       6.550  -2.385  -2.759  0.00  0.00    +0.000 A 
ATOM     16  C   UNL     1       5.543  -3.199  -2.274  0.00  0.00    +0.000 A 
ATOM     17  C   UNL     1       4.608  -2.690  -1.393  0.00  0.00    +0.005 A 
ATOM     18  C   UNL     1       4.679  -1.368  -0.997  0.00  0.00    -0.026 A 
ATOM     19  C   UNL     1       5.686  -0.554  -1.481  0.00  0.00    +0.005 A 
ATOM     20  C   UNL     1       6.621  -1.063  -2.364  0.00  0.00    +0.000 A 
ENDBRANCH  14  18
ENDBRANCH   7  14
ENDBRANCH   1  11
BRANCH   5  21
ATOM     21  C   UNL     1       6.728   0.703   7.909  0.00  0.00    +0.218 C 
ATOM     22  O   UNL     1       7.811   0.939   7.416  0.00  0.00    -0.275 OA
ATOM     23  N   UNL     1       6.409   1.220   9.112  0.00  0.00    -0.312 N 
ATOM     24  H   UNL     1       5.543   1.031   9.506  0.00  0.00    +0.149 HD
BRANCH  23  25
ATOM     25  C   UNL     1       7.369   2.067   9.823  0.00  0.00    +0.069 C 
ATOM     26  C   UNL     1       8.327   1.188  10.631  0.00  0.00    +0.003 C 
ATOM     27  C   UNL     1       9.276   2.080  11.434  0.00  0.00    -0.077 C 
ATOM     28  N   UNL     1       8.501   2.928  12.347  0.00  0.00    +0.382 N 
ATOM     29  C   UNL     1       7.631   3.825  11.577  0.00  0.00    -0.077 C 
ATOM     30  C   UNL     1       6.619   2.999  10.780  0.00  0.00    +0.003 C 
ATOM     31  H   UNL     1       7.935   2.346  12.947  0.00  0.00    -0.081 HD
BRANCH  28  32
ATOM     32  C   UNL     1       9.419   3.727  13.170  0.00  0.00    -0.043 C 
BRANCH  32  33
ATOM     33  C   UNL     1       8.630   4.506  14.191  0.00  0.00    -0.064 A 
ATOM     34  C   UNL     1       8.163   5.771  13.886  0.00  0.00    +0.002 A 
ATOM     35  C   UNL     1       7.440   6.485  14.823  0.00  0.00    +0.000 A 
ATOM     36  C   UNL     1       7.183   5.934  16.064  0.00  0.00    +0.000 A 
ATOM     37  C   UNL     1       7.648   4.669  16.369  0.00  0.00    +0.000 A 
ATOM     38  C   UNL     1       8.368   3.953  15.431  0.00  0.00    +0.002 A 
ENDBRANCH  32  33
ENDBRANCH  28  32
ENDBRANCH  23  25
ENDBRANCH   5  21
TORSDOF 7
