REMARK  Name = ZINC63314632
REMARK  11 active torsions:
REMARK  status: ('A' for Active; 'I' for Inactive)
REMARK    1  A    between atoms: C_1  and  O_2
REMARK    2  A    between atoms: O_2  and  C_3
REMARK    3  A    between atoms: C_6  and  C_9
REMARK    4  A    between atoms: C_12  and  C_33
REMARK    5  A    between atoms: N_19  and  C_20
REMARK    6  A    between atoms: C_20  and  C_21
REMARK    7  A    between atoms: C_21  and  C_22
REMARK    8  A    between atoms: C_25  and  O_31
REMARK    9  A    between atoms: O_31  and  C_32
REMARK   10  A    between atoms: C_37  and  O_39
REMARK   11  A    between atoms: O_39  and  C_40
REMARK                            x       y       z     vdW  Elec       q    Type
REMARK                         _______ _______ _______ _____ _____    ______ ____
ROOT
ATOM      1  C   UNL     1      -4.981  -2.629   0.035  0.00  0.00    +0.137 C 
ATOM      2  C   UNL     1      -5.302  -3.138   1.416  0.00  0.00    +0.017 C 
ATOM      3  C   UNL     1      -5.841  -3.184   2.621  0.00  0.00    +0.097 C 
ATOM      4  N   UNL     1      -5.805  -4.463   3.099  0.00  0.00    -0.153 NA
ATOM      5  N   UNL     1      -5.064  -5.218   2.451  0.00  0.00    -0.170 NA
ATOM      6  C   UNL     1      -4.439  -4.418   1.405  0.00  0.00    +0.244 C 
ATOM      7  C   UNL     1      -4.645  -4.924   0.004  0.00  0.00    +0.247 C 
ATOM      8  O   UNL     1      -4.573  -6.080  -0.355  0.00  0.00    -0.273 OA
ATOM      9  N   UNL     1      -4.928  -3.856  -0.793  0.00  0.00    -0.288 N 
ENDROOT
BRANCH   1  13
ATOM     10  C   UNL     1      -1.200  -0.637   0.010  0.00  0.00    +0.120 A 
ATOM     11  C   UNL     1      -2.375   0.101   0.019  0.00  0.00    +0.046 A 
ATOM     12  C   UNL     1      -3.596  -0.545   0.027  0.00  0.00    +0.009 A 
ATOM     13  C   UNL     1      -3.648  -1.927   0.026  0.00  0.00    -0.023 A 
ATOM     14  C   UNL     1      -2.479  -2.665   0.017  0.00  0.00    +0.009 A 
ATOM     15  C   UNL     1      -1.255  -2.024   0.003  0.00  0.00    +0.046 A 
BRANCH  10  17
ATOM     16  C   UNL     1      -0.017   1.425   0.010  0.00  0.00    +0.277 C 
ATOM     17  O   UNL     1       0.002  -0.004   0.002  0.00  0.00    -0.495 OA
ENDBRANCH  10  17
ENDBRANCH   1  13
BRANCH   3  18
ATOM     18  C   UNL     1      -6.402  -2.019   3.348  0.00  0.00    +0.006 A 
ATOM     19  C   UNL     1      -6.391  -0.756   2.758  0.00  0.00    +0.010 A 
ATOM     20  C   UNL     1      -6.914   0.327   3.436  0.00  0.00    +0.004 A 
ATOM     21  C   UNL     1      -7.450   0.163   4.700  0.00  0.00    +0.045 A 
ATOM     22  C   UNL     1      -7.466  -1.092   5.294  0.00  0.00    +0.121 A 
ATOM     23  C   UNL     1      -6.948  -2.185   4.618  0.00  0.00    +0.055 A 
BRANCH  22  24
ATOM     24  O   UNL     1      -7.993  -1.249   6.537  0.00  0.00    -0.495 OA
ATOM     25  C   UNL     1      -8.514  -0.080   7.173  0.00  0.00    +0.277 C 
ENDBRANCH  22  24
ENDBRANCH   3  18
BRANCH   9  26
ATOM     26  C   UNL     1      -5.148  -3.910  -2.240  0.00  0.00    +0.113 C 
BRANCH  26  27
ATOM     27  C   UNL     1      -3.814  -3.718  -2.966  0.00  0.00    +0.052 C 
BRANCH  27  28
ATOM     28  C   UNL     1      -4.040  -3.774  -4.455  0.00  0.00    -0.040 C 
ATOM     29  C   UNL     1      -4.226  -2.725  -5.288  0.00  0.00    +0.002 A 
ATOM     30  C   UNL     1      -4.272  -1.276  -5.069  0.00  0.00    +0.055 A 
ATOM     31  C   UNL     1      -4.479  -0.448  -6.121  0.00  0.00    +0.121 A 
ATOM     32  C   UNL     1      -4.654  -0.928  -7.431  0.00  0.00    +0.047 A 
ATOM     33  C   UNL     1      -4.629  -2.244  -7.732  0.00  0.00    +0.029 A 
ATOM     34  C   UNL     1      -4.410  -3.230  -6.668  0.00  0.00    +0.043 A 
ATOM     35  N   UNL     1      -4.341  -4.538  -6.687  0.00  0.00    -0.380 N 
ATOM     36  C   UNL     1      -4.099  -5.013  -5.320  0.00  0.00    +0.144 C 
ATOM     37  H   UNL     1      -4.432  -5.098  -7.473  0.00  0.00    +0.160 HD
BRANCH  31  38
ATOM     38  O   UNL     1      -4.520   0.893  -5.903  0.00  0.00    -0.495 OA
ATOM     39  C   UNL     1      -4.742   1.729  -7.041  0.00  0.00    +0.277 C 
ENDBRANCH  31  38
ENDBRANCH  27  28
ENDBRANCH  26  27
ENDBRANCH   9  26
TORSDOF 8
