REMARK  Name = ZINC25529425
REMARK  6 active torsions:
REMARK  status: ('A' for Active; 'I' for Inactive)
REMARK    1  A    between atoms: C_4  and  C_7
REMARK    2  A    between atoms: C_7  and  C_9
REMARK    3  A    between atoms: C_7  and  N_26
REMARK    4  A    between atoms: N_11  and  N_12
REMARK    5  A    between atoms: C_13  and  C_15
REMARK    6  A    between atoms: C_27  and  C_29
REMARK                            x       y       z     vdW  Elec       q    Type
REMARK                         _______ _______ _______ _____ _____    ______ ____
ROOT
ATOM      1  C   UNL     1      -0.747   1.960  -1.211  0.00  0.00    +0.254 C 
ATOM      2  O   UNL     1      -1.204   1.170  -2.009  0.00  0.00    -0.272 OA
ATOM      3  N   UNL     1      -0.890   3.284  -1.416  0.00  0.00    -0.232 N 
ATOM      4  H   UNL     1      -0.475   4.001  -0.692  0.00  0.00    +0.173 HD
ENDROOT
BRANCH   3   5
ATOM      5  N   UNL     1      -1.567   3.748  -2.551  0.00  0.00    -0.231 N 
ATOM      6  C   UNL     1      -1.710   5.073  -2.756  0.00  0.00    +0.273 C 
ATOM      7  O   UNL     1      -1.253   5.863  -1.957  0.00  0.00    -0.270 OA
ATOM      8  H   UNL     1      -1.983   3.032  -3.275  0.00  0.00    +0.173 HD
BRANCH   6   9
ATOM      9  C   UNL     1      -2.439   5.572  -3.976  0.00  0.00    +0.297 C 
ATOM     10  C   UNL     1      -1.650   5.199  -5.239  0.00  0.00    +0.283 C 
ATOM     11  O   UNL     1      -2.362   5.700  -6.376  0.00  0.00    -0.484 OA
ATOM     12  C   UNL     1      -2.815   6.981  -6.299  0.00  0.00    +0.162 A 
ATOM     13  C   UNL     1      -3.186   7.643  -7.460  0.00  0.00    +0.049 A 
ATOM     14  C   UNL     1      -3.654   8.941  -7.397  0.00  0.00    +0.004 A 
ATOM     15  C   UNL     1      -3.755   9.584  -6.178  0.00  0.00    +0.004 A 
ATOM     16  C   UNL     1      -3.386   8.931  -5.017  0.00  0.00    +0.049 A 
ATOM     17  C   UNL     1      -2.914   7.628  -5.073  0.00  0.00    +0.163 A 
ATOM     18  O   UNL     1      -2.552   6.998  -3.922  0.00  0.00    -0.472 OA
ENDBRANCH   6   9
ENDBRANCH   3   5
BRANCH   1  19
ATOM     19  C   UNL     1      -0.018   1.461   0.010  0.00  0.00    +0.191 C 
BRANCH  19  23
ATOM     20  C   UNL     1       3.990   2.939  -0.020  0.00  0.00    +0.000 A 
ATOM     21  C   UNL     1       3.031   3.556   0.762  0.00  0.00    +0.000 A 
ATOM     22  C   UNL     1       1.734   3.078   0.772  0.00  0.00    +0.006 A 
ATOM     23  C   UNL     1       1.396   1.982  -0.001  0.00  0.00    -0.018 A 
ATOM     24  C   UNL     1       2.356   1.362  -0.778  0.00  0.00    +0.006 A 
ATOM     25  C   UNL     1       3.651   1.843  -0.792  0.00  0.00    +0.000 A 
ENDBRANCH  19  23
BRANCH  19  26
ATOM     26  N   UNL     1       0.002  -0.004   0.002  0.00  0.00    -0.296 N 
ATOM     27  C   UNL     1       0.124  -0.683   1.160  0.00  0.00    +0.252 C 
ATOM     28  O   UNL     1       0.218  -0.079   2.212  0.00  0.00    -0.270 OA
ATOM     29  H   UNL     1      -0.083  -0.550  -0.949  0.00  0.00    +0.150 HD
BRANCH  27  30
ATOM     30  C   UNL     1       0.144  -2.148   1.152  0.00  0.00    +0.074 A 
ATOM     31  C   UNL     1       0.265  -3.026   2.218  0.00  0.00    +0.021 A 
ATOM     32  C   UNL     1       0.250  -4.368   1.927  0.00  0.00    +0.008 A 
ATOM     33  C   UNL     1       0.131  -4.765   0.633  0.00  0.00    +0.046 A 
ATOM     34  S   UNL     1       0.026  -3.267  -0.233  0.00  0.00    -0.092 S 
ENDBRANCH  27  30
ENDBRANCH  19  26
ENDBRANCH   1  19
TORSDOF 6
