REMARK  Name = ZINC41586276
REMARK  11 active torsions:
REMARK  status: ('A' for Active; 'I' for Inactive)
REMARK    1  A    between atoms: C_1  and  C_2
REMARK    2  A    between atoms: C_2  and  O_3
REMARK    3  A    between atoms: O_3  and  C_4
REMARK    4  A    between atoms: C_13  and  C_15
REMARK    5  A    between atoms: C_24  and  O_38
REMARK    6  A    between atoms: C_25  and  C_26
REMARK    7  A    between atoms: C_26  and  N_27
REMARK    8  A    between atoms: C_30  and  C_33
REMARK    9  A    between atoms: C_33  and  O_35
REMARK   10  A    between atoms: O_35  and  C_36
REMARK   11  A    between atoms: C_36  and  C_37
REMARK                            x       y       z     vdW  Elec       q    Type
REMARK                         _______ _______ _______ _____ _____    ______ ____
ROOT
ATOM      1  C   UNL     1      -6.689  -4.033  -0.268  0.00  0.00    +0.006 A 
ATOM      2  C   UNL     1      -7.229  -4.671   0.837  0.00  0.00    +0.101 A 
ATOM      3  C   UNL     1      -8.549  -5.144   0.786  0.00  0.00    +0.338 A 
ATOM      4  O   UNL     1      -9.015  -5.704   1.763  0.00  0.00    -0.245 OA
ATOM      5  O   UNL     1      -9.312  -4.997  -0.309  0.00  0.00    -0.422 OA
ATOM      6  C   UNL     1      -8.853  -4.387  -1.423  0.00  0.00    +0.144 A 
ATOM      7  C   UNL     1      -7.544  -3.877  -1.458  0.00  0.00    +0.026 A 
ATOM      8  C   UNL     1      -7.069  -3.241  -2.606  0.00  0.00    +0.016 A 
ATOM      9  C   UNL     1      -7.883  -3.109  -3.695  0.00  0.00    +0.046 A 
ATOM     10  C   UNL     1      -9.183  -3.607  -3.667  0.00  0.00    +0.122 A 
ATOM     11  C   UNL     1      -9.665  -4.251  -2.539  0.00  0.00    +0.020 A 
ENDROOT
BRANCH   1  21
ATOM     12  C   UNL     1      -1.498  -1.849   0.006  0.00  0.00    +0.163 A 
ATOM     13  C   UNL     1      -0.391  -2.679  -0.003  0.00  0.00    +0.049 A 
ATOM     14  C   UNL     1      -0.544  -4.058  -0.002  0.00  0.00    +0.004 A 
ATOM     15  C   UNL     1      -1.789  -4.620  -0.005  0.00  0.00    +0.012 A 
ATOM     16  C   UNL     1      -2.926  -3.800  -0.021  0.00  0.00    +0.022 A 
ATOM     17  C   UNL     1      -2.777  -2.402   0.016  0.00  0.00    +0.180 A 
ATOM     18  O   UNL     1      -3.869  -1.602   0.076  0.00  0.00    -0.418 OA
ATOM     19  C   UNL     1      -5.015  -2.090  -0.451  0.00  0.00    +0.345 A 
ATOM     20  O   UNL     1      -5.780  -1.372  -1.068  0.00  0.00    -0.245 OA
ATOM     21  C   UNL     1      -5.306  -3.522  -0.252  0.00  0.00    +0.068 A 
ATOM     22  C   UNL     1      -4.226  -4.369  -0.060  0.00  0.00    +0.027 A 
BRANCH  12  23
ATOM     23  O   UNL     1      -1.339  -0.499   0.012  0.00  0.00    -0.489 OA
BRANCH  23  25
ATOM     24  C   UNL     1      -0.019   1.526   0.010  0.00  0.00    +0.048 C 
ATOM     25  C   UNL     1       0.002  -0.004   0.002  0.00  0.00    +0.226 C 
ENDBRANCH  23  25
ENDBRANCH  12  23
ENDBRANCH   1  21
BRANCH  10  26
ATOM     26  O   UNL     1      -9.981  -3.469  -4.757  0.00  0.00    -0.506 OA
ATOM     27  H   UNL     1      -9.922  -4.204  -5.383  0.00  0.00    +0.292 HD
ENDBRANCH  10  26
BRANCH  11  28
ATOM     28  C   UNL     1     -11.074  -4.786  -2.518  0.00  0.00    -0.036 C 
BRANCH  28  29
ATOM     29  N   UNL     1     -11.987  -3.742  -2.032  0.00  0.00    +0.383 N 
ATOM     30  C   UNL     1     -12.001  -2.625  -2.984  0.00  0.00    -0.078 C 
ATOM     31  C   UNL     1     -12.887  -1.500  -2.443  0.00  0.00    -0.004 C 
ATOM     32  C   UNL     1     -14.312  -2.028  -2.252  0.00  0.00    +0.094 C 
ATOM     33  C   UNL     1     -14.276  -3.240  -1.317  0.00  0.00    -0.004 C 
ATOM     34  C   UNL     1     -13.338  -4.300  -1.899  0.00  0.00    -0.078 C 
ATOM     35  H   UNL     1     -11.670  -3.412  -1.133  0.00  0.00    -0.081 HD
BRANCH  32  36
ATOM     36  C   UNL     1     -15.172  -0.949  -1.647  0.00  0.00    +0.310 C 
ATOM     37  O   UNL     1     -14.695   0.132  -1.393  0.00  0.00    -0.251 OA
BRANCH  36  38
ATOM     38  O   UNL     1     -16.467  -1.189  -1.389  0.00  0.00    -0.465 OA
BRANCH  38  39
ATOM     39  C   UNL     1     -17.223  -0.120  -0.815  0.00  0.00    +0.229 C 
ATOM     40  C   UNL     1     -18.666  -0.578  -0.594  0.00  0.00    +0.048 C 
ENDBRANCH  38  39
ENDBRANCH  36  38
ENDBRANCH  32  36
ENDBRANCH  28  29
ENDBRANCH  11  28
TORSDOF 9
