REMARK  Name = ZINC39228439
REMARK  4 active torsions:
REMARK  status: ('A' for Active; 'I' for Inactive)
REMARK    1  A    between atoms: C_17  and  O_31
REMARK    2  A    between atoms: C_19  and  C_21
REMARK    3  A    between atoms: C_27  and  C_29
REMARK    4  A    between atoms: C_29  and  O_30
REMARK                            x       y       z     vdW  Elec       q    Type
REMARK                         _______ _______ _______ _____ _____    ______ ____
ROOT
ATOM      1  C   UNL     1       0.252   1.103  -1.450  0.00  0.00    +0.001 A 
ATOM      2  C   UNL     1       0.222  -0.280  -1.382  0.00  0.00    +0.002 A 
ATOM      3  C   UNL     1      -0.950  -0.983  -1.161  0.00  0.00    +0.026 A 
ATOM      4  C   UNL     1      -2.115  -0.235  -1.007  0.00  0.00    +0.047 A 
ATOM      5  N   UNL     1      -3.412  -0.600  -0.779  0.00  0.00    -0.359 N 
ATOM      6  C   UNL     1      -4.199   0.516  -0.700  0.00  0.00    +0.006 A 
ATOM      7  H   UNL     1      -3.727  -1.512  -0.688  0.00  0.00    +0.166 HD
ATOM      8  C   UNL     1      -5.685   0.579  -0.455  0.00  0.00    -0.020 C 
ATOM      9  C   UNL     1      -6.397  -0.516  -1.252  0.00  0.00    -0.005 C 
ATOM     10  C   UNL     1      -7.899  -0.424  -0.973  0.00  0.00    +0.004 C 
ATOM     11  C   UNL     1      -8.395   0.978  -1.338  0.00  0.00    -0.024 C 
ATOM     12  C   UNL     1      -9.884   1.084  -1.009  0.00  0.00    +0.004 C 
ATOM     13  C   UNL     1     -10.655   0.047  -1.829  0.00  0.00    +0.032 C 
ATOM     14  C   UNL     1     -10.151  -1.357  -1.492  0.00  0.00    +0.127 C 
ATOM     15  C   UNL     1      -8.656  -1.456  -1.808  0.00  0.00    +0.107 C 
ATOM     16  C   UNL     1      -7.608   2.021  -0.543  0.00  0.00    -0.074 C 
ATOM     17  N   UNL     1      -6.179   1.896  -0.880  0.00  0.00    +0.386 N 
ATOM     18  C   UNL     1      -5.407   2.963  -0.235  0.00  0.00    -0.073 C 
ATOM     19  C   UNL     1      -4.002   3.024  -0.850  0.00  0.00    +0.019 C 
ATOM     20  C   UNL     1      -3.441   1.624  -0.877  0.00  0.00    -0.022 A 
ATOM     21  C   UNL     1      -2.079   1.183  -1.077  0.00  0.00    +0.003 A 
ATOM     22  C   UNL     1      -0.879   1.866  -1.296  0.00  0.00    +0.010 A 
ATOM     23  H   UNL     1      -6.067   1.980  -1.879  0.00  0.00    -0.081 HD
ENDROOT
BRANCH  15  24
ATOM     24  C   UNL     1      -8.163  -2.839  -1.469  0.00  0.00    +0.222 C 
ATOM     25  O   UNL     1      -7.820  -3.099  -0.335  0.00  0.00    -0.275 OA
ATOM     26  N   UNL     1      -8.103  -3.786  -2.426  0.00  0.00    -0.296 N 
ATOM     27  C   UNL     1      -8.383  -3.580  -3.858  0.00  0.00    +0.108 C 
ATOM     28  C   UNL     1      -8.786  -4.978  -4.389  0.00  0.00    +0.021 C 
ATOM     29  C   UNL     1      -7.836  -5.903  -3.583  0.00  0.00    +0.026 C 
ATOM     30  C   UNL     1      -7.741  -5.195  -2.214  0.00  0.00    +0.101 C 
BRANCH  30  31
ATOM     31  C   UNL     1      -6.312  -5.290  -1.675  0.00  0.00    +0.178 C 
BRANCH  31  32
ATOM     32  O   UNL     1      -5.397  -4.813  -2.663  0.00  0.00    -0.393 OA
ATOM     33  H   UNL     1      -4.470  -4.844  -2.389  0.00  0.00    +0.209 HD
ENDBRANCH  31  32
ENDBRANCH  30  31
ENDBRANCH  15  24
BRANCH  14  34
ATOM     34  O   UNL     1     -10.364  -1.618  -0.103  0.00  0.00    -0.391 OA
ATOM     35  H   UNL     1     -11.291  -1.575   0.168  0.00  0.00    +0.210 HD
ENDBRANCH  14  34
TORSDOF 4
