REMARK  Name = ZINC12466691
REMARK  12 active torsions:
REMARK  status: ('A' for Active; 'I' for Inactive)
REMARK    1  A    between atoms: C_1  and  O_2
REMARK    2  A    between atoms: O_2  and  C_3
REMARK    3  A    between atoms: C_6  and  N_7
REMARK    4  A    between atoms: N_7  and  N_8
REMARK    5  A    between atoms: C_9  and  C_11
REMARK    6  A    between atoms: C_11  and  S_12
REMARK    7  A    between atoms: S_12  and  C_13
REMARK    8  A    between atoms: C_16  and  S_18
REMARK    9  A    between atoms: S_18  and  C_19
REMARK   10  A    between atoms: C_19  and  C_20
REMARK   11  A    between atoms: C_28  and  O_31
REMARK   12  A    between atoms: O_31  and  C_32
REMARK                            x       y       z     vdW  Elec       q    Type
REMARK                         _______ _______ _______ _____ _____    ______ ____
ROOT
ATOM      1  N   UNL     1       3.532   0.472  -6.218  0.00  0.00    -0.236 N 
ATOM      2  C   UNL     1       4.131  -0.127  -7.266  0.00  0.00    +0.239 C 
ATOM      3  O   UNL     1       4.174  -1.338  -7.330  0.00  0.00    -0.273 OA
ATOM      4  H   UNL     1       3.498   1.440  -6.167  0.00  0.00    +0.173 HD
ENDROOT
BRANCH   1   5
ATOM      5  N   UNL     1       2.959  -0.304  -5.202  0.00  0.00    -0.271 N 
ATOM      6  H   UNL     1       2.993  -1.272  -5.252  0.00  0.00    +0.169 HD
BRANCH   5  10
ATOM      7  C   UNL     1       0.607  -0.608  -1.057  0.00  0.00    +0.171 C 
ATOM      8  C   UNL     1       1.162   0.147  -2.043  0.00  0.00    +0.059 C 
ATOM      9  C   UNL     1       1.790  -0.481  -3.143  0.00  0.00    -0.003 C 
ATOM     10  C   UNL     1       2.362   0.293  -4.157  0.00  0.00    +0.095 C 
ATOM     11  C   UNL     1       1.840  -1.891  -3.216  0.00  0.00    +0.059 C 
ATOM     12  C   UNL     1       1.283  -2.643  -2.228  0.00  0.00    +0.171 C 
ATOM     13  C   UNL     1       0.662  -2.015  -1.129  0.00  0.00    +0.261 C 
ATOM     14  O   UNL     1       0.165  -2.693  -0.237  0.00  0.00    -0.280 OA
BRANCH   7  16
ATOM     15  C   UNL     1      -0.017   1.425   0.010  0.00  0.00    +0.277 C 
ATOM     16  O   UNL     1       0.002  -0.004   0.002  0.00  0.00    -0.491 OA
ENDBRANCH   7  16
BRANCH  12  17
ATOM     17  O   UNL     1       1.331  -4.001  -2.298  0.00  0.00    -0.491 OA
ATOM     18  C   UNL     1       1.980  -4.569  -3.437  0.00  0.00    +0.277 C 
ENDBRANCH  12  17
ENDBRANCH   5  10
ENDBRANCH   1   5
BRANCH   2  19
ATOM     19  C   UNL     1       4.748   0.707  -8.360  0.00  0.00    +0.173 C 
BRANCH  19  20
ATOM     20  S   UNL     1       5.468  -0.383  -9.618  0.00  0.00    -0.088 S 
BRANCH  20  21
ATOM     21  C   UNL     1       6.140   0.728 -10.810  0.00  0.00    +0.160 A 
ATOM     22  N   UNL     1       6.142   2.047 -10.815  0.00  0.00    -0.134 NA
ATOM     23  N   UNL     1       6.730   2.726 -11.857  0.00  0.00    -0.134 NA
ATOM     24  C   UNL     1       7.288   2.055 -12.846  0.00  0.00    +0.160 A 
ATOM     25  S   UNL     1       7.005   0.368 -12.330  0.00  0.00    -0.033 S 
BRANCH  24  26
ATOM     26  S   UNL     1       8.101   2.661 -14.287  0.00  0.00    -0.092 S 
BRANCH  26  27
ATOM     27  C   UNL     1       8.006   4.464 -14.119  0.00  0.00    +0.113 C 
BRANCH  27  28
ATOM     28  C   UNL     1       8.674   5.115 -15.303  0.00  0.00    -0.019 A 
ATOM     29  C   UNL     1      10.024   5.408 -15.260  0.00  0.00    +0.006 A 
ATOM     30  C   UNL     1      10.637   6.005 -16.346  0.00  0.00    +0.000 A 
ATOM     31  C   UNL     1       9.900   6.309 -17.476  0.00  0.00    +0.001 A 
ATOM     32  C   UNL     1       8.550   6.016 -17.520  0.00  0.00    +0.020 A 
ATOM     33  C   UNL     1       7.937   5.414 -16.435  0.00  0.00    +0.045 A 
ATOM     34 CL   UNL     1       6.243   5.040 -16.492  0.00  0.00    -0.083 Cl
ENDBRANCH  27  28
ENDBRANCH  26  27
ENDBRANCH  24  26
ENDBRANCH  20  21
ENDBRANCH  19  20
ENDBRANCH   2  19
TORSDOF 10
