REMARK  Name = ZINC39488276
REMARK  13 active torsions:
REMARK  status: ('A' for Active; 'I' for Inactive)
REMARK    1  A    between atoms: C_1  and  C_2
REMARK    2  A    between atoms: C_2  and  O_3
REMARK    3  A    between atoms: O_3  and  N_4
REMARK    4  A    between atoms: C_7  and  C_10
REMARK    5  A    between atoms: C_7  and  C_31
REMARK    6  A    between atoms: C_10  and  N_11
REMARK    7  A    between atoms: N_14  and  S_25
REMARK    8  A    between atoms: C_16  and  C_17
REMARK    9  A    between atoms: C_16  and  C_18
REMARK   10  A    between atoms: C_23  and  O_24
REMARK   11  A    between atoms: S_25  and  C_28
REMARK   12  A    between atoms: C_28  and  C_29
REMARK   13  A    between atoms: C_28  and  C_30
REMARK                            x       y       z     vdW  Elec       q    Type
REMARK                         _______ _______ _______ _____ _____    ______ ____
ROOT
ATOM      1  N   UNL     1       2.227  -2.087  -3.212  0.00  0.00    -0.273 N 
ATOM      2  C   UNL     1       0.942  -1.837  -3.496  0.00  0.00    +0.325 C 
ATOM      3  O   UNL     1       0.162  -2.700  -3.851  0.00  0.00    -0.251 OA
ATOM      4  N   UNL     1       0.595  -0.552  -3.353  0.00  0.00    -0.157 N 
ATOM      5  C   UNL     1       1.767   0.220  -2.914  0.00  0.00    +0.166 C 
ATOM      6  C   UNL     1       2.886  -0.835  -2.811  0.00  0.00    +0.082 C 
ATOM      7  C   UNL     1       3.402  -0.936  -1.375  0.00  0.00    +0.039 C 
ENDROOT
BRANCH   6   8
ATOM      8  C   UNL     1       4.011  -0.503  -3.757  0.00  0.00    +0.019 A 
ATOM      9  C   UNL     1       4.287  -1.336  -4.824  0.00  0.00    +0.009 A 
ATOM     10  C   UNL     1       5.319  -1.032  -5.692  0.00  0.00    +0.001 A 
ATOM     11  C   UNL     1       6.078   0.107  -5.495  0.00  0.00    +0.004 A 
ATOM     12  C   UNL     1       5.807   0.944  -4.430  0.00  0.00    +0.046 A 
ATOM     13  C   UNL     1       4.768   0.643  -3.560  0.00  0.00    +0.122 A 
BRANCH  13  14
ATOM     14  O   UNL     1       4.495   1.468  -2.515  0.00  0.00    -0.506 OA
ATOM     15  H   UNL     1       4.977   1.249  -1.706  0.00  0.00    +0.292 HD
ENDBRANCH  13  14
ENDBRANCH   6   8
BRANCH   4  16
ATOM     16  S   UNL     1      -0.915   0.070  -3.627  0.00  0.00    +0.051 S 
ATOM     17  O   UNL     1      -0.706   1.464  -3.811  0.00  0.00    -0.155 OA
ATOM     18  O   UNL     1      -1.451  -0.726  -4.675  0.00  0.00    -0.155 OA
BRANCH  16  19
ATOM     19  C   UNL     1      -1.828  -0.226  -2.088  0.00  0.00    +0.145 C 
ATOM     20  C   UNL     1      -1.101   0.452  -0.925  0.00  0.00    +0.033 C 
ATOM     21  C   UNL     1      -3.240   0.351  -2.213  0.00  0.00    +0.033 C 
ENDBRANCH  16  19
ENDBRANCH   4  16
BRANCH   1  22
ATOM     22  C   UNL     1       2.873  -3.400  -3.284  0.00  0.00    +0.117 C 
BRANCH  22  26
ATOM     23  N   UNL     1       1.081  -6.423  -3.521  0.00  0.00    -0.188 NA
ATOM     24  C   UNL     1       0.461  -5.093  -3.463  0.00  0.00    +0.115 C 
ATOM     25  C   UNL     1       0.870  -4.394  -2.165  0.00  0.00    +0.026 C 
ATOM     26  C   UNL     1       2.395  -4.268  -2.118  0.00  0.00    -0.008 C 
ATOM     27  C   UNL     1       3.018  -5.662  -2.228  0.00  0.00    +0.026 C 
ATOM     28  C   UNL     1       2.547  -6.325  -3.525  0.00  0.00    +0.115 C 
BRANCH  26  29
ATOM     29  C   UNL     1       2.814  -3.624  -0.795  0.00  0.00    -0.003 C 
ATOM     30  C   UNL     1       4.337  -3.684  -0.658  0.00  0.00    +0.004 C 
ATOM     31  C   UNL     1       4.756  -3.040   0.665  0.00  0.00    +0.000 C 
ATOM     32  C   UNL     1       4.109  -3.796   1.827  0.00  0.00    +0.000 C 
ATOM     33  C   UNL     1       2.587  -3.736   1.691  0.00  0.00    +0.000 C 
ATOM     34  C   UNL     1       2.168  -4.380   0.368  0.00  0.00    +0.004 C 
ENDBRANCH  26  29
BRANCH  23  35
ATOM     35  O   UNL     1       0.603  -7.175  -4.681  0.00  0.00    -0.297 OA
BRANCH  35  37
ATOM     36  C   UNL     1      -0.564  -9.071  -5.621  0.00  0.00    +0.036 C 
ATOM     37  C   UNL     1      -0.226  -8.290  -4.349  0.00  0.00    +0.182 C 
ENDBRANCH  35  37
ENDBRANCH  23  35
ENDBRANCH  22  26
ENDBRANCH   1  22
TORSDOF 9
