REMARK  Name = ZINC16676243
REMARK  9 active torsions:
REMARK  status: ('A' for Active; 'I' for Inactive)
REMARK    1  A    between atoms: C_4  and  C_7
REMARK    2  A    between atoms: C_10  and  O_39
REMARK    3  A    between atoms: C_11  and  C_15
REMARK    4  A    between atoms: C_15  and  C_16
REMARK    5  A    between atoms: C_15  and  C_24
REMARK    6  A    between atoms: C_19  and  O_23
REMARK    7  A    between atoms: C_20  and  O_22
REMARK    8  A    between atoms: C_25  and  O_38
REMARK    9  A    between atoms: C_27  and  C_32
REMARK                            x       y       z     vdW  Elec       q    Type
REMARK                         _______ _______ _______ _____ _____    ______ ____
ROOT
ATOM      1  C   UNL     1      -1.343   2.114   0.020  0.00  0.00    +0.092 C 
ENDROOT
BRANCH   1   5
ATOM      2  C   UNL     1      -3.535   0.869   3.484  0.00  0.00    +0.034 C 
ATOM      3  C   UNL     1      -3.779   2.307   3.017  0.00  0.00    +0.082 C 
ATOM      4  C   UNL     1      -2.800   2.655   1.928  0.00  0.00    +0.102 C 
ATOM      5  C   UNL     1      -2.316   1.713   1.098  0.00  0.00    +0.044 C 
ATOM      6  C   UNL     1      -2.698   0.368   1.207  0.00  0.00    +0.164 C 
ATOM      7  O   UNL     1      -2.245  -0.452   0.433  0.00  0.00    -0.292 OA
ATOM      8  C   UNL     1      -3.662  -0.070   2.280  0.00  0.00    +0.088 C 
BRANCH   2  12
ATOM      9  C   UNL     1      -6.434  -0.189   6.438  0.00  0.00    +0.000 A 
ATOM     10  C   UNL     1      -5.087  -0.212   6.750  0.00  0.00    +0.000 A 
ATOM     11  C   UNL     1      -4.149   0.130   5.795  0.00  0.00    +0.004 A 
ATOM     12  C   UNL     1      -4.558   0.496   4.526  0.00  0.00    -0.043 A 
ATOM     13  C   UNL     1      -5.904   0.525   4.214  0.00  0.00    +0.004 A 
ATOM     14  C   UNL     1      -6.842   0.178   5.169  0.00  0.00    +0.000 A 
ENDBRANCH   2  12
BRANCH   4  15
ATOM     15  O   UNL     1      -2.401   3.933   1.781  0.00  0.00    -0.511 OA
ATOM     16  H   UNL     1      -1.756   3.995   1.020  0.00  0.00    +0.292 HD
ENDBRANCH   4  15
ENDBRANCH   1   5
BRANCH   1  17
ATOM     17  C   UNL     1      -0.117   1.241   0.099  0.00  0.00    +0.044 C 
ATOM     18  C   UNL     1      -0.018   0.176  -0.716  0.00  0.00    +0.102 C 
ATOM     19  C   UNL     1       1.180  -0.735  -0.668  0.00  0.00    +0.082 C 
ATOM     20  C   UNL     1       2.411   0.064  -0.231  0.00  0.00    +0.034 C 
ATOM     21  C   UNL     1       2.126   0.705   1.131  0.00  0.00    +0.088 C 
ATOM     22  C   UNL     1       0.888   1.557   1.025  0.00  0.00    +0.164 C 
ATOM     23  O   UNL     1       0.759   2.526   1.746  0.00  0.00    -0.292 OA
BRANCH  20  24
ATOM     24  C   UNL     1       3.597  -0.859  -0.117  0.00  0.00    -0.043 A 
ATOM     25  C   UNL     1       3.558  -1.929   0.758  0.00  0.00    +0.004 A 
ATOM     26  C   UNL     1       4.645  -2.778   0.860  0.00  0.00    +0.000 A 
ATOM     27  C   UNL     1       5.773  -2.552   0.093  0.00  0.00    +0.000 A 
ATOM     28  C   UNL     1       5.813  -1.479  -0.778  0.00  0.00    +0.000 A 
ATOM     29  C   UNL     1       4.725  -0.633  -0.883  0.00  0.00    +0.004 A 
ENDBRANCH  20  24
BRANCH  18  30
ATOM     30  O   UNL     1      -1.009  -0.081  -1.591  0.00  0.00    -0.511 OA
ATOM     31  H   UNL     1      -0.784  -0.901  -2.118  0.00  0.00    +0.292 HD
ENDBRANCH  18  30
ENDBRANCH   1  17
BRANCH   1  32
ATOM     32  C   UNL     1      -1.992   1.948  -1.330  0.00  0.00    -0.032 A 
ATOM     33  C   UNL     1      -1.292   2.273  -2.477  0.00  0.00    +0.008 A 
ATOM     34  C   UNL     1      -1.881   2.117  -3.718  0.00  0.00    +0.049 A 
ATOM     35  C   UNL     1      -3.180   1.644  -3.813  0.00  0.00    +0.158 A 
ATOM     36  C   UNL     1      -3.886   1.322  -2.659  0.00  0.00    +0.159 A 
ATOM     37  C   UNL     1      -3.288   1.476  -1.419  0.00  0.00    +0.053 A 
BRANCH  36  38
ATOM     38  O   UNL     1      -5.162   0.857  -2.748  0.00  0.00    -0.503 OA
ATOM     39  H   UNL     1      -5.835   1.551  -2.729  0.00  0.00    +0.292 HD
ENDBRANCH  36  38
BRANCH  35  40
ATOM     40  O   UNL     1      -3.763   1.495  -5.033  0.00  0.00    -0.503 OA
ATOM     41  H   UNL     1      -4.236   2.281  -5.341  0.00  0.00    +0.292 HD
ENDBRANCH  35  40
ENDBRANCH   1  32
TORSDOF 9
