REMARK  Name = ZINC11296373
REMARK  7 active torsions:
REMARK  status: ('A' for Active; 'I' for Inactive)
REMARK    1  A    between atoms: C_1  and  C_2
REMARK    2  A    between atoms: C_2  and  C_31
REMARK    3  A    between atoms: N_9  and  C_30
REMARK    4  A    between atoms: C_11  and  C_12
REMARK    5  A    between atoms: C_13  and  C_14
REMARK    6  A    between atoms: C_13  and  C_16
REMARK    7  A    between atoms: N_22  and  C_23
REMARK                            x       y       z     vdW  Elec       q    Type
REMARK                         _______ _______ _______ _____ _____    ______ ____
ROOT
ATOM      1  C   UNL     1      -2.711   2.338   0.359  0.00  0.00    +0.024 C 
ATOM      2  C   UNL     1      -3.742   3.224   0.091  0.00  0.00    +0.096 C 
ENDROOT
BRANCH   1  13
ATOM      3  C   UNL     1       1.527   2.865  -0.648  0.00  0.00    +0.022 C 
ATOM      4  C   UNL     1       1.099   2.266   0.693  0.00  0.00    +0.030 C 
ATOM      5  C   UNL     1       1.774   0.932   0.917  0.00  0.00    -0.015 A 
ATOM      6  C   UNL     1       3.096   0.563   1.027  0.00  0.00    +0.006 A 
ATOM      7  C   UNL     1       3.428  -0.764   1.236  0.00  0.00    +0.000 A 
ATOM      8  C   UNL     1       2.429  -1.716   1.333  0.00  0.00    +0.002 A 
ATOM      9  C   UNL     1       1.104  -1.350   1.223  0.00  0.00    +0.024 A 
ATOM     10  C   UNL     1       0.762  -0.015   1.013  0.00  0.00    +0.038 A 
ATOM     11  N   UNL     1      -0.485   0.591   0.871  0.00  0.00    -0.306 N 
ATOM     12  C   UNL     1      -0.378   1.936   0.679  0.00  0.00    +0.021 C 
ATOM     13  C   UNL     1      -1.400   2.811   0.503  0.00  0.00    +0.021 C 
ATOM     14  C   UNL     1      -1.758  -0.132   0.922  0.00  0.00    +0.135 C 
ATOM     15  C   UNL     1       1.422   3.228   1.838  0.00  0.00    +0.022 C 
ENDBRANCH   1  13
BRANCH   2  16
ATOM     16  C   UNL     1      -5.122   2.725  -0.060  0.00  0.00    +0.177 A 
ATOM     17  N   UNL     1      -5.377   1.421   0.056  0.00  0.00    -0.194 NA
ATOM     18  C   UNL     1      -6.621   0.975  -0.076  0.00  0.00    +0.217 A 
ATOM     19  N   UNL     1      -7.610   1.826  -0.334  0.00  0.00    -0.181 NA
ATOM     20  C   UNL     1      -7.357   3.126  -0.455  0.00  0.00    +0.224 A 
ATOM     21  N   UNL     1      -6.114   3.577  -0.319  0.00  0.00    -0.194 NA
ATOM     22  N   UNL     1      -8.386   4.008  -0.723  0.00  0.00    -0.283 N 
ATOM     23  N   UNL     1      -6.887  -0.374   0.050  0.00  0.00    -0.327 N 
ATOM     24  H   UNL     1      -8.215   4.963  -0.735  0.00  0.00    +0.155 HD
ATOM     25  H   UNL     1      -7.795  -0.700  -0.050  0.00  0.00    +0.145 HD
ATOM     26  H   UNL     1      -6.166  -0.995   0.237  0.00  0.00    +0.145 HD
BRANCH  22  27
ATOM     27  C   UNL     1      -9.673   3.524  -0.976  0.00  0.00    +0.034 A 
ATOM     28  C   UNL     1      -9.845   2.305  -1.619  0.00  0.00    +0.023 A 
ATOM     29  C   UNL     1     -11.117   1.828  -1.863  0.00  0.00    +0.002 A 
ATOM     30  C   UNL     1     -12.220   2.567  -1.478  0.00  0.00    +0.000 A 
ATOM     31  C   UNL     1     -12.053   3.784  -0.843  0.00  0.00    +0.002 A 
ATOM     32  C   UNL     1     -10.783   4.265  -0.591  0.00  0.00    +0.023 A 
ENDBRANCH  22  27
ENDBRANCH   2  16
BRANCH   2  33
ATOM     33  C   UNL     1      -3.468   4.623  -0.040  0.00  0.00    +0.103 C 
ATOM     34  N   UNL     1      -3.250   5.733  -0.143  0.00  0.00    -0.191 NA
ENDBRANCH   2  33
TORSDOF 4
