REMARK  Name = ZINC06009370
REMARK  10 active torsions:
REMARK  status: ('A' for Active; 'I' for Inactive)
REMARK    1  A    between atoms: C_1  and  C_2
REMARK    2  A    between atoms: C_5  and  S_8
REMARK    3  A    between atoms: S_8  and  N_11
REMARK    4  A    between atoms: N_11  and  C_12
REMARK    5  A    between atoms: N_11  and  C_24
REMARK    6  A    between atoms: C_12  and  C_13
REMARK    7  A    between atoms: C_13  and  C_14
REMARK    8  A    between atoms: C_14  and  C_15
REMARK    9  A    between atoms: C_16  and  C_23
REMARK   10  A    between atoms: C_20  and  N_21
REMARK                            x       y       z     vdW  Elec       q    Type
REMARK                         _______ _______ _______ _____ _____    ______ ____
ROOT
ATOM      1  N   UNL     1       1.381  -4.682  -2.859  0.00  0.00    -0.203 N 
ENDROOT
BRANCH   1   2
ATOM      2  C   UNL     1       0.191  -4.863  -3.567  0.00  0.00    +0.051 A 
ATOM      3  C   UNL     1      -0.847  -5.598  -3.008  0.00  0.00    +0.025 A 
ATOM      4  C   UNL     1      -2.025  -5.771  -3.709  0.00  0.00    +0.002 A 
ATOM      5  C   UNL     1      -2.167  -5.222  -4.971  0.00  0.00    +0.000 A 
ATOM      6  C   UNL     1      -1.134  -4.495  -5.532  0.00  0.00    +0.002 A 
ATOM      7  C   UNL     1       0.044  -4.313  -4.834  0.00  0.00    +0.025 A 
ENDBRANCH   1   2
BRANCH   1   8
ATOM      8  S   UNL     1       2.810  -5.234  -3.487  0.00  0.00    +0.075 S 
ATOM      9  O   UNL     1       2.592  -5.435  -4.877  0.00  0.00    -0.150 OA
ATOM     10  O   UNL     1       3.829  -4.376  -2.992  0.00  0.00    -0.150 OA
BRANCH   8  15
ATOM     11  C   UNL     1       3.828 -10.679  -1.096  0.00  0.00    +0.044 C 
ATOM     12  C   UNL     1       3.574  -9.319  -1.693  0.00  0.00    -0.050 A 
ATOM     13  C   UNL     1       2.862  -9.204  -2.873  0.00  0.00    +0.005 A 
ATOM     14  C   UNL     1       2.629  -7.957  -3.421  0.00  0.00    +0.029 A 
ATOM     15  C   UNL     1       3.107  -6.824  -2.789  0.00  0.00    +0.109 A 
ATOM     16  C   UNL     1       3.823  -6.939  -1.612  0.00  0.00    +0.029 A 
ATOM     17  C   UNL     1       4.053  -8.186  -1.062  0.00  0.00    +0.005 A 
ENDBRANCH   8  15
ENDBRANCH   1   8
BRANCH   1  18
ATOM     18  C   UNL     1       1.365  -4.005  -1.560  0.00  0.00    +0.132 C 
BRANCH  18  19
ATOM     19  C   UNL     1       1.433  -2.491  -1.773  0.00  0.00    +0.025 C 
BRANCH  19  20
ATOM     20  C   UNL     1       1.416  -1.784  -0.417  0.00  0.00    +0.042 C 
BRANCH  20  21
ATOM     21  C   UNL     1       1.484  -0.293  -0.627  0.00  0.00    +0.013 A 
ATOM     22  C   UNL     1       2.701   0.358  -0.685  0.00  0.00    +0.048 A 
ATOM     23  N   UNL     1       2.726   1.669  -0.871  0.00  0.00    -0.220 NA
ATOM     24  C   UNL     1       1.604   2.361  -1.000  0.00  0.00    +0.214 A 
ATOM     25  N   UNL     1       0.417   1.775  -0.951  0.00  0.00    -0.200 NA
ATOM     26  C   UNL     1       0.317   0.462  -0.767  0.00  0.00    +0.125 A 
ATOM     27  N   UNL     1       1.673   3.730  -1.193  0.00  0.00    -0.327 N 
ATOM     28  C   UNL     1       3.986  -0.416  -0.540  0.00  0.00    +0.066 C 
ATOM     29  H   UNL     1       0.858   4.247  -1.290  0.00  0.00    +0.145 HD
ATOM     30  H   UNL     1       2.535   4.171  -1.232  0.00  0.00    +0.145 HD
BRANCH  26  31
ATOM     31  N   UNL     1      -0.925  -0.148  -0.716  0.00  0.00    -0.343 N 
ATOM     32  H   UNL     1      -1.731   0.383  -0.814  0.00  0.00    +0.144 HD
ATOM     33  H   UNL     1      -0.990  -1.107  -0.582  0.00  0.00    +0.144 HD
ENDBRANCH  26  31
ENDBRANCH  20  21
ENDBRANCH  19  20
ENDBRANCH  18  19
ENDBRANCH   1  18
TORSDOF 8
