REMARK  Name = ZINC39335717
REMARK  6 active torsions:
REMARK  status: ('A' for Active; 'I' for Inactive)
REMARK    1  A    between atoms: C_7  and  C_10
REMARK    2  A    between atoms: C_10  and  C_12
REMARK    3  A    between atoms: C_10  and  C_24
REMARK    4  A    between atoms: C_12  and  N_13
REMARK    5  A    between atoms: C_14  and  C_16
REMARK    6  A    between atoms: C_19  and  C_22
REMARK                            x       y       z     vdW  Elec       q    Type
REMARK                         _______ _______ _______ _____ _____    ______ ____
ROOT
ATOM      1  C   UNL     1      -4.662   3.220   0.032  0.00  0.00    +0.052 C 
ENDROOT
BRANCH   1   8
ATOM      2  C   UNL     1      -0.903   0.950  -1.609  0.00  0.00    +0.001 A 
ATOM      3  C   UNL     1      -1.090  -0.423  -1.684  0.00  0.00    +0.002 A 
ATOM      4  C   UNL     1      -2.285  -0.991  -1.298  0.00  0.00    +0.026 A 
ATOM      5  C   UNL     1      -3.315  -0.182  -0.829  0.00  0.00    +0.047 A 
ATOM      6  N   UNL     1      -4.591  -0.438  -0.380  0.00  0.00    -0.360 N 
ATOM      7  C   UNL     1      -5.204   0.734  -0.028  0.00  0.00    +0.087 A 
ATOM      8  C   UNL     1      -4.369   1.766  -0.230  0.00  0.00    -0.017 A 
ATOM      9  C   UNL     1      -3.119   1.209  -0.755  0.00  0.00    +0.003 A 
ATOM     10  C   UNL     1      -1.899   1.763  -1.146  0.00  0.00    +0.010 A 
ATOM     11  H   UNL     1      -4.996  -1.317  -0.323  0.00  0.00    +0.165 HD
ENDBRANCH   1   8
BRANCH   1  12
ATOM     12  C   UNL     1      -5.856   3.661  -0.816  0.00  0.00    +0.063 C 
ATOM     13  C   UNL     1      -5.540   3.576  -2.333  0.00  0.00    +0.043 C 
ATOM     14  C   UNL     1      -6.143   4.731  -3.065  0.00  0.00    -0.019 C 
ATOM     15  C   UNL     1      -6.511   5.809  -2.401  0.00  0.00    +0.036 C 
ATOM     16  S   UNL     1      -6.144   5.476  -0.686  0.00  0.00    -0.129 S 
ENDBRANCH   1  12
BRANCH   1  17
ATOM     17  C   UNL     1      -4.988   3.416   1.514  0.00  0.00    +0.113 C 
BRANCH  17  18
ATOM     18  N   UNL     1      -5.103   4.847   1.804  0.00  0.00    -0.311 N 
ATOM     19  C   UNL     1      -5.511   5.258   3.021  0.00  0.00    +0.244 C 
ATOM     20  O   UNL     1      -5.784   4.440   3.878  0.00  0.00    -0.270 OA
ATOM     21  H   UNL     1      -4.885   5.500   1.120  0.00  0.00    +0.149 HD
BRANCH  19  22
ATOM     22  C   UNL     1      -5.626   6.703   3.314  0.00  0.00    +0.037 A 
ATOM     23  C   UNL     1      -5.318   7.642   2.328  0.00  0.00    +0.014 A 
ATOM     24  C   UNL     1      -5.425   8.988   2.600  0.00  0.00    +0.019 A 
ATOM     25  C   UNL     1      -5.843   9.413   3.863  0.00  0.00    +0.052 A 
ATOM     26  C   UNL     1      -6.151   8.474   4.850  0.00  0.00    +0.019 A 
ATOM     27  C   UNL     1      -6.049   7.128   4.575  0.00  0.00    +0.014 A 
BRANCH  25  28
ATOM     28  C   UNL     1      -5.954  10.812   4.147  0.00  0.00    +0.099 C 
ATOM     29  N   UNL     1      -6.042  11.922   4.372  0.00  0.00    -0.191 NA
ENDBRANCH  25  28
ENDBRANCH  19  22
ENDBRANCH  17  18
ENDBRANCH   1  17
TORSDOF 6
