REMARK  Name = ZINC39668425
REMARK  11 active torsions:
REMARK  status: ('A' for Active; 'I' for Inactive)
REMARK    1  A    between atoms: C_1  and  C_2
REMARK    2  A    between atoms: C_2  and  C_4
REMARK    3  A    between atoms: C_2  and  O_31
REMARK    4  A    between atoms: C_4  and  N_5
REMARK    5  A    between atoms: C_6  and  C_8
REMARK    6  A    between atoms: C_19  and  C_21
REMARK    7  A    between atoms: C_23  and  O_29
REMARK    8  A    between atoms: C_25  and  O_27
REMARK    9  A    between atoms: O_27  and  C_28
REMARK   10  A    between atoms: O_29  and  C_30
REMARK   11  A    between atoms: O_31  and  C_32
REMARK                            x       y       z     vdW  Elec       q    Type
REMARK                         _______ _______ _______ _____ _____    ______ ____
ROOT
ATOM      1  C   UNL     1      -2.487  -3.927   0.214  0.00  0.00    +0.100 C 
ATOM      2  C   UNL     1      -1.687  -4.452  -0.999  0.00  0.00    +0.121 C 
ATOM      3  N   UNL     1      -2.398  -5.685  -1.412  0.00  0.00    -0.296 N 
ATOM      4  C   UNL     1      -3.835  -5.353  -1.251  0.00  0.00    +0.115 C 
ATOM      5  C   UNL     1      -3.896  -4.520   0.045  0.00  0.00    -0.004 C 
ATOM      6  C   UNL     1      -4.926  -3.404  -0.095  0.00  0.00    -0.010 C 
ATOM      7  C   UNL     1      -6.325  -4.016  -0.203  0.00  0.00    -0.082 C 
ATOM      8  N   UNL     1      -6.604  -4.820   0.993  0.00  0.00    +0.379 N 
ATOM      9  C   UNL     1      -5.666  -5.946   1.070  0.00  0.00    -0.082 C 
ATOM     10  C   UNL     1      -4.239  -5.415   1.232  0.00  0.00    -0.010 C 
ATOM     11  C   UNL     1      -1.861  -6.845  -1.837  0.00  0.00    +0.247 C 
ATOM     12  O   UNL     1      -0.656  -7.003  -1.811  0.00  0.00    -0.270 OA
ATOM     13  H   UNL     1      -6.502  -4.243   1.815  0.00  0.00    -0.086 HD
ATOM     14  H   UNL     1      -7.548  -5.172   0.948  0.00  0.00    -0.086 HD
ENDROOT
BRANCH  11  15
ATOM     15  C   UNL     1      -2.738  -7.927  -2.335  0.00  0.00    +0.044 A 
ATOM     16  C   UNL     1      -3.997  -7.625  -2.853  0.00  0.00    +0.059 A 
ATOM     17  C   UNL     1      -4.815  -8.641  -3.319  0.00  0.00    +0.124 A 
ATOM     18  C   UNL     1      -4.383  -9.959  -3.270  0.00  0.00    +0.091 A 
ATOM     19  C   UNL     1      -3.131 -10.264  -2.756  0.00  0.00    +0.124 A 
ATOM     20  C   UNL     1      -2.305  -9.253  -2.293  0.00  0.00    +0.059 A 
BRANCH  19  21
ATOM     21  O   UNL     1      -2.713 -11.556  -2.710  0.00  0.00    -0.495 OA
ATOM     22  C   UNL     1      -3.614 -12.547  -3.209  0.00  0.00    +0.277 C 
ENDBRANCH  19  21
BRANCH  17  23
ATOM     23  O   UNL     1      -6.042  -8.347  -3.824  0.00  0.00    -0.495 OA
ATOM     24  C   UNL     1      -6.833  -9.444  -4.286  0.00  0.00    +0.277 C 
ENDBRANCH  17  23
ENDBRANCH  11  15
BRANCH   1  26
ATOM     25  N   UNL     1      -2.615  -1.733   1.349  0.00  0.00    -0.312 N 
ATOM     26  C   UNL     1      -2.546  -2.421   0.193  0.00  0.00    +0.218 C 
ATOM     27  O   UNL     1      -2.530  -1.829  -0.865  0.00  0.00    -0.275 OA
ATOM     28  H   UNL     1      -2.628  -2.207   2.196  0.00  0.00    +0.149 HD
BRANCH  25  29
ATOM     29  C   UNL     1      -2.672  -0.270   1.329  0.00  0.00    +0.148 C 
BRANCH  29  31
ATOM     30  C   UNL     1      -2.805   1.787   2.741  0.00  0.00    +0.053 C 
ATOM     31  C   UNL     1      -2.746   0.258   2.763  0.00  0.00    +0.187 C 
BRANCH  31  32
ATOM     32  O   UNL     1      -3.918  -0.255   3.400  0.00  0.00    -0.486 OA
BRANCH  32  33
ATOM     33  C   UNL     1      -3.828  -0.530   4.728  0.00  0.00    +0.139 A 
ATOM     34  C   UNL     1      -2.678  -0.205   5.440  0.00  0.00    +0.049 A 
ATOM     35  C   UNL     1      -2.633  -0.505   6.791  0.00  0.00    +0.023 A 
ATOM     36  C   UNL     1      -3.724  -1.113   7.384  0.00  0.00    +0.111 A 
ATOM     37  N   UNL     1      -4.800  -1.408   6.681  0.00  0.00    -0.260 NA
ATOM     38  C   UNL     1      -4.884  -1.134   5.394  0.00  0.00    +0.156 A 
ENDBRANCH  32  33
ENDBRANCH  31  32
ENDBRANCH  29  31
ENDBRANCH  25  29
ENDBRANCH   1  26
TORSDOF 8
