REMARK  Name = ZINC13030146
REMARK  6 active torsions:
REMARK  status: ('A' for Active; 'I' for Inactive)
REMARK    1  A    between atoms: C_1  and  C_2
REMARK    2  A    between atoms: C_7  and  C_9
REMARK    3  A    between atoms: C_7  and  C_29
REMARK    4  A    between atoms: C_7  and  N_62
REMARK    5  A    between atoms: C_9  and  N_10
REMARK    6  A    between atoms: C_18  and  C_20
REMARK                            x       y       z     vdW  Elec       q    Type
REMARK                         _______ _______ _______ _____ _____    ______ ____
ROOT
ATOM      1  N   UNL     1      -1.264  -0.646  -0.041  0.00  0.00    -0.330 N 
ATOM      2  C   UNL     1      -1.412  -2.018   0.051  0.00  0.00    +0.131 A 
ATOM      3  C   UNL     1      -2.706  -2.609   0.014  0.00  0.00    +0.051 A 
ATOM      4  C   UNL     1      -4.011  -1.940  -0.115  0.00  0.00    -0.025 A 
ATOM      5  C   UNL     1      -5.099  -2.728  -0.126  0.00  0.00    -0.004 A 
ATOM      6  S   UNL     1      -4.472  -4.385   0.034  0.00  0.00    -0.073 S 
ATOM      7  C   UNL     1      -2.741  -4.012   0.113  0.00  0.00    +0.114 A 
ATOM      8  N   UNL     1      -1.639  -4.724   0.234  0.00  0.00    -0.220 NA
ATOM      9  C   UNL     1      -0.457  -4.122   0.263  0.00  0.00    +0.164 A 
ATOM     10  N   UNL     1      -0.352  -2.800   0.168  0.00  0.00    -0.212 NA
ATOM     11  C   UNL     1      -6.372  -1.937  -0.266  0.00  0.00    +0.043 C 
ATOM     12  C   UNL     1      -5.915  -0.553  -0.776  0.00  0.00    +0.010 C 
ATOM     13  C   UNL     1      -4.470  -0.485  -0.243  0.00  0.00    +0.037 C 
ATOM     14  H   UNL     1      -2.046  -0.079  -0.131  0.00  0.00    +0.147 HD
ENDROOT
BRANCH   9  15
ATOM     15  C   UNL     1       0.772  -4.940   0.399  0.00  0.00    +0.037 A 
ATOM     16  C   UNL     1       0.692  -6.332   0.501  0.00  0.00    +0.014 A 
ATOM     17  C   UNL     1       1.868  -7.051   0.621  0.00  0.00    +0.020 A 
ATOM     18  C   UNL     1       3.075  -6.375   0.647  0.00  0.00    +0.111 A 
ATOM     19  N   UNL     1       3.119  -5.059   0.554  0.00  0.00    -0.263 NA
ATOM     20  C   UNL     1       2.027  -4.333   0.433  0.00  0.00    +0.122 A 
ENDBRANCH   9  15
BRANCH   1  21
ATOM     21  C   UNL     1       0.073  -0.049  -0.002  0.00  0.00    +0.093 C 
BRANCH  21  22
ATOM     22  C   UNL     1      -0.049   1.476  -0.012  0.00  0.00    -0.013 C 
BRANCH  22  29
ATOM     23  C   UNL     1      -2.749   3.567   4.572  0.00  0.00    +0.007 C 
ATOM     24  C   UNL     1      -1.677   3.219   3.537  0.00  0.00    -0.018 C 
ATOM     25  C   UNL     1      -2.088   3.770   2.169  0.00  0.00    -0.015 C 
ATOM     26  C   UNL     1      -1.043   3.367   1.127  0.00  0.00    -0.078 C 
ATOM     27  C   UNL     1      -0.502   1.355   2.363  0.00  0.00    -0.078 C 
ATOM     28  C   UNL     1      -1.532   1.698   3.442  0.00  0.00    -0.015 C 
ATOM     29  N   UNL     1      -0.969   1.892   1.067  0.00  0.00    +0.386 N 
ATOM     30  H   UNL     1      -1.905   1.519   0.870  0.00  0.00    -0.081 HD
ENDBRANCH  22  29
BRANCH  22  31
ATOM     31  C   UNL     1      -0.615   1.926  -1.334  0.00  0.00    -0.022 A 
ATOM     32  C   UNL     1       0.032   2.434  -2.411  0.00  0.00    +0.009 A 
ATOM     33  C   UNL     1      -0.700   2.779  -3.532  0.00  0.00    +0.008 A 
ATOM     34  C   UNL     1      -2.045   2.609  -3.517  0.00  0.00    +0.045 A 
ATOM     35  S   UNL     1      -2.313   1.935  -1.885  0.00  0.00    -0.103 S 
ENDBRANCH  22  31
ENDBRANCH  21  22
ENDBRANCH   1  21
TORSDOF 5
