REMARK  Name = ZINC49542316
REMARK  7 active torsions:
REMARK  status: ('A' for Active; 'I' for Inactive)
REMARK    1  A    between atoms: C_1  and  C_2
REMARK    2  A    between atoms: C_2  and  C_3
REMARK    3  A    between atoms: C_3  and  C_4
REMARK    4  A    between atoms: C_4  and  C_6
REMARK    5  A    between atoms: C_4  and  N_11
REMARK    6  A    between atoms: N_11  and  C_12
REMARK    7  A    between atoms: C_15  and  N_22
REMARK                            x       y       z     vdW  Elec       q    Type
REMARK                         _______ _______ _______ _____ _____    ______ ____
ROOT
ATOM      1  C   UNL     1      -0.230  -3.796  -1.318  0.00  0.00    +0.036 A 
ATOM      2  C   UNL     1      -0.180  -4.599  -0.197  0.00  0.00    +0.025 A 
ATOM      3  C   UNL     1       0.417  -5.854  -0.243  0.00  0.00    +0.025 A 
ATOM      4  C   UNL     1       0.977  -6.330  -1.411  0.00  0.00    +0.034 A 
ATOM      5  C   UNL     1       0.943  -5.534  -2.572  0.00  0.00    +0.020 A 
ATOM      6  C   UNL     1       0.327  -4.256  -2.525  0.00  0.00    +0.007 A 
ATOM      7  C   UNL     1       0.302  -3.485  -3.701  0.00  0.00    +0.028 A 
ATOM      8  C   UNL     1       0.863  -3.999  -4.831  0.00  0.00    +0.083 A 
ATOM      9  N   UNL     1       1.427  -5.199  -4.849  0.00  0.00    -0.366 N 
ATOM     10  C   UNL     1       1.497  -5.967  -3.786  0.00  0.00    +0.093 A 
ATOM     11  H   UNL     1       1.812  -5.519  -5.679  0.00  0.00    +0.165 HD
ENDROOT
BRANCH   4  12
ATOM     12  N   UNL     1       1.575  -7.591  -1.440  0.00  0.00    -0.357 N 
ATOM     13  H   UNL     1       1.597  -8.137  -0.638  0.00  0.00    +0.142 HD
ATOM     14  H   UNL     1       1.967  -7.923  -2.263  0.00  0.00    +0.142 HD
ENDBRANCH   4  12
BRANCH   1  15
ATOM     15  N   UNL     1      -0.834  -2.537  -1.256  0.00  0.00    -0.336 N 
ATOM     16  H   UNL     1      -0.871  -1.977  -2.047  0.00  0.00    +0.147 HD
BRANCH  15  17
ATOM     17  C   UNL     1      -1.413  -2.063   0.004  0.00  0.00    +0.107 C 
BRANCH  17  18
ATOM     18  C   UNL     1      -2.820  -2.586   0.139  0.00  0.00    +0.010 A 
ATOM     19  C   UNL     1      -3.455  -3.052   1.242  0.00  0.00    +0.013 A 
ATOM     20  C   UNL     1      -4.764  -3.484   1.129  0.00  0.00    +0.008 A 
ATOM     21  C   UNL     1      -5.372  -3.429  -0.081  0.00  0.00    +0.045 A 
ATOM     22  S   UNL     1      -4.085  -2.743  -1.111  0.00  0.00    -0.100 S 
ENDBRANCH  17  18
BRANCH  17  23
ATOM     23  C   UNL     1      -1.433  -0.534   0.013  0.00  0.00    +0.027 C 
BRANCH  23  25
ATOM     24  C   UNL     1      -0.019   1.526   0.010  0.00  0.00    +0.004 C 
ATOM     25  C   UNL     1       0.002  -0.004   0.002  0.00  0.00    -0.001 C 
ENDBRANCH  23  25
ENDBRANCH  17  23
ENDBRANCH  15  17
ENDBRANCH   1  15
TORSDOF 6
