REMARK  Name = ZINC63384395
REMARK  9 active torsions:
REMARK  status: ('A' for Active; 'I' for Inactive)
REMARK    1  A    between atoms: C_1  and  C_2
REMARK    2  A    between atoms: C_2  and  C_39
REMARK    3  A    between atoms: C_3  and  C_14
REMARK    4  A    between atoms: N_16  and  C_17
REMARK    5  A    between atoms: C_17  and  C_19
REMARK    6  A    between atoms: C_17  and  C_29
REMARK    7  A    between atoms: C_19  and  C_20
REMARK    8  A    between atoms: N_31  and  C_32
REMARK    9  A    between atoms: C_32  and  C_33
REMARK                            x       y       z     vdW  Elec       q    Type
REMARK                         _______ _______ _______ _____ _____    ______ ____
ROOT
ATOM      1  C   UNL     1      -3.525   0.394  -2.671  0.00  0.00    +0.163 C 
ENDROOT
BRANCH   1   4
ATOM      2  C   UNL     1      -3.029   0.907  -0.341  0.00  0.00    +0.236 C 
ATOM      3  O   UNL     1      -3.945   1.703  -0.350  0.00  0.00    -0.274 OA
ATOM      4  N   UNL     1      -2.774   0.162  -1.435  0.00  0.00    -0.302 N 
ATOM      5  H   UNL     1      -2.093  -0.528  -1.403  0.00  0.00    +0.150 HD
BRANCH   2   8
ATOM      6  C   UNL     1      -1.230  -1.601   0.589  0.00  0.00    +0.037 C 
ATOM      7  C   UNL     1      -2.220  -0.732   1.367  0.00  0.00    +0.111 C 
ATOM      8  C   UNL     1      -2.177   0.752   0.892  0.00  0.00    +0.190 C 
ATOM      9  N   UNL     1      -2.688   1.630   1.947  0.00  0.00    -0.265 N 
ATOM     10  C   UNL     1      -2.365   1.226   3.322  0.00  0.00    +0.228 C 
ATOM     11  S   UNL     1      -1.670  -0.468   3.113  0.00  0.00    -0.004 S 
ATOM     12  O   UNL     1      -2.361  -1.370   3.966  0.00  0.00    -0.172 OA
ATOM     13  O   UNL     1      -0.251  -0.403   3.155  0.00  0.00    -0.172 OA
ATOM     14  C   UNL     1      -3.860   1.231   3.613  0.00  0.00    +0.142 C 
ATOM     15  C   UNL     1      -4.002   1.694   2.195  0.00  0.00    +0.221 C 
ATOM     16  O   UNL     1      -4.958   2.010   1.518  0.00  0.00    -0.275 OA
ATOM     17  C   UNL     1      -3.637  -1.306   1.302  0.00  0.00    +0.037 C 
ENDBRANCH   2   8
ENDBRANCH   1   4
BRANCH   1  18
ATOM     18  C   UNL     1      -4.765  -0.463  -2.673  0.00  0.00    +0.234 C 
ATOM     19  O   UNL     1      -4.831  -1.436  -1.952  0.00  0.00    -0.274 OA
ATOM     20  N   UNL     1      -5.800  -0.148  -3.477  0.00  0.00    -0.310 N 
ATOM     21  H   UNL     1      -5.747   0.630  -4.054  0.00  0.00    +0.149 HD
BRANCH  20  22
ATOM     22  C   UNL     1      -7.005  -0.981  -3.479  0.00  0.00    +0.139 C 
BRANCH  22  23
ATOM     23  C   UNL     1      -8.004  -0.417  -4.457  0.00  0.00    -0.030 A 
ATOM     24  C   UNL     1      -8.927   0.523  -4.037  0.00  0.00    +0.005 A 
ATOM     25  C   UNL     1      -9.843   1.040  -4.934  0.00  0.00    +0.000 A 
ATOM     26  C   UNL     1      -9.835   0.619  -6.251  0.00  0.00    +0.000 A 
ATOM     27  C   UNL     1      -8.911  -0.320  -6.671  0.00  0.00    +0.000 A 
ATOM     28  C   UNL     1      -7.993  -0.834  -5.775  0.00  0.00    +0.005 A 
ENDBRANCH  22  23
ENDBRANCH  20  22
ENDBRANCH   1  18
BRANCH   1  29
ATOM     29  C   UNL     1      -2.652   0.031  -3.874  0.00  0.00    +0.065 C 
BRANCH  29  30
ATOM     30  C   UNL     1      -1.455   0.945  -3.919  0.00  0.00    -0.039 C 
ATOM     31  C   UNL     1      -0.227   0.703  -3.408  0.00  0.00    -0.001 A 
ATOM     32  C   UNL     1       0.340  -0.441  -2.683  0.00  0.00    +0.010 A 
ATOM     33  C   UNL     1       1.633  -0.391  -2.288  0.00  0.00    +0.001 A 
ATOM     34  C   UNL     1       2.443   0.722  -2.553  0.00  0.00    +0.002 A 
ATOM     35  C   UNL     1       1.993   1.809  -3.214  0.00  0.00    +0.026 A 
ATOM     36  C   UNL     1       0.649   1.865  -3.676  0.00  0.00    +0.043 A 
ATOM     37  N   UNL     1      -0.012   2.791  -4.327  0.00  0.00    -0.380 N 
ATOM     38  C   UNL     1      -1.382   2.317  -4.552  0.00  0.00    +0.144 C 
ATOM     39  H   UNL     1       0.346   3.645  -4.616  0.00  0.00    +0.160 HD
ENDBRANCH  29  30
ENDBRANCH   1  29
TORSDOF 7
