REMARK  Name = ZINC59121603
REMARK  7 active torsions:
REMARK  status: ('A' for Active; 'I' for Inactive)
REMARK    1  A    between atoms: C_1  and  C_2
REMARK    2  A    between atoms: C_2  and  C_4
REMARK    3  A    between atoms: N_6  and  C_29
REMARK    4  A    between atoms: C_17  and  C_26
REMARK    5  A    between atoms: N_18  and  N_19
REMARK    6  A    between atoms: N_19  and  C_20
REMARK    7  A    between atoms: C_26  and  C_28
REMARK                            x       y       z     vdW  Elec       q    Type
REMARK                         _______ _______ _______ _____ _____    ______ ____
ROOT
ATOM      1  C   UNL     1      -1.927  -0.200   0.071  0.00  0.00    +0.162 C 
ATOM      2  N   UNL     1      -3.237  -0.140   0.045  0.00  0.00    -0.166 NA
ATOM      3  N   UNL     1      -4.039  -1.269   0.026  0.00  0.00    -0.180 N 
ATOM      4  C   UNL     1      -3.312  -2.530   0.038  0.00  0.00    +0.234 C 
ATOM      5  S   UNL     1      -1.580  -1.955   0.066  0.00  0.00    -0.042 S 
ATOM      6  N   UNL     1      -3.584  -3.435  -1.055  0.00  0.00    -0.240 N 
ATOM      7  C   UNL     1      -4.014  -4.724  -0.711  0.00  0.00    +0.052 A 
ATOM      8  C   UNL     1      -4.324  -5.751  -1.618  0.00  0.00    +0.025 A 
ATOM      9  C   UNL     1      -4.738  -6.987  -1.178  0.00  0.00    +0.002 A 
ATOM     10  C   UNL     1      -4.864  -7.260   0.172  0.00  0.00    +0.001 A 
ATOM     11  C   UNL     1      -4.565  -6.266   1.089  0.00  0.00    +0.017 A 
ATOM     12  C   UNL     1      -4.150  -5.032   0.649  0.00  0.00    +0.034 A 
ATOM     13  S   UNL     1      -3.685  -3.542   1.508  0.00  0.00    -0.064 S 
ATOM     14  C   UNL     1      -3.426  -3.045  -2.390  0.00  0.00    +0.162 C 
ATOM     15  N   UNL     1      -2.888  -1.885  -2.673  0.00  0.00    -0.291 N 
ATOM     16  H   UNL     1      -2.607  -1.293  -1.958  0.00  0.00    +0.186 HD
ENDROOT
BRANCH   3  17
ATOM     17  C   UNL     1      -5.432  -1.204  -0.002  0.00  0.00    +0.056 A 
ATOM     18  C   UNL     1      -6.184  -2.373  -0.013  0.00  0.00    +0.025 A 
ATOM     19  C   UNL     1      -7.563  -2.304  -0.041  0.00  0.00    +0.002 A 
ATOM     20  C   UNL     1      -8.196  -1.074  -0.056  0.00  0.00    +0.000 A 
ATOM     21  C   UNL     1      -7.450   0.091  -0.044  0.00  0.00    +0.002 A 
ATOM     22  C   UNL     1      -6.071   0.030  -0.011  0.00  0.00    +0.025 A 
ENDBRANCH   3  17
BRANCH   1  24
ATOM     23  C   UNL     1      -1.502   2.296   0.094  0.00  0.00    +0.094 C 
ATOM     24  C   UNL     1      -1.004   0.874   0.093  0.00  0.00    +0.186 C 
ATOM     25  O   UNL     1       0.189   0.648   0.110  0.00  0.00    -0.290 OA
ENDBRANCH   1  24
BRANCH  14  26
ATOM     26  C   UNL     1      -3.849  -3.903  -3.433  0.00  0.00    +0.192 C 
ATOM     27  O   UNL     1      -5.032  -4.035  -3.670  0.00  0.00    -0.289 OA
ATOM     28  C   UNL     1      -2.829  -4.655  -4.250  0.00  0.00    +0.095 C 
ENDBRANCH  14  26
BRANCH  15  29
ATOM     29  N   UNL     1      -2.719  -1.499  -4.010  0.00  0.00    -0.259 N 
ATOM     30  H   UNL     1      -3.061  -2.060  -4.723  0.00  0.00    +0.172 HD
BRANCH  29  31
ATOM     31  C   UNL     1      -2.059  -0.309  -4.314  0.00  0.00    +0.046 A 
ATOM     32  C   UNL     1      -1.563   0.494  -3.292  0.00  0.00    +0.024 A 
ATOM     33  C   UNL     1      -0.910   1.672  -3.597  0.00  0.00    +0.002 A 
ATOM     34  C   UNL     1      -0.750   2.054  -4.917  0.00  0.00    +0.000 A 
ATOM     35  C   UNL     1      -1.242   1.258  -5.936  0.00  0.00    +0.002 A 
ATOM     36  C   UNL     1      -1.890   0.076  -5.639  0.00  0.00    +0.024 A 
ENDBRANCH  29  31
ENDBRANCH  15  29
TORSDOF 5
