REMARK  Name = ZINC39560878
REMARK  12 active torsions:
REMARK  status: ('A' for Active; 'I' for Inactive)
REMARK    1  A    between atoms: C_1  and  N_2
REMARK    2  A    between atoms: N_2  and  C_3
REMARK    3  A    between atoms: N_2  and  C_4
REMARK    4  A    between atoms: C_4  and  C_5
REMARK    5  A    between atoms: C_5  and  N_6
REMARK    6  A    between atoms: N_6  and  C_7
REMARK    7  A    between atoms: C_10  and  C_32
REMARK    8  A    between atoms: C_26  and  C_28
REMARK    9  A    between atoms: C_28  and  O_30
REMARK   10  A    between atoms: O_30  and  C_31
REMARK   11  A    between atoms: C_36  and  O_38
REMARK   12  A    between atoms: O_38  and  C_39
REMARK                            x       y       z     vdW  Elec       q    Type
REMARK                         _______ _______ _______ _____ _____    ______ ____
ROOT
ATOM      1  C   UNL     1      -3.595  -4.495   0.060  0.00  0.00    -0.068 C 
ATOM      2  C   UNL     1      -2.727  -4.662  -1.190  0.00  0.00    +0.008 C 
ATOM      3  C   UNL     1      -3.373  -3.917  -2.361  0.00  0.00    +0.087 C 
ATOM      4  N   UNL     1      -4.718  -4.454  -2.597  0.00  0.00    -0.274 NA
ATOM      5  C   UNL     1      -5.582  -4.242  -1.425  0.00  0.00    +0.106 C 
ATOM      6  C   UNL     1      -5.008  -5.008  -0.231  0.00  0.00    +0.009 C 
ATOM      7  C   UNL     1      -6.960  -4.762  -1.752  0.00  0.00    +0.063 C 
ATOM      8  N   UNL     1      -7.939  -5.043  -0.932  0.00  0.00    -0.250 NA
ATOM      9  C   UNL     1      -8.994  -5.480  -1.634  0.00  0.00    +0.068 C 
ATOM     10  C   UNL     1     -10.257  -5.894  -1.213  0.00  0.00    +0.028 C 
ATOM     11  C   UNL     1     -11.172  -6.306  -2.204  0.00  0.00    -0.002 C 
ATOM     12  C   UNL     1     -10.894  -6.318  -3.503  0.00  0.00    -0.022 C 
ATOM     13  C   UNL     1      -9.582  -5.902  -4.105  0.00  0.00    +0.064 C 
ATOM     14  C   UNL     1      -8.639  -5.471  -3.017  0.00  0.00    -0.013 C 
ATOM     15  C   UNL     1      -7.376  -5.022  -3.077  0.00  0.00    -0.017 C 
ATOM     16  C   UNL     1      -6.483  -4.798  -4.272  0.00  0.00    +0.067 C 
ATOM     17  C   UNL     1      -5.311  -3.913  -3.824  0.00  0.00    +0.172 C 
ENDROOT
BRANCH   3  18
ATOM     18  C   UNL     1      -2.533  -4.101  -3.599  0.00  0.00    -0.027 A 
ATOM     19  C   UNL     1      -2.636  -5.267  -4.336  0.00  0.00    +0.005 A 
ATOM     20  C   UNL     1      -1.867  -5.439  -5.472  0.00  0.00    +0.004 A 
ATOM     21  C   UNL     1      -0.993  -4.447  -5.873  0.00  0.00    +0.045 A 
ATOM     22  C   UNL     1      -0.888  -3.277  -5.136  0.00  0.00    +0.120 A 
ATOM     23  C   UNL     1      -1.666  -3.104  -4.000  0.00  0.00    +0.050 A 
BRANCH  22  24
ATOM     24  O   UNL     1      -0.030  -2.299  -5.529  0.00  0.00    -0.495 OA
ATOM     25  C   UNL     1       0.734  -2.543  -6.711  0.00  0.00    +0.277 C 
ENDBRANCH  22  24
ENDBRANCH   3  18
BRANCH   1  26
ATOM     26  N   UNL     1      -3.655  -3.075   0.429  0.00  0.00    +0.382 N 
ATOM     27  H   UNL     1      -4.292  -2.955   1.202  0.00  0.00    -0.085 HD
ATOM     28  H   UNL     1      -3.978  -2.535  -0.360  0.00  0.00    -0.085 HD
BRANCH  26  29
ATOM     29  C   UNL     1      -2.317  -2.614   0.822  0.00  0.00    -0.067 C 
BRANCH  29  30
ATOM     30  C   UNL     1      -2.379  -1.134   1.207  0.00  0.00    +0.065 C 
BRANCH  30  32
ATOM     31  C   UNL     1      -1.010   0.788   1.747  0.00  0.00    +0.104 C 
ATOM     32  N   UNL     1      -1.041  -0.673   1.600  0.00  0.00    -0.310 NA
ATOM     33  C   UNL     1      -0.597  -1.336   2.833  0.00  0.00    +0.104 C 
ENDBRANCH  30  32
ENDBRANCH  29  30
ENDBRANCH  26  29
ENDBRANCH   1  26
BRANCH  17  34
ATOM     34  C   UNL     1      -5.810  -2.515  -3.564  0.00  0.00    +0.325 C 
ATOM     35  O   UNL     1      -6.497  -2.288  -2.597  0.00  0.00    -0.249 OA
BRANCH  34  36
ATOM     36  O   UNL     1      -5.492  -1.521  -4.409  0.00  0.00    -0.467 OA
ATOM     37  C   UNL     1      -5.999  -0.221  -4.101  0.00  0.00    +0.280 C 
ENDBRANCH  34  36
ENDBRANCH  17  34
TORSDOF 8
