REMARK  Name = ZINC02595177
REMARK  7 active torsions:
REMARK  status: ('A' for Active; 'I' for Inactive)
REMARK    1  A    between atoms: C_1  and  C_2
REMARK    2  A    between atoms: C_2  and  C_3
REMARK    3  A    between atoms: C_2  and  C_4
REMARK    4  A    between atoms: C_4  and  N_5
REMARK    5  A    between atoms: C_13  and  C_17
REMARK    6  A    between atoms: C_13  and  N_21
REMARK    7  A    between atoms: C_22  and  C_24
REMARK                            x       y       z     vdW  Elec       q    Type
REMARK                         _______ _______ _______ _____ _____    ______ ____
ROOT
ATOM      1  N   UNL     1      -1.647  -2.065  -0.045  0.00  0.00    -0.281 N 
ATOM      2  C   UNL     1      -1.601  -2.607  -1.312  0.00  0.00    +0.120 A 
ATOM      3  C   UNL     1      -1.519  -3.962  -1.434  0.00  0.00    +0.096 A 
ATOM      4  C   UNL     1      -1.483  -4.772  -0.292  0.00  0.00    +0.262 A 
ATOM      5  N   UNL     1      -1.530  -4.196   0.927  0.00  0.00    -0.275 N 
ATOM      6  C   UNL     1      -1.606  -2.857   1.040  0.00  0.00    +0.331 A 
ATOM      7  O   UNL     1      -1.643  -2.354   2.146  0.00  0.00    -0.246 OA
ATOM      8  O   UNL     1      -1.411  -5.984  -0.398  0.00  0.00    -0.267 OA
ATOM      9  C   UNL     1      -1.486  -4.262  -2.915  0.00  0.00    +0.240 C 
ATOM     10  C   UNL     1      -1.561  -2.890  -3.555  0.00  0.00    +0.256 C 
ATOM     11  O   UNL     1      -1.564  -2.642  -4.742  0.00  0.00    -0.272 OA
ATOM     12  N   UNL     1      -1.624  -2.003  -2.546  0.00  0.00    -0.269 N 
ATOM     13  H   UNL     1      -1.506  -4.748   1.725  0.00  0.00    +0.173 HD
ATOM     14  H   UNL     1      -1.680  -1.043  -2.675  0.00  0.00    +0.156 HD
ENDROOT
BRANCH   9  15
ATOM     15  C   UNL     1      -2.693  -5.112  -3.319  0.00  0.00    +0.424 C 
ATOM     16  F   UNL     1      -3.869  -4.477  -2.907  0.00  0.00    -0.167 F 
ATOM     17  F   UNL     1      -2.708  -5.267  -4.710  0.00  0.00    -0.167 F 
ATOM     18  F   UNL     1      -2.603  -6.368  -2.711  0.00  0.00    -0.167 F 
ENDBRANCH   9  15
BRANCH   9  19
ATOM     19  N   UNL     1      -0.236  -4.933  -3.278  0.00  0.00    -0.290 N 
ATOM     20  C   UNL     1       0.947  -4.349  -3.002  0.00  0.00    +0.217 C 
ATOM     21  O   UNL     1       0.979  -3.309  -2.378  0.00  0.00    -0.275 OA
ATOM     22  H   UNL     1      -0.259  -5.798  -3.716  0.00  0.00    +0.150 HD
BRANCH  20  23
ATOM     23  C   UNL     1       2.230  -4.988  -3.468  0.00  0.00    +0.075 C 
ATOM     24  C   UNL     1       2.356  -6.384  -2.856  0.00  0.00    +0.013 C 
ATOM     25  C   UNL     1       3.658  -7.033  -3.329  0.00  0.00    +0.001 C 
ATOM     26  C   UNL     1       4.845  -6.174  -2.888  0.00  0.00    +0.000 C 
ATOM     27  C   UNL     1       4.719  -4.777  -3.500  0.00  0.00    +0.001 C 
ATOM     28  C   UNL     1       3.417  -4.129  -3.027  0.00  0.00    +0.013 C 
ENDBRANCH  20  23
ENDBRANCH   9  19
BRANCH   1  29
ATOM     29  C   UNL     1      -1.734  -0.612   0.120  0.00  0.00    +0.131 C 
BRANCH  29  31
ATOM     30  C   UNL     1      -0.414   1.507   0.233  0.00  0.00    +0.009 C 
ATOM     31  C   UNL     1      -0.324  -0.020   0.186  0.00  0.00    +0.003 C 
ATOM     32  C   UNL     1       0.384  -0.528   1.443  0.00  0.00    +0.009 C 
ENDBRANCH  29  31
ENDBRANCH   1  29
TORSDOF 5
