REMARK  Name = ZINC33389795
REMARK  8 active torsions:
REMARK  status: ('A' for Active; 'I' for Inactive)
REMARK    1  A    between atoms: C_1  and  O_2
REMARK    2  A    between atoms: O_2  and  C_3
REMARK    3  A    between atoms: C_8  and  C_9
REMARK    4  A    between atoms: N_17  and  C_20
REMARK    5  A    between atoms: C_20  and  C_21
REMARK    6  A    between atoms: C_27  and  C_29
REMARK    7  A    between atoms: C_27  and  C_40
REMARK    8  A    between atoms: C_29  and  C_30
REMARK                            x       y       z     vdW  Elec       q    Type
REMARK                         _______ _______ _______ _____ _____    ______ ____
ROOT
ATOM      1  C   UNL     1       0.051  -2.828  -0.033  0.00  0.00    -0.023 C 
ATOM      2  C   UNL     1       1.050  -3.028   1.094  0.00  0.00    +0.077 C 
ATOM      3  C   UNL     1       1.802  -4.289   0.518  0.00  0.00    +0.086 C 
ATOM      4  C   UNL     1       3.000  -4.307   1.320  0.00  0.00    +0.225 C 
ATOM      5  O   UNL     1       3.618  -5.278   1.700  0.00  0.00    -0.275 OA
ATOM      6  N   UNL     1       3.289  -2.986   1.559  0.00  0.00    -0.237 N 
ATOM      7  C   UNL     1       2.247  -2.143   1.244  0.00  0.00    +0.225 C 
ATOM      8  O   UNL     1       2.286  -0.938   1.109  0.00  0.00    -0.275 OA
ATOM      9  C   UNL     1       0.681  -5.167   0.143  0.00  0.00    +0.052 C 
ATOM     10  N   UNL     1      -0.261  -4.198  -0.543  0.00  0.00    +0.396 N 
ATOM     11  H   UNL     1      -1.215  -4.437  -0.317  0.00  0.00    -0.083 HD
ATOM     12  H   UNL     1      -0.127  -4.229  -1.542  0.00  0.00    -0.083 HD
ENDROOT
BRANCH   1  18
ATOM     13  C   UNL     1       0.516  -0.612  -1.109  0.00  0.00    +0.122 A 
ATOM     14  C   UNL     1       1.083   0.156  -2.116  0.00  0.00    +0.046 A 
ATOM     15  C   UNL     1       1.786  -0.454  -3.136  0.00  0.00    +0.004 A 
ATOM     16  C   UNL     1       1.925  -1.830  -3.155  0.00  0.00    +0.000 A 
ATOM     17  C   UNL     1       1.360  -2.598  -2.153  0.00  0.00    +0.005 A 
ATOM     18  C   UNL     1       0.661  -1.991  -1.128  0.00  0.00    -0.019 A 
BRANCH  13  20
ATOM     19  C   UNL     1      -0.285   1.411  -0.150  0.00  0.00    +0.277 C 
ATOM     20  O   UNL     1      -0.176  -0.013  -0.104  0.00  0.00    -0.495 OA
ENDBRANCH  13  20
ENDBRANCH   1  18
BRANCH   9  21
ATOM     21  C   UNL     1       0.049  -5.782   1.365  0.00  0.00    +0.347 C 
ATOM     22  O   UNL     1      -1.128  -5.577   1.611  0.00  0.00    -0.248 OA
ATOM     23  O   UNL     1       0.714  -6.484   2.107  0.00  0.00    -0.248 OA
ENDBRANCH   9  21
BRANCH   6  24
ATOM     24  C   UNL     1       4.567  -2.521   2.104  0.00  0.00    +0.151 C 
BRANCH  24  25
ATOM     25  C   UNL     1       5.521  -2.236   0.973  0.00  0.00    -0.030 A 
ATOM     26  C   UNL     1       6.347  -3.237   0.497  0.00  0.00    +0.005 A 
ATOM     27  C   UNL     1       7.222  -2.975  -0.541  0.00  0.00    +0.000 A 
ATOM     28  C   UNL     1       7.272  -1.713  -1.102  0.00  0.00    +0.000 A 
ATOM     29  C   UNL     1       6.445  -0.712  -0.626  0.00  0.00    +0.000 A 
ATOM     30  C   UNL     1       5.567  -0.975   0.409  0.00  0.00    +0.005 A 
ENDBRANCH  24  25
ENDBRANCH   6  24
BRANCH   9  31
ATOM     31  C   UNL     1       1.142  -6.249  -0.836  0.00  0.00    +0.037 C 
BRANCH  31  32
ATOM     32  C   UNL     1      -0.048  -7.052  -1.294  0.00  0.00    -0.023 A 
ATOM     33  C   UNL     1      -0.482  -8.208  -0.768  0.00  0.00    +0.087 A 
ATOM     34  N   UNL     1      -1.589  -8.643  -1.445  0.00  0.00    -0.360 N 
ATOM     35  H   UNL     1      -2.080  -9.455  -1.247  0.00  0.00    +0.165 HD
ATOM     36  C   UNL     1      -1.901  -7.755  -2.450  0.00  0.00    +0.047 A 
ATOM     37  C   UNL     1      -0.954  -6.716  -2.396  0.00  0.00    +0.003 A 
ATOM     38  C   UNL     1      -1.026  -5.659  -3.304  0.00  0.00    +0.010 A 
ATOM     39  C   UNL     1      -2.022  -5.636  -4.240  0.00  0.00    +0.001 A 
ATOM     40  C   UNL     1      -2.962  -6.655  -4.295  0.00  0.00    +0.002 A 
ATOM     41  C   UNL     1      -2.903  -7.713  -3.414  0.00  0.00    +0.026 A 
ENDBRANCH  31  32
ENDBRANCH   9  31
TORSDOF 7
