REMARK  Name = ZINC06400644
REMARK  6 active torsions:
REMARK  status: ('A' for Active; 'I' for Inactive)
REMARK    1  A    between atoms: C_1  and  C_2
REMARK    2  A    between atoms: C_5  and  C_8
REMARK    3  A    between atoms: C_8  and  N_9
REMARK    4  A    between atoms: C_13  and  N_23
REMARK    5  A    between atoms: C_14  and  N_16
REMARK    6  A    between atoms: N_16  and  C_17
REMARK                            x       y       z     vdW  Elec       q    Type
REMARK                         _______ _______ _______ _____ _____    ______ ____
ROOT
ATOM      1  N   UNL     1      -1.429   2.927   1.474  0.00  0.00    -0.309 N 
ATOM      2  C   UNL     1      -2.694   3.435   1.713  0.00  0.00    +0.219 A 
ATOM      3  N   UNL     1      -3.428   3.845   0.690  0.00  0.00    -0.197 NA
ATOM      4  C   UNL     1      -4.649   4.340   0.882  0.00  0.00    +0.154 A 
ATOM      5  C   UNL     1      -5.151   4.422   2.178  0.00  0.00    +0.205 A 
ATOM      6  C   UNL     1      -4.350   3.982   3.227  0.00  0.00    +0.160 A 
ATOM      7  N   UNL     1      -3.140   3.494   2.958  0.00  0.00    -0.197 NA
ATOM      8  N   UNL     1      -5.411   4.767  -0.195  0.00  0.00    -0.341 N 
ATOM      9  H   UNL     1      -0.807   2.583   2.313  0.00  0.00    +0.149 HD
ATOM     10  H   UNL     1      -6.419   5.174  -0.028  0.00  0.00    +0.144 HD
ATOM     11  H   UNL     1      -5.008   4.698  -1.216  0.00  0.00    +0.144 HD
ENDROOT
BRANCH   5  12
ATOM     12  N   UNL     1      -6.504   4.966   2.433  0.00  0.00    +0.063 N 
ATOM     13  O   UNL     1      -7.467   4.221   2.443  0.00  0.00    -0.126 OA
ATOM     14  O   UNL     1      -6.653   6.158   2.634  0.00  0.00    -0.126 OA
ENDBRANCH   5  12
BRANCH   6  15
ATOM     15  N   UNL     1      -4.808   4.045   4.535  0.00  0.00    -0.297 N 
ATOM     16  H   UNL     1      -5.770   4.529   4.758  0.00  0.00    +0.154 HD
BRANCH  15  17
ATOM     17  C   UNL     1      -4.045   3.495   5.570  0.00  0.00    +0.032 A 
ATOM     18  C   UNL     1      -3.273   2.364   5.340  0.00  0.00    +0.023 A 
ATOM     19  C   UNL     1      -2.518   1.826   6.363  0.00  0.00    +0.002 A 
ATOM     20  C   UNL     1      -2.537   2.406   7.618  0.00  0.00    +0.000 A 
ATOM     21  C   UNL     1      -3.309   3.530   7.852  0.00  0.00    +0.002 A 
ATOM     22  C   UNL     1      -4.063   4.076   6.832  0.00  0.00    +0.023 A 
ENDBRANCH  15  17
ENDBRANCH   6  15
BRANCH   1  23
ATOM     23  C   UNL     1      -0.919   2.848   0.103  0.00  0.00    +0.139 C 
BRANCH  23  28
ATOM     24  C   UNL     1       4.407   0.605   0.139  0.00  0.00    +0.044 C 
ATOM     25  C   UNL     1       3.018   1.190   0.131  0.00  0.00    -0.050 A 
ATOM     26  C   UNL     1       1.919   0.358   0.023  0.00  0.00    +0.003 A 
ATOM     27  C   UNL     1       0.645   0.895   0.015  0.00  0.00    +0.005 A 
ATOM     28  C   UNL     1       0.470   2.262   0.117  0.00  0.00    -0.030 A 
ATOM     29  C   UNL     1       1.569   3.093   0.227  0.00  0.00    +0.005 A 
ATOM     30  C   UNL     1       2.843   2.557   0.232  0.00  0.00    +0.003 A 
ENDBRANCH  23  28
ENDBRANCH   1  23
TORSDOF 5
