REMARK  Name = ZINC14475918
REMARK  8 active torsions:
REMARK  status: ('A' for Active; 'I' for Inactive)
REMARK    1  A    between atoms: C_1  and  C_2
REMARK    2  A    between atoms: C_2  and  C_3
REMARK    3  A    between atoms: C_2  and  N_4
REMARK    4  A    between atoms: N_4  and  S_5
REMARK    5  A    between atoms: S_5  and  C_8
REMARK    6  A    between atoms: C_21  and  C_24
REMARK    7  A    between atoms: C_26  and  N_31
REMARK    8  A    between atoms: C_29  and  O_30
REMARK                            x       y       z     vdW  Elec       q    Type
REMARK                         _______ _______ _______ _____ _____    ______ ____
ROOT
ATOM      1  C   UNL     1      -0.878  -3.218  -0.043  0.00  0.00    +0.106 A 
ATOM      2  C   UNL     1       0.395  -3.547  -0.471  0.00  0.00    +0.030 A 
ATOM      3  C   UNL     1       1.074  -4.587   0.130  0.00  0.00    +0.025 A 
ATOM      4  C   UNL     1       0.480  -5.302   1.168  0.00  0.00    +0.031 A 
ATOM      5  C   UNL     1      -0.788  -4.965   1.604  0.00  0.00    -0.018 A 
ATOM      6  C   UNL     1      -1.464  -3.919   0.992  0.00  0.00    +0.034 A 
ATOM      7  C   UNL     1      -1.462  -5.679   2.742  0.00  0.00    +0.049 C 
ATOM      8  C   UNL     1      -1.951  -4.628   3.726  0.00  0.00    -0.023 C 
ATOM      9  C   UNL     1      -1.145  -4.548   4.753  0.00  0.00    -0.030 C 
ATOM     10  C   UNL     1      -0.004  -5.534   4.624  0.00  0.00    +0.033 C 
ATOM     11  C   UNL     1      -0.507  -6.552   3.552  0.00  0.00    +0.029 C 
ATOM     12  C   UNL     1       0.609  -7.195   2.784  0.00  0.00    +0.108 C 
ATOM     13  N   UNL     1       1.178  -6.355   1.748  0.00  0.00    -0.336 N 
ATOM     14  H   UNL     1       2.073  -6.551   1.430  0.00  0.00    +0.147 HD
ENDROOT
BRANCH  12  15
ATOM     15  C   UNL     1       1.715  -7.539   3.748  0.00  0.00    +0.017 A 
ATOM     16  C   UNL     1       2.768  -6.663   3.933  0.00  0.00    +0.041 A 
ATOM     17  C   UNL     1       3.783  -6.978   4.818  0.00  0.00    +0.127 A 
ATOM     18  C   UNL     1       3.748  -8.170   5.518  0.00  0.00    +0.036 A 
ATOM     19  C   UNL     1       2.698  -9.049   5.336  0.00  0.00    +0.048 A 
ATOM     20  C   UNL     1       1.675  -8.732   4.454  0.00  0.00    +0.122 A 
BRANCH  17  21
ATOM     21  N   UNL     1       4.909  -6.038   5.014  0.00  0.00    +0.056 N 
ATOM     22  O   UNL     1       4.941  -4.996   4.402  0.00  0.00    -0.126 OA
ATOM     23  O   UNL     1       5.797  -6.313   5.787  0.00  0.00    -0.126 OA
ENDBRANCH  17  21
BRANCH  20  24
ATOM     24  O   UNL     1       0.638  -9.593   4.276  0.00  0.00    -0.506 OA
ATOM     25  H   UNL     1       0.781 -10.242   3.574  0.00  0.00    +0.292 HD
ENDBRANCH  20  24
ENDBRANCH  12  15
BRANCH   1  26
ATOM     26  S   UNL     1      -1.750  -1.895  -0.814  0.00  0.00    +0.059 S 
ATOM     27  O   UNL     1      -3.133  -2.137  -0.591  0.00  0.00    -0.153 OA
ATOM     28  O   UNL     1      -1.202  -1.753  -2.117  0.00  0.00    -0.153 OA
BRANCH  26  29
ATOM     29  N   UNL     1      -1.372  -0.511   0.012  0.00  0.00    -0.187 NA
ATOM     30  H   UNL     1      -2.061  -0.036   0.503  0.00  0.00    +0.148 HD
BRANCH  29  32
ATOM     31  C   UNL     1      -0.019   1.526   0.010  0.00  0.00    +0.025 C 
ATOM     32  C   UNL     1       0.002  -0.004   0.002  0.00  0.00    +0.070 C 
ATOM     33  C   UNL     1       0.742  -0.511   1.242  0.00  0.00    +0.025 C 
ENDBRANCH  29  32
ENDBRANCH  26  29
ENDBRANCH   1  26
TORSDOF 6
