REMARK  Name = ZINC05439226
REMARK  9 active torsions:
REMARK  status: ('A' for Active; 'I' for Inactive)
REMARK    1  A    between atoms: C_1  and  O_2
REMARK    2  A    between atoms: O_2  and  C_3
REMARK    3  A    between atoms: C_5  and  C_10
REMARK    4  A    between atoms: C_8  and  O_9
REMARK    5  A    between atoms: C_10  and  C_11
REMARK    6  A    between atoms: C_11  and  C_23
REMARK    7  A    between atoms: C_14  and  O_21
REMARK    8  A    between atoms: C_15  and  O_20
REMARK    9  A    between atoms: O_21  and  C_22
REMARK                            x       y       z     vdW  Elec       q    Type
REMARK                         _______ _______ _______ _____ _____    ______ ____
ROOT
ATOM      1  C   UNL     1       1.350   1.549  -0.003  0.00  0.00    +0.066 C 
ATOM      2  C   UNL     1       1.972   1.284  -1.349  0.00  0.00    -0.041 A 
ATOM      3  C   UNL     1       3.353   1.358  -1.462  0.00  0.00    +0.052 A 
ATOM      4  C   UNL     1       3.970   1.126  -2.678  0.00  0.00    +0.162 A 
ATOM      5  C   UNL     1       3.198   0.818  -3.795  0.00  0.00    +0.159 A 
ATOM      6  C   UNL     1       1.822   0.745  -3.678  0.00  0.00    +0.053 A 
ATOM      7  C   UNL     1       1.209   0.977  -2.455  0.00  0.00    -0.043 A 
ATOM      8  C   UNL     1      -0.294   0.880  -2.377  0.00  0.00    +0.016 C 
ATOM      9  C   UNL     1      -0.795   1.559  -1.102  0.00  0.00    -0.076 C 
ATOM     10  N   UNL     1      -0.026   1.035   0.042  0.00  0.00    +0.393 N 
ATOM     11  H   UNL     1      -0.472   1.332   0.917  0.00  0.00    -0.084 HD
ATOM     12  H   UNL     1      -0.007   0.009  -0.002  0.00  0.00    -0.084 HD
ENDROOT
BRANCH   1  13
ATOM     13  C   UNL     1       2.166   0.866   1.065  0.00  0.00    +0.350 C 
ATOM     14  O   UNL     1       3.069   1.458   1.606  0.00  0.00    -0.248 OA
ATOM     15  O   UNL     1       1.890  -0.400   1.413  0.00  0.00    -0.248 OA
ENDBRANCH   1  13
BRANCH   5  16
ATOM     16  O   UNL     1       3.795   0.591  -4.996  0.00  0.00    -0.503 OA
ATOM     17  H   UNL     1       3.905   1.385  -5.537  0.00  0.00    +0.292 HD
ENDBRANCH   5  16
BRANCH   4  18
ATOM     18  O   UNL     1       5.324   1.199  -2.782  0.00  0.00    -0.491 OA
ATOM     19  C   UNL     1       6.050   1.519  -1.594  0.00  0.00    +0.277 C 
ENDBRANCH   4  18
BRANCH   1  20
ATOM     20  C   UNL     1       1.336   3.056   0.260  0.00  0.00    +0.038 C 
BRANCH  20  23
ATOM     21  C   UNL     1      -1.177   3.771   2.989  0.00  0.00    +0.162 A 
ATOM     22  C   UNL     1      -0.624   3.529   1.742  0.00  0.00    +0.053 A 
ATOM     23  C   UNL     1       0.738   3.324   1.617  0.00  0.00    -0.044 A 
ATOM     24  C   UNL     1       1.552   3.371   2.733  0.00  0.00    +0.007 A 
ATOM     25  C   UNL     1       1.008   3.618   3.979  0.00  0.00    +0.049 A 
ATOM     26  C   UNL     1      -0.357   3.818   4.112  0.00  0.00    +0.158 A 
BRANCH  21  28
ATOM     27  C   UNL     1      -3.296   3.904   1.919  0.00  0.00    +0.277 C 
ATOM     28  O   UNL     1      -2.516   3.967   3.115  0.00  0.00    -0.491 OA
ENDBRANCH  21  28
BRANCH  26  29
ATOM     29  O   UNL     1      -0.893   4.061   5.338  0.00  0.00    -0.503 OA
ATOM     30  H   UNL     1      -0.933   4.999   5.571  0.00  0.00    +0.292 HD
ENDBRANCH  26  29
ENDBRANCH  20  23
ENDBRANCH   1  20
TORSDOF 7
