REMARK  Name = ZINC20491799
REMARK  4 active torsions:
REMARK  status: ('A' for Active; 'I' for Inactive)
REMARK    1  A    between atoms: C_5  and  C_7
REMARK    2  A    between atoms: C_7  and  N_8
REMARK    3  A    between atoms: N_8  and  S_9
REMARK    4  A    between atoms: S_9  and  C_12
REMARK                            x       y       z     vdW  Elec       q    Type
REMARK                         _______ _______ _______ _____ _____    ______ ____
ROOT
ATOM      1  S   UNL     1       2.782   5.444  -1.452  0.00  0.00    +0.060 S 
ATOM      2  O   UNL     1       3.940   5.326  -2.267  0.00  0.00    -0.153 OA
ATOM      3  O   UNL     1       1.510   5.792  -1.981  0.00  0.00    -0.153 OA
ENDROOT
BRANCH   1   4
ATOM      4  C   UNL     1       2.582   3.895  -0.636  0.00  0.00    +0.127 A 
ATOM      5  C   UNL     1       1.347   3.270  -0.638  0.00  0.00    +0.077 A 
ATOM      6  C   UNL     1       1.189   2.054   0.002  0.00  0.00    +0.144 A 
ATOM      7  C   UNL     1       2.275   1.461   0.646  0.00  0.00    +0.077 A 
ATOM      8  C   UNL     1       3.508   2.090   0.644  0.00  0.00    +0.049 A 
ATOM      9  C   UNL     1       3.659   3.308   0.003  0.00  0.00    +0.069 A 
ATOM     10 CL   UNL     1       5.204   4.099  -0.001  0.00  0.00    -0.081 Cl
ATOM     11  N   UNL     1       2.099   0.229   1.292  0.00  0.00    -0.280 N 
ATOM     12  C   UNL     1       0.998  -0.503   1.018  0.00  0.00    +0.255 C 
ATOM     13  O   UNL     1       0.811  -1.558   1.587  0.00  0.00    -0.272 OA
ATOM     14  C   UNL     1       0.002  -0.004   0.002  0.00  0.00    +0.325 C 
ATOM     15  O   UNL     1      -0.017   1.426   0.010  0.00  0.00    -0.481 OA
ATOM     16  H   UNL     1       2.853  -0.128   2.009  0.00  0.00    +0.155 HD
ENDBRANCH   1   4
BRANCH   1  17
ATOM     17  N   UNL     1       3.135   6.568  -0.288  0.00  0.00    -0.186 NA
ATOM     18  H   UNL     1       2.359   7.283   0.021  0.00  0.00    +0.148 HD
BRANCH  17  19
ATOM     19  C   UNL     1       4.385   6.469   0.471  0.00  0.00    +0.142 C 
BRANCH  19  24
ATOM     20  C   UNL     1       5.778   9.877   1.306  0.00  0.00    +0.000 A 
ATOM     21  C   UNL     1       5.122  10.162   2.489  0.00  0.00    +0.001 A 
ATOM     22  C   UNL     1       4.227   9.252   3.020  0.00  0.00    +0.020 A 
ATOM     23  C   UNL     1       3.988   8.056   2.367  0.00  0.00    +0.045 A 
ATOM     24  C   UNL     1       4.644   7.771   1.183  0.00  0.00    -0.014 A 
ATOM     25  C   UNL     1       5.543   8.680   0.655  0.00  0.00    +0.006 A 
ATOM     26 CL   UNL     1       2.865   6.912   3.033  0.00  0.00    -0.083 Cl
ENDBRANCH  19  24
ENDBRANCH  17  19
ENDBRANCH   1  17
TORSDOF 4
