REMARK  Name = ZINC36307029
REMARK  15 active torsions:
REMARK  status: ('A' for Active; 'I' for Inactive)
REMARK    1  A    between atoms: C_1  and  N_2
REMARK    2  A    between atoms: C_3  and  O_30
REMARK    3  A    between atoms: C_4  and  C_13
REMARK    4  A    between atoms: C_5  and  C_7
REMARK    5  A    between atoms: C_13  and  N_14
REMARK    6  A    between atoms: N_14  and  C_15
REMARK    7  A    between atoms: N_14  and  C_21
REMARK    8  A    between atoms: C_15  and  C_16
REMARK    9  A    between atoms: C_21  and  C_22
REMARK   10  A    between atoms: C_22  and  C_24
REMARK   11  A    between atoms: C_22  and  O_29
REMARK   12  A    between atoms: C_24  and  O_25
REMARK   13  A    between atoms: O_25  and  C_26
REMARK   14  A    between atoms: C_26  and  C_27
REMARK   15  A    between atoms: O_30  and  C_31
REMARK                            x       y       z     vdW  Elec       q    Type
REMARK                         _______ _______ _______ _____ _____    ______ ____
ROOT
ATOM      1  C   UNL     1       0.714   1.210   0.845  0.00  0.00    +0.176 C 
ATOM      2  N   UNL     1       0.206  -0.148   0.641  0.00  0.00    -0.235 N 
ATOM      3  C   UNL     1       0.302  -0.872  -0.504  0.00  0.00    +0.221 A 
ATOM      4  C   UNL     1      -0.290  -2.074  -0.284  0.00  0.00    +0.025 A 
ATOM      5  C   UNL     1      -0.764  -2.084   1.041  0.00  0.00    +0.098 A 
ATOM      6  N   UNL     1      -0.459  -0.930   1.594  0.00  0.00    -0.168 NA
ENDROOT
BRANCH   5   7
ATOM      7  C   UNL     1      -1.478  -3.205   1.702  0.00  0.00    +0.002 A 
ATOM      8  C   UNL     1      -2.479  -3.894   1.022  0.00  0.00    +0.010 A 
ATOM      9  C   UNL     1      -3.139  -4.936   1.642  0.00  0.00    +0.001 A 
ATOM     10  C   UNL     1      -2.808  -5.297   2.936  0.00  0.00    +0.000 A 
ATOM     11  C   UNL     1      -1.814  -4.616   3.615  0.00  0.00    +0.001 A 
ATOM     12  C   UNL     1      -1.144  -3.576   3.003  0.00  0.00    +0.010 A 
ENDBRANCH   5   7
BRANCH   4  13
ATOM     13  C   UNL     1      -0.417  -3.197  -1.282  0.00  0.00    -0.035 C 
BRANCH  13  14
ATOM     14  N   UNL     1       0.825  -3.981  -1.298  0.00  0.00    +0.389 N 
ATOM     15  H   UNL     1       1.603  -3.374  -1.511  0.00  0.00    -0.081 HD
BRANCH  14  16
ATOM     16  C   UNL     1       0.728  -5.030  -2.321  0.00  0.00    -0.003 C 
BRANCH  16  17
ATOM     17  C   UNL     1       0.515  -4.397  -3.672  0.00  0.00    +0.089 A 
ATOM     18  C   UNL     1       1.480  -4.092  -4.558  0.00  0.00    +0.042 A 
ATOM     19  C   UNL     1       0.839  -3.519  -5.681  0.00  0.00    +0.041 A 
ATOM     20  C   UNL     1      -0.479  -3.509  -5.413  0.00  0.00    +0.195 A 
ATOM     21  O   UNL     1      -0.670  -4.047  -4.197  0.00  0.00    -0.470 OA
ENDBRANCH  16  17
ENDBRANCH  14  16
BRANCH  14  22
ATOM     22  C   UNL     1       1.032  -4.598   0.019  0.00  0.00    -0.044 C 
BRANCH  22  23
ATOM     23  C   UNL     1       2.422  -5.234   0.072  0.00  0.00    +0.124 C 
BRANCH  23  24
ATOM     24  O   UNL     1       2.459  -6.371  -0.794  0.00  0.00    -0.391 OA
ATOM     25  H   UNL     1       1.821  -7.060  -0.564  0.00  0.00    +0.210 HD
ENDBRANCH  23  24
BRANCH  23  26
ATOM     26  C   UNL     1       2.728  -5.674   1.505  0.00  0.00    +0.190 C 
BRANCH  26  27
ATOM     27  O   UNL     1       4.069  -6.161   1.577  0.00  0.00    -0.365 OA
BRANCH  27  28
ATOM     28  C   UNL     1       4.458  -6.600   2.881  0.00  0.00    +0.248 C 
BRANCH  28  29
ATOM     29  C   UNL     1       5.850  -7.079   2.842  0.00  0.00    -0.077 C 
ATOM     30  C   UNL     1       6.960  -7.460   2.811  0.00  0.00    +0.006 C 
ENDBRANCH  28  29
ENDBRANCH  27  28
ENDBRANCH  26  27
ENDBRANCH  23  26
ENDBRANCH  22  23
ENDBRANCH  14  22
ENDBRANCH  13  14
ENDBRANCH   4  13
BRANCH   3  31
ATOM     31  O   UNL     1       0.884  -0.467  -1.661  0.00  0.00    -0.438 OA
BRANCH  31  32
ATOM     32  C   UNL     1       0.130   0.243  -2.540  0.00  0.00    +0.133 A 
ATOM     33  C   UNL     1      -1.159   0.628  -2.198  0.00  0.00    +0.046 A 
ATOM     34  C   UNL     1      -1.925   1.350  -3.093  0.00  0.00    +0.006 A 
ATOM     35  C   UNL     1      -1.409   1.690  -4.330  0.00  0.00    +0.038 A 
ATOM     36  C   UNL     1      -0.123   1.308  -4.675  0.00  0.00    +0.127 A 
ATOM     37  C   UNL     1       0.649   0.590  -3.779  0.00  0.00    +0.084 A 
ATOM     38  F   UNL     1       0.379   1.641  -5.884  0.00  0.00    -0.205 F 
ENDBRANCH  31  32
ENDBRANCH   3  31
TORSDOF 14
