REMARK  Name = ZINC58997068
REMARK  7 active torsions:
REMARK  status: ('A' for Active; 'I' for Inactive)
REMARK    1  A    between atoms: C_4  and  O_28
REMARK    2  A    between atoms: C_5  and  C_7
REMARK    3  A    between atoms: N_8  and  N_9
REMARK    4  A    between atoms: C_12  and  S_15
REMARK    5  A    between atoms: S_15  and  C_16
REMARK    6  A    between atoms: C_16  and  C_17
REMARK    7  A    between atoms: N_19  and  C_20
REMARK                            x       y       z     vdW  Elec       q    Type
REMARK                         _______ _______ _______ _____ _____    ______ ____
ROOT
ATOM      1  N   UNL     1       2.414  -4.183   0.018  0.00  0.00    -0.205 N 
ATOM      2  C   UNL     1       3.624  -4.853  -0.008  0.00  0.00    +0.232 A 
ATOM      3  N   UNL     1       4.817  -4.295  -0.019  0.00  0.00    -0.186 NA
ATOM      4  C   UNL     1       5.757  -5.246  -0.044  0.00  0.00    +0.211 A 
ATOM      5  N   UNL     1       5.175  -6.421  -0.048  0.00  0.00    -0.144 NA
ATOM      6  N   UNL     1       3.790  -6.192  -0.019  0.00  0.00    -0.245 N 
ATOM      7  H   UNL     1       1.583  -4.684   0.030  0.00  0.00    +0.177 HD
ATOM      8  H   UNL     1       3.090  -6.864  -0.011  0.00  0.00    +0.192 HD
ENDROOT
BRANCH   1  10
ATOM      9  C   UNL     1       1.253  -2.154   0.052  0.00  0.00    +0.142 C 
ATOM     10  N   UNL     1       2.389  -2.783   0.028  0.00  0.00    -0.187 NA
BRANCH   9  15
ATOM     11  C   UNL     1      -0.012   1.378   0.096  0.00  0.00    +0.001 A 
ATOM     12  C   UNL     1       1.174   2.092   0.080  0.00  0.00    +0.004 A 
ATOM     13  C   UNL     1       2.387   1.431   0.055  0.00  0.00    +0.046 A 
ATOM     14  C   UNL     1       2.424   0.046   0.046  0.00  0.00    +0.125 A 
ATOM     15  C   UNL     1       1.226  -0.681   0.062  0.00  0.00    +0.036 A 
ATOM     16  C   UNL     1       0.006  -0.001   0.088  0.00  0.00    +0.013 A 
BRANCH  14  17
ATOM     17  O   UNL     1       3.616  -0.605   0.020  0.00  0.00    -0.506 OA
ATOM     18  H   UNL     1       3.977  -0.798   0.896  0.00  0.00    +0.292 HD
ENDBRANCH  14  17
ENDBRANCH   9  15
ENDBRANCH   1  10
BRANCH   4  19
ATOM     19  S   UNL     1       7.496  -4.965  -0.068  0.00  0.00    -0.075 S 
BRANCH  19  20
ATOM     20  C   UNL     1       8.210  -6.632  -0.096  0.00  0.00    +0.173 C 
BRANCH  20  21
ATOM     21  C   UNL     1       9.713  -6.535  -0.118  0.00  0.00    +0.228 C 
ATOM     22  O   UNL     1      10.251  -5.447  -0.115  0.00  0.00    -0.275 OA
ATOM     23  N   UNL     1      10.461  -7.656  -0.142  0.00  0.00    -0.284 N 
ATOM     24  H   UNL     1      10.035  -8.525  -0.079  0.00  0.00    +0.155 HD
BRANCH  23  25
ATOM     25  C   UNL     1      11.854  -7.566  -0.257  0.00  0.00    +0.052 A 
ATOM     26  C   UNL     1      12.535  -6.514   0.340  0.00  0.00    +0.026 A 
ATOM     27  C   UNL     1      13.909  -6.428   0.225  0.00  0.00    +0.022 A 
ATOM     28  C   UNL     1      14.607  -7.389  -0.485  0.00  0.00    +0.042 A 
ATOM     29  C   UNL     1      13.931  -8.439  -1.081  0.00  0.00    +0.041 A 
ATOM     30  C   UNL     1      12.557  -8.534  -0.964  0.00  0.00    +0.064 A 
ATOM     31 CL   UNL     1      11.711  -9.855  -1.706  0.00  0.00    -0.082 Cl
ATOM     32 CL   UNL     1      16.333  -7.277  -0.628  0.00  0.00    -0.083 Cl
ENDBRANCH  23  25
ENDBRANCH  20  21
ENDBRANCH  19  20
ENDBRANCH   4  19
TORSDOF 7
