REMARK  Name = ZINC39912114
REMARK  10 active torsions:
REMARK  status: ('A' for Active; 'I' for Inactive)
REMARK    1  A    between atoms: C_1  and  C_2
REMARK    2  A    between atoms: C_4  and  C_33
REMARK    3  A    between atoms: C_5  and  O_32
REMARK    4  A    between atoms: C_6  and  C_8
REMARK    5  A    between atoms: N_16  and  C_29
REMARK    6  A    between atoms: C_17  and  C_19
REMARK    7  A    between atoms: C_21  and  O_27
REMARK    8  A    between atoms: C_22  and  O_26
REMARK    9  A    between atoms: O_27  and  C_28
REMARK   10  A    between atoms: C_29  and  C_30
REMARK                            x       y       z     vdW  Elec       q    Type
REMARK                         _______ _______ _______ _____ _____    ______ ____
ROOT
ATOM      1  C   UNL     1      -0.308  -2.450   2.467  0.00  0.00    +0.102 A 
ATOM      2  C   UNL     1       0.003  -2.094   3.784  0.00  0.00    +0.035 A 
ATOM      3  C   UNL     1       0.211  -3.283   4.457  0.00  0.00    +0.126 A 
ATOM      4  N   UNL     1       0.021  -4.276   3.539  0.00  0.00    -0.272 N 
ATOM      5  H   UNL     1       0.100  -5.226   3.721  0.00  0.00    +0.189 HD
ATOM      6  N   UNL     1      -0.283  -3.767   2.398  0.00  0.00    -0.173 NA
ATOM      7  C   UNL     1       0.543  -2.977   5.853  0.00  0.00    +0.266 C 
ATOM      8  O   UNL     1       0.783  -3.809   6.707  0.00  0.00    -0.268 OA
ATOM      9  N   UNL     1       0.545  -1.647   6.053  0.00  0.00    -0.281 N 
ATOM     10  C   UNL     1       0.209  -0.989   4.784  0.00  0.00    +0.142 C 
ENDROOT
BRANCH   1  16
ATOM     11  C   UNL     1      -1.147   2.189   0.826  0.00  0.00    +0.044 C 
ATOM     12  C   UNL     1      -1.020   0.712   0.561  0.00  0.00    -0.049 A 
ATOM     13  C   UNL     1      -1.191   0.225  -0.723  0.00  0.00    +0.010 A 
ATOM     14  C   UNL     1      -1.076  -1.129  -0.976  0.00  0.00    -0.008 A 
ATOM     15  C   UNL     1      -0.789  -2.007   0.057  0.00  0.00    +0.129 A 
ATOM     16  C   UNL     1      -0.615  -1.518   1.355  0.00  0.00    +0.044 A 
ATOM     17  C   UNL     1      -0.727  -0.151   1.598  0.00  0.00    +0.017 A 
ATOM     18  C   UNL     1      -1.264  -1.651  -2.377  0.00  0.00    +0.047 C 
BRANCH  15  19
ATOM     19  O   UNL     1      -0.676  -3.338  -0.191  0.00  0.00    -0.506 OA
ATOM     20  H   UNL     1       0.220  -3.622  -0.416  0.00  0.00    +0.292 HD
ENDBRANCH  15  19
ENDBRANCH   1  16
BRANCH  10  21
ATOM     21  C   UNL     1       1.343  -0.098   4.346  0.00  0.00    -0.018 A 
ATOM     22  C   UNL     1       2.646  -0.555   4.416  0.00  0.00    +0.055 A 
ATOM     23  C   UNL     1       3.690   0.262   4.014  0.00  0.00    +0.163 A 
ATOM     24  C   UNL     1       3.424   1.543   3.540  0.00  0.00    +0.173 A 
ATOM     25  C   UNL     1       2.116   1.995   3.472  0.00  0.00    +0.063 A 
ATOM     26  C   UNL     1       1.078   1.172   3.870  0.00  0.00    +0.025 A 
ATOM     27 BR   UNL     1       1.749   3.735   2.828  0.00  0.00    -0.046 Br
BRANCH  24  28
ATOM     28  O   UNL     1       4.446   2.349   3.145  0.00  0.00    -0.503 OA
ATOM     29  H   UNL     1       4.674   2.265   2.209  0.00  0.00    +0.292 HD
ENDBRANCH  24  28
BRANCH  23  30
ATOM     30  O   UNL     1       4.972  -0.186   4.084  0.00  0.00    -0.491 OA
ATOM     31  C   UNL     1       5.170  -1.515   4.570  0.00  0.00    +0.277 C 
ENDBRANCH  23  30
ENDBRANCH  10  21
BRANCH   9  32
ATOM     32  C   UNL     1       0.833  -0.971   7.321  0.00  0.00    +0.135 C 
BRANCH  32  33
ATOM     33  C   UNL     1       2.311  -0.689   7.416  0.00  0.00    -0.016 C 
ATOM     34  C   UNL     1       2.732   0.532   7.630  0.00  0.00    +0.005 C 
ENDBRANCH  32  33
ENDBRANCH   9  32
TORSDOF 7
