REMARK  Name = ZINC39664594
REMARK  8 active torsions:
REMARK  status: ('A' for Active; 'I' for Inactive)
REMARK    1  A    between atoms: C_1  and  N_2
REMARK    2  A    between atoms: N_2  and  C_3
REMARK    3  A    between atoms: N_2  and  C_4
REMARK    4  A    between atoms: C_4  and  C_5
REMARK    5  A    between atoms: C_5  and  C_7
REMARK    6  A    between atoms: C_5  and  N_13
REMARK    7  A    between atoms: C_14  and  C_16
REMARK    8  A    between atoms: C_27  and  C_29
REMARK                            x       y       z     vdW  Elec       q    Type
REMARK                         _______ _______ _______ _____ _____    ______ ____
ROOT
ATOM      1  C   UNL     1      -4.660  -0.364   2.340  0.00  0.00    +0.100 C 
ATOM      2  C   UNL     1      -4.791  -0.144   3.864  0.00  0.00    +0.121 C 
ATOM      3  N   UNL     1      -5.293   1.244   3.999  0.00  0.00    -0.296 N 
ATOM      4  C   UNL     1      -6.274   1.391   2.897  0.00  0.00    +0.115 C 
ATOM      5  C   UNL     1      -5.637   0.643   1.710  0.00  0.00    -0.004 C 
ATOM      6  C   UNL     1      -4.883   1.621   0.814  0.00  0.00    -0.010 C 
ATOM      7  C   UNL     1      -5.883   2.576   0.155  0.00  0.00    -0.082 C 
ATOM      8  N   UNL     1      -6.850   1.805  -0.635  0.00  0.00    +0.379 N 
ATOM      9  C   UNL     1      -7.635   0.933   0.247  0.00  0.00    -0.082 C 
ATOM     10  C   UNL     1      -6.710  -0.091   0.911  0.00  0.00    -0.010 C 
ATOM     11  C   UNL     1      -4.939   2.165   4.918  0.00  0.00    +0.247 C 
ATOM     12  O   UNL     1      -4.036   1.929   5.697  0.00  0.00    -0.270 OA
ATOM     13  H   UNL     1      -7.470   2.439  -1.117  0.00  0.00    -0.086 HD
ATOM     14  H   UNL     1      -6.357   1.241  -1.311  0.00  0.00    -0.086 HD
ENDROOT
BRANCH  11  15
ATOM     15  C   UNL     1      -5.646   3.461   4.976  0.00  0.00    +0.037 A 
ATOM     16  C   UNL     1      -6.912   3.593   4.376  0.00  0.00    +0.013 A 
ATOM     17  C   UNL     1      -7.581   4.772   4.417  0.00  0.00    +0.009 A 
ATOM     18  C   UNL     1      -7.011   5.884   5.064  0.00  0.00    -0.018 A 
ATOM     19  C   UNL     1      -7.685   7.115   5.119  0.00  0.00    +0.008 A 
ATOM     20  C   UNL     1      -7.108   8.173   5.753  0.00  0.00    +0.001 A 
ATOM     21  C   UNL     1      -5.855   8.055   6.351  0.00  0.00    +0.001 A 
ATOM     22  C   UNL     1      -5.171   6.879   6.318  0.00  0.00    +0.008 A 
ATOM     23  C   UNL     1      -5.736   5.763   5.673  0.00  0.00    -0.017 A 
ATOM     24  C   UNL     1      -5.061   4.534   5.626  0.00  0.00    +0.021 A 
ENDBRANCH  11  15
BRANCH   1  26
ATOM     25  N   UNL     1      -2.620   1.036   2.308  0.00  0.00    -0.310 N 
ATOM     26  C   UNL     1      -3.250  -0.080   1.888  0.00  0.00    +0.219 C 
ATOM     27  O   UNL     1      -2.683  -0.855   1.148  0.00  0.00    -0.275 OA
ATOM     28  H   UNL     1      -3.044   1.616   2.958  0.00  0.00    +0.149 HD
BRANCH  25  29
ATOM     29  C   UNL     1      -1.295   1.371   1.780  0.00  0.00    +0.087 C 
BRANCH  29  30
ATOM     30  C   UNL     1      -1.316   2.771   1.223  0.00  0.00    -0.029 A 
ATOM     31  C   UNL     1      -2.001   3.770   1.889  0.00  0.00    +0.005 A 
ATOM     32  C   UNL     1      -2.019   5.054   1.378  0.00  0.00    +0.000 A 
ATOM     33  C   UNL     1      -1.353   5.339   0.201  0.00  0.00    +0.000 A 
ATOM     34  C   UNL     1      -0.667   4.340  -0.465  0.00  0.00    +0.000 A 
ATOM     35  C   UNL     1      -0.645   3.057   0.048  0.00  0.00    +0.005 A 
ENDBRANCH  29  30
BRANCH  29  36
ATOM     36  C   UNL     1      -0.262   1.284   2.905  0.00  0.00    -0.052 C 
BRANCH  36  38
ATOM     37  C   UNL     1       0.184  -1.030   2.457  0.00  0.00    -0.097 C 
ATOM     38  N   UNL     1      -0.268  -0.070   3.473  0.00  0.00    +0.377 N 
ATOM     39  C   UNL     1       0.635  -0.120   4.630  0.00  0.00    -0.097 C 
ATOM     40  H   UNL     1      -1.204  -0.307   3.766  0.00  0.00    -0.083 HD
ENDBRANCH  36  38
ENDBRANCH  29  36
ENDBRANCH  25  29
ENDBRANCH   1  26
TORSDOF 6
