REMARK  Name = ZINC38936146
REMARK  6 active torsions:
REMARK  status: ('A' for Active; 'I' for Inactive)
REMARK    1  A    between atoms: C_1  and  O_2
REMARK    2  A    between atoms: O_2  and  C_3
REMARK    3  A    between atoms: N_11  and  C_12
REMARK    4  A    between atoms: C_12  and  C_14
REMARK    5  A    between atoms: C_14  and  S_15
REMARK    6  A    between atoms: S_15  and  C_16
REMARK                            x       y       z     vdW  Elec       q    Type
REMARK                         _______ _______ _______ _____ _____    ______ ____
ROOT
ATOM      1  C   UNL     1       2.856  -6.204   4.640  0.00  0.00    +0.248 C 
ATOM      2  O   UNL     1       2.274  -6.569   3.637  0.00  0.00    -0.273 OA
ENDROOT
BRANCH   1  11
ATOM      3  C   UNL     1       0.626  -0.619   1.042  0.00  0.00    +0.121 A 
ATOM      4  C   UNL     1       1.206   0.133   2.057  0.00  0.00    +0.048 A 
ATOM      5  C   UNL     1       1.841  -0.473   3.116  0.00  0.00    +0.030 A 
ATOM      6  C   UNL     1       1.919  -1.870   3.198  0.00  0.00    +0.055 A 
ATOM      7  C   UNL     1       1.326  -2.606   2.162  0.00  0.00    +0.042 A 
ATOM      8  C   UNL     1       0.687  -2.004   1.105  0.00  0.00    +0.062 A 
ATOM      9  S   UNL     1       1.638  -4.288   2.633  0.00  0.00    -0.052 S 
ATOM     10  C   UNL     1       2.472  -4.007   4.064  0.00  0.00    +0.164 A 
ATOM     11  N   UNL     1       2.983  -4.908   4.901  0.00  0.00    -0.156 NA
ATOM     12  N   UNL     1       2.508  -2.655   4.174  0.00  0.00    -0.335 N 
ATOM     13  H   UNL     1       2.946  -2.240   4.934  0.00  0.00    +0.168 HD
BRANCH   3  15
ATOM     14  C   UNL     1      -0.017   1.425   0.010  0.00  0.00    +0.277 C 
ATOM     15  O   UNL     1       0.002  -0.004   0.002  0.00  0.00    -0.495 OA
ENDBRANCH   3  15
ENDBRANCH   1  11
BRANCH   1  16
ATOM     16  C   UNL     1       3.434  -7.224   5.588  0.00  0.00    +0.169 C 
BRANCH  16  17
ATOM     17  S   UNL     1       3.099  -8.892   4.959  0.00  0.00    -0.118 S 
BRANCH  17  18
ATOM     18  C   UNL     1       3.849  -9.986   6.197  0.00  0.00    +0.193 C 
ATOM     19  N   UNL     1       5.275  -9.683   6.375  0.00  0.00    -0.323 N 
ATOM     20  C   UNL     1       5.690  -9.255   7.636  0.00  0.00    +0.042 A 
ATOM     21  C   UNL     1       7.008  -8.921   7.993  0.00  0.00    +0.024 A 
ATOM     22  C   UNL     1       7.317  -8.508   9.268  0.00  0.00    +0.002 A 
ATOM     23  C   UNL     1       6.341  -8.406  10.242  0.00  0.00    +0.001 A 
ATOM     24  C   UNL     1       5.034  -8.729   9.918  0.00  0.00    +0.016 A 
ATOM     25  C   UNL     1       4.726  -9.142   8.642  0.00  0.00    +0.031 A 
ATOM     26  S   UNL     1       3.195  -9.630   7.877  0.00  0.00    -0.090 S 
ATOM     27  H   UNL     1       5.905  -9.777   5.644  0.00  0.00    +0.148 HD
ENDBRANCH  17  18
ENDBRANCH  16  17
ENDBRANCH   1  16
TORSDOF 5
