REMARK  Name = ZINC40385597
REMARK  5 active torsions:
REMARK  status: ('A' for Active; 'I' for Inactive)
REMARK    1  A    between atoms: C_1  and  C_2
REMARK    2  A    between atoms: C_17  and  C_21
REMARK    3  A    between atoms: C_18  and  N_20
REMARK    4  A    between atoms: C_21  and  N_23
REMARK    5  A    between atoms: N_23  and  C_24
REMARK                            x       y       z     vdW  Elec       q    Type
REMARK                         _______ _______ _______ _____ _____    ______ ____
ROOT
ATOM      1  C   UNL     1       0.061  -3.564   0.927  0.00  0.00    +0.029 C 
ATOM      2  C   UNL     1       1.223  -2.587   0.737  0.00  0.00    +0.083 C 
ATOM      3  C   UNL     1       1.471  -2.338  -0.759  0.00  0.00    +0.059 C 
ATOM      4  C   UNL     1       1.242  -0.855  -0.941  0.00  0.00    -0.024 A 
ATOM      5  C   UNL     1       1.320  -0.057  -2.067  0.00  0.00    +0.005 A 
ATOM      6  C   UNL     1       1.060   1.298  -1.978  0.00  0.00    +0.000 A 
ATOM      7  C   UNL     1       0.722   1.854  -0.757  0.00  0.00    +0.002 A 
ATOM      8  C   UNL     1       0.643   1.063   0.368  0.00  0.00    +0.024 A 
ATOM      9  C   UNL     1       0.903  -0.307   0.286  0.00  0.00    +0.040 A 
ATOM     10  N   UNL     1       0.880  -1.276   1.295  0.00  0.00    -0.268 N 
ATOM     11  C   UNL     1       0.582  -1.037   2.609  0.00  0.00    +0.205 A 
ATOM     12  N   UNL     1       0.714  -2.046   3.512  0.00  0.00    -0.294 N 
ATOM     13  H   UNL     1       1.018  -2.920   3.218  0.00  0.00    +0.172 HD
ATOM     14  C   UNL     1       0.427  -1.838   4.814  0.00  0.00    +0.264 A 
ATOM     15  O   UNL     1       0.544  -2.737   5.628  0.00  0.00    -0.267 OA
ATOM     16  C   UNL     1      -0.014  -0.551   5.214  0.00  0.00    +0.107 A 
ATOM     17  C   UNL     1      -0.130   0.450   4.230  0.00  0.00    +0.135 A 
ATOM     18  N   UNL     1       0.178   0.166   2.965  0.00  0.00    -0.200 NA
ENDROOT
BRANCH  17  19
ATOM     19  N   UNL     1      -0.553   1.711   4.574  0.00  0.00    -0.342 N 
ATOM     20  H   UNL     1      -0.702   1.936   5.505  0.00  0.00    +0.144 HD
ATOM     21  H   UNL     1      -0.704   2.377   3.884  0.00  0.00    +0.144 HD
ENDBRANCH  17  19
BRANCH  16  22
ATOM     22  C   UNL     1      -0.339  -0.271   6.612  0.00  0.00    +0.092 C 
ATOM     23  S   UNL     1       0.899   0.173   7.707  0.00  0.00    -0.034 S 
BRANCH  22  24
ATOM     24  N   UNL     1      -1.615  -0.363   7.039  0.00  0.00    -0.308 N 
ATOM     25  H   UNL     1      -2.325  -0.554   6.406  0.00  0.00    +0.153 HD
BRANCH  24  26
ATOM     26  C   UNL     1      -1.914  -0.182   8.392  0.00  0.00    +0.032 A 
ATOM     27  C   UNL     1      -1.358   0.881   9.092  0.00  0.00    +0.023 A 
ATOM     28  C   UNL     1      -1.655   1.057  10.429  0.00  0.00    +0.002 A 
ATOM     29  C   UNL     1      -2.506   0.176  11.072  0.00  0.00    +0.000 A 
ATOM     30  C   UNL     1      -3.061  -0.884  10.378  0.00  0.00    +0.002 A 
ATOM     31  C   UNL     1      -2.772  -1.062   9.039  0.00  0.00    +0.023 A 
ENDBRANCH  24  26
ENDBRANCH  22  24
ENDBRANCH  16  22
TORSDOF 4
