REMARK  Name = ZINC36704271
REMARK  11 active torsions:
REMARK  status: ('A' for Active; 'I' for Inactive)
REMARK    1  A    between atoms: C_1  and  C_2
REMARK    2  A    between atoms: C_2  and  O_3
REMARK    3  A    between atoms: O_3  and  C_4
REMARK    4  A    between atoms: N_13  and  C_14
REMARK    5  A    between atoms: C_14  and  C_15
REMARK    6  A    between atoms: C_15  and  N_16
REMARK    7  A    between atoms: N_16  and  C_17
REMARK    8  A    between atoms: N_16  and  C_18
REMARK    9  A    between atoms: C_19  and  C_21
REMARK   10  A    between atoms: N_24  and  S_27
REMARK   11  A    between atoms: S_27  and  C_30
REMARK                            x       y       z     vdW  Elec       q    Type
REMARK                         _______ _______ _______ _____ _____    ______ ____
ROOT
ATOM      1  C   UNL     1       2.245  -1.983  -0.629  0.00  0.00    +0.122 A 
ATOM      2  C   UNL     1       2.050  -2.893   0.406  0.00  0.00    +0.048 A 
ATOM      3  C   UNL     1       2.034  -4.243   0.178  0.00  0.00    +0.032 A 
ATOM      4  C   UNL     1       2.216  -4.759  -1.126  0.00  0.00    +0.081 A 
ATOM      5  C   UNL     1       2.412  -3.809  -2.154  0.00  0.00    +0.044 A 
ATOM      6  C   UNL     1       2.422  -2.456  -1.921  0.00  0.00    +0.063 A 
ATOM      7  S   UNL     1       2.596  -4.838  -3.591  0.00  0.00    -0.052 S 
ATOM      8  C   UNL     1       2.407  -6.412  -2.766  0.00  0.00    +0.168 A 
ATOM      9  N   UNL     1       2.227  -6.054  -1.516  0.00  0.00    -0.224 NA
ATOM     10  N   UNL     1       2.443  -7.687  -3.308  0.00  0.00    -0.252 N 
ATOM     11  C   UNL     1       2.779  -7.860  -4.601  0.00  0.00    +0.224 C 
ATOM     12  O   UNL     1       2.707  -8.962  -5.104  0.00  0.00    -0.275 OA
ENDROOT
BRANCH  11  13
ATOM     13  C   UNL     1       3.243  -6.686  -5.423  0.00  0.00    +0.078 C 
ATOM     14  C   UNL     1       2.030  -5.966  -6.016  0.00  0.00    +0.030 C 
ATOM     15  C   UNL     1       2.503  -4.753  -6.822  0.00  0.00    +0.110 C 
ATOM     16  N   UNL     1       3.486  -5.201  -7.819  0.00  0.00    -0.176 NA
ATOM     17  C   UNL     1       4.646  -5.981  -7.366  0.00  0.00    +0.110 C 
ATOM     18  C   UNL     1       4.148  -7.180  -6.554  0.00  0.00    +0.030 C 
BRANCH  16  19
ATOM     19  S   UNL     1       3.288  -4.836  -9.422  0.00  0.00    +0.067 S 
ATOM     20  O   UNL     1       4.010  -5.817 -10.154  0.00  0.00    -0.152 OA
ATOM     21  O   UNL     1       1.899  -4.608  -9.618  0.00  0.00    -0.152 OA
BRANCH  19  22
ATOM     22  C   UNL     1       4.096  -3.297  -9.709  0.00  0.00    +0.143 A 
ATOM     23  C   UNL     1       5.379  -3.063 -10.080  0.00  0.00    +0.036 A 
ATOM     24  C   UNL     1       5.800  -1.757 -10.249  0.00  0.00    +0.010 A 
ATOM     25  C   UNL     1       4.918  -0.750 -10.040  0.00  0.00    +0.047 A 
ATOM     26  S   UNL     1       3.437  -1.642  -9.595  0.00  0.00    -0.077 S 
ENDBRANCH  19  22
ENDBRANCH  16  19
ENDBRANCH  11  13
BRANCH   1  27
ATOM     27  O   UNL     1       2.257  -0.647  -0.378  0.00  0.00    -0.492 OA
BRANCH  27  29
ATOM     28  C   UNL     1       2.113   1.287   1.064  0.00  0.00    +0.048 C 
ATOM     29  C   UNL     1       2.069  -0.240   0.979  0.00  0.00    +0.225 C 
ENDBRANCH  27  29
ENDBRANCH   1  27
BRANCH  10  30
ATOM     30  C   UNL     1       2.115  -8.847  -2.474  0.00  0.00    +0.097 C 
BRANCH  30  31
ATOM     31  C   UNL     1       0.601  -9.072  -2.487  0.00  0.00    -0.060 C 
BRANCH  31  32
ATOM     32  N   UNL     1       0.272 -10.234  -1.651  0.00  0.00    +0.377 N 
ATOM     33  C   UNL     1       0.610  -9.943  -0.252  0.00  0.00    -0.097 C 
ATOM     34  C   UNL     1      -1.164 -10.523  -1.758  0.00  0.00    -0.097 C 
ATOM     35  H   UNL     1       0.801 -11.034  -1.966  0.00  0.00    -0.083 HD
ENDBRANCH  31  32
ENDBRANCH  30  31
ENDBRANCH  10  30
TORSDOF 8
