REMARK  Name = ZINC63295087
REMARK  7 active torsions:
REMARK  status: ('A' for Active; 'I' for Inactive)
REMARK    1  A    between atoms: C_6  and  C_11
REMARK    2  A    between atoms: C_17  and  C_20
REMARK    3  A    between atoms: N_22  and  C_23
REMARK    4  A    between atoms: C_23  and  C_24
REMARK    5  A    between atoms: C_24  and  C_25
REMARK    6  A    between atoms: C_28  and  O_32
REMARK    7  A    between atoms: C_29  and  O_31
REMARK                            x       y       z     vdW  Elec       q    Type
REMARK                         _______ _______ _______ _____ _____    ______ ____
ROOT
ATOM      1  C   UNL     1       3.631  -2.749  -1.285  0.00  0.00    +0.242 C 
ATOM      2  O   UNL     1       4.291  -2.141  -2.101  0.00  0.00    -0.273 OA
ATOM      3  N   UNL     1       3.335  -4.048  -1.491  0.00  0.00    -0.299 N 
ATOM      4  C   UNL     1       2.532  -4.796  -0.514  0.00  0.00    +0.108 C 
ATOM      5  C   UNL     1       1.346  -5.440  -1.241  0.00  0.00    +0.020 C 
ATOM      6  C   UNL     1       1.865  -6.284  -2.407  0.00  0.00    +0.016 C 
ATOM      7  C   UNL     1       2.609  -5.386  -3.398  0.00  0.00    +0.092 C 
ATOM      8  C   UNL     1       3.804  -4.740  -2.699  0.00  0.00    +0.120 C 
ENDROOT
BRANCH   1  14
ATOM      9  C   UNL     1      -0.016   1.348   0.009  0.00  0.00    +0.001 A 
ATOM     10  C   UNL     1       1.166   2.101   0.002  0.00  0.00    +0.002 A 
ATOM     11  C   UNL     1       2.391   1.535  -0.013  0.00  0.00    +0.026 A 
ATOM     12  C   UNL     1       2.529   0.120  -0.022  0.00  0.00    +0.043 A 
ATOM     13  N   UNL     1       3.587  -0.654  -0.037  0.00  0.00    -0.370 N 
ATOM     14  C   UNL     1       3.143  -2.053  -0.041  0.00  0.00    +0.190 C 
ATOM     15  C   UNL     1       1.631  -2.008  -0.025  0.00  0.00    +0.016 C 
ATOM     16  C   UNL     1       1.295  -0.698  -0.014  0.00  0.00    -0.004 A 
ATOM     17  C   UNL     1       0.002  -0.004   0.002  0.00  0.00    +0.010 A 
ATOM     18  H   UNL     1       4.509  -0.353  -0.045  0.00  0.00    +0.161 HD
ENDBRANCH   1  14
BRANCH   7  19
ATOM     19  C   UNL     1       3.091  -6.213  -4.562  0.00  0.00    +0.218 C 
ATOM     20  O   UNL     1       4.277  -6.279  -4.809  0.00  0.00    -0.275 OA
ATOM     21  N   UNL     1       2.205  -6.878  -5.328  0.00  0.00    -0.315 N 
ATOM     22  H   UNL     1       1.256  -6.825  -5.131  0.00  0.00    +0.149 HD
BRANCH  21  23
ATOM     23  C   UNL     1       2.673  -7.682  -6.460  0.00  0.00    +0.109 C 
BRANCH  23  24
ATOM     24  C   UNL     1       1.474  -8.328  -7.158  0.00  0.00    +0.054 C 
BRANCH  24  25
ATOM     25  C   UNL     1       1.956  -9.155  -8.322  0.00  0.00    -0.042 A 
ATOM     26  C   UNL     1       2.086  -8.577  -9.572  0.00  0.00    +0.007 A 
ATOM     27  C   UNL     1       2.528  -9.331 -10.643  0.00  0.00    +0.049 A 
ATOM     28  C   UNL     1       2.842 -10.669 -10.465  0.00  0.00    +0.158 A 
ATOM     29  C   UNL     1       2.712 -11.250  -9.208  0.00  0.00    +0.158 A 
ATOM     30  C   UNL     1       2.273 -10.488  -8.137  0.00  0.00    +0.052 A 
BRANCH  29  31
ATOM     31  O   UNL     1       3.019 -12.563  -9.028  0.00  0.00    -0.503 OA
ATOM     32  H   UNL     1       3.942 -12.722  -8.788  0.00  0.00    +0.292 HD
ENDBRANCH  29  31
BRANCH  28  33
ATOM     33  O   UNL     1       3.276 -11.412 -11.518  0.00  0.00    -0.503 OA
ATOM     34  H   UNL     1       4.236 -11.406 -11.634  0.00  0.00    +0.292 HD
ENDBRANCH  28  33
ENDBRANCH  24  25
ENDBRANCH  23  24
ENDBRANCH  21  23
ENDBRANCH   7  19
TORSDOF 7
