REMARK  Name = ZINC35168154
REMARK  6 active torsions:
REMARK  status: ('A' for Active; 'I' for Inactive)
REMARK    1  A    between atoms: C_4  and  C_7
REMARK    2  A    between atoms: N_17  and  C_26
REMARK    3  A    between atoms: N_19  and  C_20
REMARK    4  A    between atoms: C_26  and  C_27
REMARK    5  A    between atoms: N_29  and  C_30
REMARK    6  A    between atoms: C_30  and  C_31
REMARK                            x       y       z     vdW  Elec       q    Type
REMARK                         _______ _______ _______ _____ _____    ______ ____
ROOT
ATOM      1  C   UNL     1       3.011  -0.743  -0.047  0.00  0.00    +0.247 C 
ATOM      2  O   UNL     1       1.877  -0.312   0.029  0.00  0.00    -0.270 OA
ATOM      3  N   UNL     1       3.223  -2.070  -0.154  0.00  0.00    -0.297 N 
ATOM      4  C   UNL     1       2.092  -3.006  -0.203  0.00  0.00    +0.110 C 
ATOM      5  C   UNL     1       2.234  -3.885  -1.449  0.00  0.00    +0.054 C 
ATOM      6  C   UNL     1       3.610  -4.552  -1.446  0.00  0.00    +0.115 C 
ATOM      7  C   UNL     1       4.709  -3.490  -1.469  0.00  0.00    +0.054 C 
ATOM      8  C   UNL     1       4.588  -2.606  -0.229  0.00  0.00    +0.110 C 
ATOM      9  C   UNL     1       3.746  -5.463  -2.638  0.00  0.00    +0.241 C 
ATOM     10  O   UNL     1       3.682  -5.117  -3.798  0.00  0.00    -0.273 OA
ATOM     11  N   UNL     1       3.950  -6.719  -2.209  0.00  0.00    -0.275 N 
ATOM     12  C   UNL     1       3.968  -6.760  -0.747  0.00  0.00    +0.217 C 
ATOM     13  N   UNL     1       3.754  -5.394  -0.252  0.00  0.00    -0.300 N 
ENDROOT
BRANCH   1  17
ATOM     14  C   UNL     1       6.308   1.934   0.020  0.00  0.00    +0.000 A 
ATOM     15  C   UNL     1       6.385   0.730   0.696  0.00  0.00    +0.001 A 
ATOM     16  C   UNL     1       5.318  -0.144   0.679  0.00  0.00    +0.013 A 
ATOM     17  C   UNL     1       4.159   0.189  -0.024  0.00  0.00    +0.037 A 
ATOM     18  C   UNL     1       4.088   1.406  -0.704  0.00  0.00    +0.013 A 
ATOM     19  C   UNL     1       5.162   2.271  -0.678  0.00  0.00    +0.001 A 
ENDBRANCH   1  17
BRANCH  13  20
ATOM     20  C   UNL     1       3.699  -4.981   1.082  0.00  0.00    +0.032 A 
ATOM     21  C   UNL     1       3.563  -3.633   1.387  0.00  0.00    +0.023 A 
ATOM     22  C   UNL     1       3.509  -3.228   2.707  0.00  0.00    +0.002 A 
ATOM     23  C   UNL     1       3.590  -4.162   3.723  0.00  0.00    +0.000 A 
ATOM     24  C   UNL     1       3.725  -5.505   3.421  0.00  0.00    +0.002 A 
ATOM     25  C   UNL     1       3.774  -5.918   2.104  0.00  0.00    +0.023 A 
ENDBRANCH  13  20
BRANCH  11  26
ATOM     26  C   UNL     1       4.129  -7.883  -3.080  0.00  0.00    +0.205 C 
BRANCH  26  27
ATOM     27  C   UNL     1       5.593  -8.058  -3.390  0.00  0.00    +0.230 C 
ATOM     28  O   UNL     1       6.407  -7.287  -2.929  0.00  0.00    -0.274 OA
ATOM     29  N   UNL     1       5.998  -9.072  -4.181  0.00  0.00    -0.314 N 
ATOM     30  H   UNL     1       5.347  -9.689  -4.551  0.00  0.00    +0.149 HD
BRANCH  29  31
ATOM     31  C   UNL     1       7.422  -9.242  -4.482  0.00  0.00    +0.107 C 
BRANCH  31  32
ATOM     32  C   UNL     1       7.608 -10.457  -5.393  0.00  0.00    +0.006 C 
ATOM     33  C   UNL     1       7.199 -11.726  -4.641  0.00  0.00    +0.005 C 
ATOM     34  C   UNL     1       7.386 -12.941  -5.552  0.00  0.00    +0.000 C 
ATOM     35  C   UNL     1       8.855 -13.046  -5.968  0.00  0.00    +0.000 C 
ATOM     36  C   UNL     1       9.264 -11.778  -6.719  0.00  0.00    +0.000 C 
ATOM     37  C   UNL     1       9.077 -10.562  -5.809  0.00  0.00    +0.005 C 
ENDBRANCH  31  32
ENDBRANCH  29  31
ENDBRANCH  26  27
ENDBRANCH  11  26
TORSDOF 6
