REMARK  Name = ZINC23968303
REMARK  7 active torsions:
REMARK  status: ('A' for Active; 'I' for Inactive)
REMARK    1  A    between atoms: C_1  and  O_2
REMARK    2  A    between atoms: O_2  and  C_3
REMARK    3  A    between atoms: C_6  and  C_9
REMARK    4  A    between atoms: C_9  and  C_11
REMARK    5  A    between atoms: C_9  and  N_17
REMARK    6  A    between atoms: C_18  and  C_20
REMARK    7  A    between atoms: C_20  and  N_21
REMARK                            x       y       z     vdW  Elec       q    Type
REMARK                         _______ _______ _______ _____ _____    ______ ____
ROOT
ATOM      1  N   UNL     1       3.303   1.558   5.391  0.00  0.00    -0.303 N 
ATOM      2  C   UNL     1       2.484   1.704   4.330  0.00  0.00    +0.232 C 
ATOM      3  O   UNL     1       2.943   1.729   3.208  0.00  0.00    -0.274 OA
ATOM      4  H   UNL     1       2.886   1.535   6.409  0.00  0.00    +0.150 HD
ENDROOT
BRANCH   1   5
ATOM      5  C   UNL     1       4.748   1.429   5.188  0.00  0.00    +0.134 C 
BRANCH   5   9
ATOM      6  C   UNL     1       6.470  -0.659   8.495  0.00  0.00    +0.120 A 
ATOM      7  C   UNL     1       6.911  -0.916   7.205  0.00  0.00    +0.046 A 
ATOM      8  C   UNL     1       6.352  -0.240   6.138  0.00  0.00    +0.009 A 
ATOM      9  C   UNL     1       5.355   0.693   6.354  0.00  0.00    -0.023 A 
ATOM     10  C   UNL     1       4.918   0.956   7.640  0.00  0.00    +0.009 A 
ATOM     11  C   UNL     1       5.470   0.278   8.710  0.00  0.00    +0.046 A 
BRANCH   6  13
ATOM     12  C   UNL     1       6.515  -1.007  10.846  0.00  0.00    +0.277 C 
ATOM     13  O   UNL     1       7.018  -1.323   9.546  0.00  0.00    -0.495 OA
ENDBRANCH   6  13
ENDBRANCH   5   9
BRANCH   5  14
ATOM     14  C   UNL     1       5.364   2.801   5.084  0.00  0.00    -0.023 A 
ATOM     15  C   UNL     1       4.923   3.821   5.907  0.00  0.00    +0.006 A 
ATOM     16  C   UNL     1       5.492   5.077   5.815  0.00  0.00    +0.000 A 
ATOM     17  C   UNL     1       6.494   5.317   4.893  0.00  0.00    +0.000 A 
ATOM     18  C   UNL     1       6.931   4.298   4.067  0.00  0.00    +0.000 A 
ATOM     19  C   UNL     1       6.366   3.040   4.162  0.00  0.00    +0.006 A 
ENDBRANCH   5  14
ENDBRANCH   1   5
BRANCH   2  20
ATOM     20  C   UNL     1       0.997   1.835   4.539  0.00  0.00    +0.213 C 
BRANCH  20  21
ATOM     21  N   UNL     1       0.333   1.981   3.241  0.00  0.00    -0.215 N 
ATOM     22  C   UNL     1      -0.119   0.948   2.500  0.00  0.00    +0.251 C 
ATOM     23  O   UNL     1      -0.057  -0.233   2.770  0.00  0.00    -0.272 OA
ATOM     24  C   UNL     1      -0.719   1.573   1.264  0.00  0.00    +0.139 C 
ATOM     25  C   UNL     1      -0.013   1.086   0.008  0.00  0.00    +0.040 C 
ATOM     26  C   UNL     1      -0.748   1.591  -1.238  0.00  0.00    +0.008 C 
ATOM     27  C   UNL     1      -2.107   0.880  -1.335  0.00  0.00    +0.043 C 
ATOM     28  C   UNL     1      -2.774   0.947   0.000  0.00  0.00    -0.005 A 
ATOM     29  C   UNL     1      -2.200   1.254   1.197  0.00  0.00    -0.005 A 
ATOM     30  C   UNL     1      -3.042   1.250   2.309  0.00  0.00    +0.014 A 
ATOM     31  C   UNL     1      -4.353   0.952   2.166  0.00  0.00    +0.046 A 
ATOM     32  S   UNL     1      -4.473   0.651   0.409  0.00  0.00    -0.101 S 
ATOM     33  N   UNL     1      -0.525   3.014   1.457  0.00  0.00    -0.281 N 
ATOM     34  C   UNL     1       0.100   3.156   2.643  0.00  0.00    +0.310 C 
ATOM     35  O   UNL     1       0.415   4.230   3.116  0.00  0.00    -0.252 OA
ATOM     36  H   UNL     1      -0.874   3.723   0.693  0.00  0.00    +0.152 HD
ENDBRANCH  20  21
ENDBRANCH   2  20
TORSDOF 6
