REMARK  Name = ZINC36500728
REMARK  14 active torsions:
REMARK  status: ('A' for Active; 'I' for Inactive)
REMARK    1  A    between atoms: C_1  and  C_2
REMARK    2  A    between atoms: C_2  and  C_3
REMARK    3  A    between atoms: C_2  and  C_4
REMARK    4  A    between atoms: C_2  and  N_5
REMARK    5  A    between atoms: C_6  and  C_8
REMARK    6  A    between atoms: C_8  and  C_10
REMARK    7  A    between atoms: C_8  and  N_23
REMARK    8  A    between atoms: C_10  and  C_11
REMARK    9  A    between atoms: C_10  and  C_17
REMARK   10  A    between atoms: N_23  and  C_24
REMARK   11  A    between atoms: C_24  and  C_25
REMARK   12  A    between atoms: C_30  and  C_32
REMARK   13  A    between atoms: C_36  and  O_39
REMARK   14  A    between atoms: C_37  and  O_38
REMARK                            x       y       z     vdW  Elec       q    Type
REMARK                         _______ _______ _______ _____ _____    ______ ____
ROOT
ATOM      1  C   UNL     1       2.824  -0.786  -2.804  0.00  0.00    +0.174 C 
ENDROOT
BRANCH   1   3
ATOM      2  N   UNL     1       0.667  -1.545  -1.859  0.00  0.00    -0.309 N 
ATOM      3  C   UNL     1       1.770  -0.783  -1.726  0.00  0.00    +0.235 C 
ATOM      4  O   UNL     1       1.916  -0.094  -0.738  0.00  0.00    -0.274 OA
ATOM      5  H   UNL     1       0.583  -2.150  -2.613  0.00  0.00    +0.149 HD
BRANCH   2   7
ATOM      6  C   UNL     1      -0.985  -0.044  -0.860  0.00  0.00    +0.031 C 
ATOM      7  C   UNL     1      -0.406  -1.460  -0.866  0.00  0.00    +0.026 C 
ATOM      8  C   UNL     1       0.154  -1.788   0.520  0.00  0.00    +0.031 C 
ATOM      9  C   UNL     1      -1.508  -2.461  -1.219  0.00  0.00    +0.031 C 
ENDBRANCH   2   7
ENDBRANCH   1   3
BRANCH   1  10
ATOM     10  N   UNL     1       4.069  -0.226  -2.272  0.00  0.00    -0.278 N 
ATOM     11  C   UNL     1       5.216  -0.928  -2.362  0.00  0.00    +0.251 C 
ATOM     12  O   UNL     1       5.247  -1.962  -3.000  0.00  0.00    -0.270 OA
BRANCH  11  13
ATOM     13  C   UNL     1       6.434  -0.440  -1.686  0.00  0.00    +0.082 A 
ATOM     14  C   UNL     1       6.794   0.908  -1.774  0.00  0.00    +0.017 A 
ATOM     15  C   UNL     1       7.931   1.359  -1.141  0.00  0.00    +0.005 A 
ATOM     16  C   UNL     1       8.723   0.484  -0.416  0.00  0.00    +0.049 A 
ATOM     17  C   UNL     1       8.380  -0.854  -0.321  0.00  0.00    +0.159 A 
ATOM     18  C   UNL     1       7.231  -1.324  -0.950  0.00  0.00    +0.171 A 
BRANCH  18  19
ATOM     19  O   UNL     1       6.888  -2.634  -0.853  0.00  0.00    -0.503 OA
ATOM     20  H   UNL     1       7.261  -3.191  -1.550  0.00  0.00    +0.292 HD
ENDBRANCH  18  19
BRANCH  17  21
ATOM     21  O   UNL     1       9.163  -1.707   0.392  0.00  0.00    -0.503 OA
ATOM     22  H   UNL     1       8.916  -1.781   1.325  0.00  0.00    +0.292 HD
ENDBRANCH  17  21
ENDBRANCH  11  13
BRANCH  10  23
ATOM     23  C   UNL     1       4.066   1.097  -1.643  0.00  0.00    +0.183 C 
BRANCH  23  24
ATOM     24  C   UNL     1       4.028   2.161  -2.709  0.00  0.00    +0.122 A 
ATOM     25  C   UNL     1       2.935   2.833  -3.111  0.00  0.00    +0.046 A 
ATOM     26  C   UNL     1       3.353   3.728  -4.123  0.00  0.00    +0.041 A 
ATOM     27  C   UNL     1       4.677   3.548  -4.279  0.00  0.00    +0.195 A 
ATOM     28  O   UNL     1       5.081   2.602  -3.417  0.00  0.00    -0.466 OA
ENDBRANCH  23  24
ENDBRANCH  10  23
ENDBRANCH   1  10
BRANCH   1  29
ATOM     29  C   UNL     1       2.347   0.061  -3.985  0.00  0.00    +0.078 C 
BRANCH  29  30
ATOM     30  C   UNL     1       3.368  -0.002  -5.092  0.00  0.00    -0.038 A 
ATOM     31  C   UNL     1       4.036  -1.184  -5.350  0.00  0.00    +0.004 A 
ATOM     32  C   UNL     1       4.973  -1.241  -6.365  0.00  0.00    +0.000 A 
ATOM     33  C   UNL     1       5.240  -0.116  -7.123  0.00  0.00    +0.000 A 
ATOM     34  C   UNL     1       4.571   1.066  -6.866  0.00  0.00    +0.000 A 
ATOM     35  C   UNL     1       3.632   1.122  -5.853  0.00  0.00    +0.004 A 
ENDBRANCH  29  30
BRANCH  29  36
ATOM     36  C   UNL     1       1.030  -0.473  -4.487  0.00  0.00    -0.038 A 
ATOM     37  C   UNL     1       0.924  -1.793  -4.883  0.00  0.00    +0.004 A 
ATOM     38  C   UNL     1      -0.284  -2.282  -5.343  0.00  0.00    +0.000 A 
ATOM     39  C   UNL     1      -1.387  -1.451  -5.405  0.00  0.00    +0.000 A 
ATOM     40  C   UNL     1      -1.282  -0.131  -5.008  0.00  0.00    +0.000 A 
ATOM     41  C   UNL     1      -0.075   0.357  -4.544  0.00  0.00    +0.004 A 
ENDBRANCH  29  36
ENDBRANCH   1  29
TORSDOF 11
