REMARK  Name = ZINC36207480
REMARK  17 active torsions:
REMARK  status: ('A' for Active; 'I' for Inactive)
REMARK    1  A    between atoms: C_1  and  C_2
REMARK    2  A    between atoms: C_8  and  C_19
REMARK    3  A    between atoms: C_12  and  C_13
REMARK    4  A    between atoms: C_13  and  O_15
REMARK    5  A    between atoms: O_15  and  C_16
REMARK    6  A    between atoms: C_16  and  C_17
REMARK    7  A    between atoms: C_16  and  C_18
REMARK    8  A    between atoms: C_19  and  N_20
REMARK    9  A    between atoms: N_20  and  C_21
REMARK   10  A    between atoms: N_20  and  C_24
REMARK   11  A    between atoms: C_21  and  C_22
REMARK   12  A    between atoms: C_24  and  C_25
REMARK   13  A    between atoms: C_25  and  C_27
REMARK   14  A    between atoms: C_25  and  O_32
REMARK   15  A    between atoms: C_27  and  O_28
REMARK   16  A    between atoms: O_28  and  C_29
REMARK   17  A    between atoms: C_29  and  C_30
REMARK                            x       y       z     vdW  Elec       q    Type
REMARK                         _______ _______ _______ _____ _____    ______ ____
ROOT
ATOM      1  C   UNL     1      -0.505   0.461   1.575  0.00  0.00    +0.046 C 
ATOM      2  C   UNL     1      -0.546  -1.016   1.277  0.00  0.00    -0.015 A 
ATOM      3  C   UNL     1      -0.226  -1.481   0.001  0.00  0.00    +0.076 A 
ATOM      4  C   UNL     1       0.177  -0.715  -1.201  0.00  0.00    +0.260 A 
ATOM      5  O   UNL     1       0.270   0.499  -1.166  0.00  0.00    -0.267 OA
ATOM      6  N   UNL     1       0.439  -1.396  -2.334  0.00  0.00    -0.312 N 
ATOM      7  H   UNL     1       0.705  -0.909  -3.130  0.00  0.00    +0.170 HD
ATOM      8  C   UNL     1       0.340  -2.747  -2.384  0.00  0.00    +0.094 A 
ATOM      9  N   UNL     1      -0.013  -3.452  -1.344  0.00  0.00    -0.229 NA
ATOM     10  C   UNL     1      -0.293  -2.882  -0.179  0.00  0.00    +0.116 A 
ATOM     11  S   UNL     1      -0.793  -3.474   1.418  0.00  0.00    -0.062 S 
ATOM     12  C   UNL     1      -0.890  -1.902   2.257  0.00  0.00    +0.102 A 
ENDROOT
BRANCH  12  13
ATOM     13  C   UNL     1      -1.252  -1.630   3.649  0.00  0.00    +0.346 C 
ATOM     14  O   UNL     1      -1.271  -0.485   4.061  0.00  0.00    -0.244 OA
BRANCH  13  15
ATOM     15  O   UNL     1      -1.566  -2.649   4.476  0.00  0.00    -0.458 OA
BRANCH  15  16
ATOM     16  C   UNL     1      -1.909  -2.311   5.821  0.00  0.00    +0.171 C 
ATOM     17  C   UNL     1      -2.897  -3.342   6.370  0.00  0.00    +0.052 C 
ATOM     18  C   UNL     1      -0.646  -2.305   6.684  0.00  0.00    +0.052 C 
ENDBRANCH  15  16
ENDBRANCH  13  15
ENDBRANCH  12  13
BRANCH   8  19
ATOM     19  C   UNL     1       0.644  -3.455  -3.679  0.00  0.00    -0.003 C 
BRANCH  19  20
ATOM     20  N   UNL     1       0.329  -4.883  -3.542  0.00  0.00    +0.388 N 
ATOM     21  H   UNL     1       0.800  -5.255  -2.731  0.00  0.00    -0.081 HD
BRANCH  20  22
ATOM     22  C   UNL     1       0.780  -5.601  -4.742  0.00  0.00    -0.051 C 
BRANCH  22  23
ATOM     23  C   UNL     1       2.273  -5.450  -4.886  0.00  0.00    -0.053 C 
ATOM     24  C   UNL     1       3.036  -6.513  -4.948  0.00  0.00    +0.002 C 
ENDBRANCH  22  23
ENDBRANCH  20  22
BRANCH  20  25
ATOM     25  C   UNL     1      -1.122  -5.052  -3.387  0.00  0.00    -0.044 C 
BRANCH  25  26
ATOM     26  C   UNL     1      -1.431  -6.509  -3.037  0.00  0.00    +0.124 C 
BRANCH  26  27
ATOM     27  O   UNL     1      -1.117  -7.344  -4.153  0.00  0.00    -0.391 OA
ATOM     28  H   UNL     1      -1.613  -7.132  -4.955  0.00  0.00    +0.210 HD
ENDBRANCH  26  27
BRANCH  26  29
ATOM     29  C   UNL     1      -2.917  -6.647  -2.699  0.00  0.00    +0.189 C 
BRANCH  29  30
ATOM     30  O   UNL     1      -3.183  -7.981  -2.260  0.00  0.00    -0.373 OA
BRANCH  30  31
ATOM     31  C   UNL     1      -4.550  -8.218  -1.917  0.00  0.00    +0.186 C 
BRANCH  31  32
ATOM     32  C   UNL     1      -4.715  -9.648  -1.470  0.00  0.00    -0.007 C 
ATOM     33  C   UNL     1      -5.418  -9.922  -0.399  0.00  0.00    +0.006 C 
ENDBRANCH  31  32
ENDBRANCH  30  31
ENDBRANCH  29  30
ENDBRANCH  26  29
ENDBRANCH  25  26
ENDBRANCH  20  25
ENDBRANCH  19  20
ENDBRANCH   8  19
TORSDOF 14
