REMARK  Name = ZINC36829729
REMARK  4 active torsions:
REMARK  status: ('A' for Active; 'I' for Inactive)
REMARK    1  A    between atoms: C_1  and  C_2
REMARK    2  A    between atoms: C_7  and  C_8
REMARK    3  A    between atoms: C_8  and  C_10
REMARK    4  A    between atoms: C_8  and  N_21
REMARK                            x       y       z     vdW  Elec       q    Type
REMARK                         _______ _______ _______ _____ _____    ______ ____
ROOT
ATOM      1  C   UNL     1       0.242   0.049   2.492  0.00  0.00    -0.013 C 
ENDROOT
BRANCH   1   2
ATOM      2  C   UNL     1      -1.133   0.278   3.063  0.00  0.00    -0.056 A 
ATOM      3  C   UNL     1      -1.730  -0.700   3.837  0.00  0.00    +0.006 A 
ATOM      4  C   UNL     1      -2.992  -0.497   4.366  0.00  0.00    +0.048 A 
ATOM      5  C   UNL     1      -3.660   0.690   4.120  0.00  0.00    +0.142 A 
ATOM      6  C   UNL     1      -3.058   1.676   3.339  0.00  0.00    +0.076 A 
ATOM      7  C   UNL     1      -1.792   1.469   2.817  0.00  0.00    +0.029 A 
ATOM      8  N   UNL     1      -3.747   2.872   3.095  0.00  0.00    -0.280 N 
ATOM      9  C   UNL     1      -4.817   3.179   3.860  0.00  0.00    +0.255 C 
ATOM     10  O   UNL     1      -5.447   4.194   3.647  0.00  0.00    -0.272 OA
ATOM     11  C   UNL     1      -5.226   2.255   4.979  0.00  0.00    +0.325 C 
ATOM     12  O   UNL     1      -4.900   0.907   4.633  0.00  0.00    -0.481 OA
ATOM     13  H   UNL     1      -3.459   3.471   2.388  0.00  0.00    +0.155 HD
ENDBRANCH   1   2
BRANCH   1  20
ATOM     14  C   UNL     1      -0.312   0.880  -0.218  0.00  0.00    +0.044 C 
ATOM     15  C   UNL     1      -0.101  -0.579   0.094  0.00  0.00    -0.048 A 
ATOM     16  C   UNL     1      -0.167  -1.519  -0.918  0.00  0.00    +0.018 A 
ATOM     17  C   UNL     1       0.027  -2.858  -0.631  0.00  0.00    +0.018 A 
ATOM     18  C   UNL     1       0.287  -3.256   0.668  0.00  0.00    +0.015 A 
ATOM     19  C   UNL     1       0.354  -2.316   1.679  0.00  0.00    +0.003 A 
ATOM     20  C   UNL     1       0.165  -0.977   1.391  0.00  0.00    -0.055 A 
ATOM     21 BR   UNL     1      -0.064  -4.144  -2.014  0.00  0.00    -0.050 Br
ENDBRANCH   1  20
BRANCH   1  22
ATOM     22  N   UNL     1       1.138  -0.436   3.551  0.00  0.00    +0.385 N 
ATOM     23  H   UNL     1       2.059  -0.590   3.168  0.00  0.00    -0.089 HD
ATOM     24  H   UNL     1       1.190   0.251   4.288  0.00  0.00    -0.089 HD
ATOM     25  H   UNL     1       0.779  -1.303   3.923  0.00  0.00    -0.089 HD
ENDBRANCH   1  22
TORSDOF 3
