REMARK  Name = ZINC09542457
REMARK  11 active torsions:
REMARK  status: ('A' for Active; 'I' for Inactive)
REMARK    1  A    between atoms: C_1  and  C_2
REMARK    2  A    between atoms: C_2  and  C_3
REMARK    3  A    between atoms: C_6  and  C_9
REMARK    4  A    between atoms: C_11  and  C_26
REMARK    5  A    between atoms: C_13  and  C_16
REMARK    6  A    between atoms: C_20  and  O_23
REMARK    7  A    between atoms: C_21  and  O_22
REMARK    8  A    between atoms: O_23  and  C_24
REMARK    9  A    between atoms: C_24  and  C_25
REMARK   10  A    between atoms: C_29  and  O_33
REMARK   11  A    between atoms: O_33  and  C_34
REMARK                            x       y       z     vdW  Elec       q    Type
REMARK                         _______ _______ _______ _____ _____    ______ ____
ROOT
ATOM      1  C   UNL     1       2.055   1.387   1.340  0.00  0.00    +0.040 C 
ATOM      2  N   UNL     1       1.383   1.095   2.389  0.00  0.00    -0.299 NA
ATOM      3  C   UNL     1      -0.067   0.945   2.415  0.00  0.00    +0.081 C 
ATOM      4  C   UNL     1      -0.013   1.086   0.008  0.00  0.00    -0.028 C 
ATOM      5  C   UNL     1       1.422   1.622  -0.003  0.00  0.00    +0.044 C 
ATOM      6  N   UNL     1      -0.678   1.571   1.233  0.00  0.00    +0.401 N 
ATOM      7  H   UNL     1      -0.575   2.590   1.296  0.00  0.00    -0.081 HD
ATOM      8  H   UNL     1      -1.675   1.329   1.197  0.00  0.00    -0.081 HD
ENDROOT
BRANCH   3   9
ATOM      9  C   UNL     1      -0.612   1.601   3.657  0.00  0.00    -0.039 A 
ATOM     10  C   UNL     1       0.160   1.657   4.803  0.00  0.00    +0.007 A 
ATOM     11  C   UNL     1      -0.337   2.259   5.944  0.00  0.00    +0.047 A 
ATOM     12  C   UNL     1      -1.611   2.808   5.938  0.00  0.00    +0.134 A 
ATOM     13  C   UNL     1      -2.384   2.750   4.787  0.00  0.00    +0.060 A 
ATOM     14  C   UNL     1      -1.880   2.152   3.647  0.00  0.00    +0.022 A 
ATOM     15 BR   UNL     1      -4.121   3.497   4.775  0.00  0.00    -0.047 Br
BRANCH  12  16
ATOM     16  O   UNL     1      -2.101   3.401   7.059  0.00  0.00    -0.494 OA
ATOM     17  C   UNL     1      -1.250   3.424   8.206  0.00  0.00    +0.277 C 
ENDBRANCH  12  16
ENDBRANCH   3   9
BRANCH   1  21
ATOM     18  C   UNL     1       6.276   1.707   1.670  0.00  0.00    -0.048 A 
ATOM     19  C   UNL     1       5.520   1.393   2.785  0.00  0.00    +0.004 A 
ATOM     20  C   UNL     1       4.149   1.287   2.685  0.00  0.00    +0.010 A 
ATOM     21  C   UNL     1       3.523   1.498   1.455  0.00  0.00    -0.004 A 
ATOM     22  C   UNL     1       4.293   1.810   0.332  0.00  0.00    +0.010 A 
ATOM     23  C   UNL     1       5.663   1.918   0.447  0.00  0.00    +0.004 A 
BRANCH  18  25
ATOM     24  C   UNL     1       8.412   0.457   1.519  0.00  0.00    +0.009 C 
ATOM     25  C   UNL     1       7.774   1.821   1.787  0.00  0.00    +0.032 C 
ENDBRANCH  18  25
ENDBRANCH   1  21
BRANCH   4  26
ATOM     26  C   UNL     1      -0.753   1.591  -1.203  0.00  0.00    -0.016 A 
ATOM     27  C   UNL     1      -1.527   2.734  -1.114  0.00  0.00    +0.006 A 
ATOM     28  C   UNL     1      -2.203   3.203  -2.224  0.00  0.00    +0.004 A 
ATOM     29  C   UNL     1      -2.118   2.525  -3.427  0.00  0.00    +0.049 A 
ATOM     30  C   UNL     1      -1.350   1.376  -3.522  0.00  0.00    +0.162 A 
ATOM     31  C   UNL     1      -0.664   0.907  -2.405  0.00  0.00    +0.160 A 
BRANCH  31  32
ATOM     32  O   UNL     1       0.091  -0.220  -2.493  0.00  0.00    -0.503 OA
ATOM     33  H   UNL     1      -0.392  -1.034  -2.293  0.00  0.00    +0.292 HD
ENDBRANCH  31  32
BRANCH  30  34
ATOM     34  O   UNL     1      -1.266   0.709  -4.703  0.00  0.00    -0.489 OA
BRANCH  34  35
ATOM     35  C   UNL     1      -1.996   1.248  -5.807  0.00  0.00    +0.226 C 
ATOM     36  C   UNL     1      -1.780   0.368  -7.040  0.00  0.00    +0.048 C 
ENDBRANCH  34  35
ENDBRANCH  30  34
ENDBRANCH   4  26
TORSDOF 8
