REMARK  Name = ZINC06015056
REMARK  9 active torsions:
REMARK  status: ('A' for Active; 'I' for Inactive)
REMARK    1  A    between atoms: C_1  and  C_2
REMARK    2  A    between atoms: C_2  and  C_3
REMARK    3  A    between atoms: C_2  and  C_4
REMARK    4  A    between atoms: C_2  and  N_5
REMARK    5  A    between atoms: C_6  and  C_10
REMARK    6  A    between atoms: C_10  and  C_12
REMARK    7  A    between atoms: C_10  and  N_69
REMARK    8  A    between atoms: C_29  and  C_32
REMARK    9  A    between atoms: C_32  and  C_33
REMARK                            x       y       z     vdW  Elec       q    Type
REMARK                         _______ _______ _______ _____ _____    ______ ____
ROOT
ATOM      1  C   UNL     1      -0.665   1.854  -1.170  0.00  0.00    +0.039 C 
ENDROOT
BRANCH   1   2
ATOM      2  C   UNL     1      -0.442   3.310  -0.851  0.00  0.00    +0.011 A 
ATOM      3  C   UNL     1      -1.506   4.137  -0.688  0.00  0.00    +0.017 A 
ATOM      4  C   UNL     1      -1.257   5.544  -0.378  0.00  0.00    +0.002 A 
ATOM      5  C   UNL     1      -2.316   6.443  -0.199  0.00  0.00    +0.059 A 
ATOM      6  C   UNL     1      -2.050   7.763   0.093  0.00  0.00    +0.167 A 
ATOM      7  C   UNL     1      -0.726   8.207   0.210  0.00  0.00    +0.168 A 
ATOM      8  C   UNL     1       0.326   7.326   0.033  0.00  0.00    +0.075 A 
ATOM      9  C   UNL     1       0.073   5.992  -0.260  0.00  0.00    +0.053 A 
ATOM     10  N   UNL     1       1.111   5.099  -0.438  0.00  0.00    -0.322 N 
ATOM     11  H   UNL     1       2.055   5.418  -0.359  0.00  0.00    +0.169 HD
ATOM     12  C   UNL     1       0.870   3.806  -0.716  0.00  0.00    +0.251 A 
ATOM     13  O   UNL     1       1.811   3.044  -0.861  0.00  0.00    -0.268 OA
ATOM     14  O   UNL     1      -0.741   9.540   0.500  0.00  0.00    -0.453 OA
ATOM     15  C   UNL     1      -2.075   9.818   0.966  0.00  0.00    +0.466 C 
ATOM     16  O   UNL     1      -2.883   8.822   0.312  0.00  0.00    -0.453 OA
ENDBRANCH   1   2
BRANCH   1  22
ATOM     17  C   UNL     1      -0.157  -0.405  -0.464  0.00  0.00    -0.077 C 
ATOM     18  C   UNL     1       0.693  -1.235   0.500  0.00  0.00    -0.015 C 
ATOM     19  C   UNL     1       0.271  -0.928   1.940  0.00  0.00    -0.010 C 
ATOM     20  C   UNL     1       0.426   0.573   2.199  0.00  0.00    -0.015 C 
ATOM     21  C   UNL     1      -0.417   1.351   1.185  0.00  0.00    -0.077 C 
ATOM     22  N   UNL     1       0.056   1.029  -0.178  0.00  0.00    +0.389 N 
ATOM     23  H   UNL     1       1.060   1.236  -0.240  0.00  0.00    -0.080 HD
BRANCH  19  24
ATOM     24  C   UNL     1       1.157  -1.709   2.912  0.00  0.00    +0.038 C 
BRANCH  24  25
ATOM     25  C   UNL     1       0.911  -3.186   2.739  0.00  0.00    -0.047 A 
ATOM     26  C   UNL     1      -0.062  -3.817   3.490  0.00  0.00    +0.003 A 
ATOM     27  C   UNL     1      -0.290  -5.171   3.329  0.00  0.00    +0.000 A 
ATOM     28  C   UNL     1       0.462  -5.895   2.423  0.00  0.00    +0.000 A 
ATOM     29  C   UNL     1       1.439  -5.265   1.676  0.00  0.00    +0.000 A 
ATOM     30  C   UNL     1       1.664  -3.910   1.834  0.00  0.00    +0.003 A 
ENDBRANCH  24  25
ENDBRANCH  19  24
ENDBRANCH   1  22
BRANCH   1  32
ATOM     31  N   UNL     1      -0.839   1.249  -3.642  0.00  0.00    -0.225 N 
ATOM     32  C   UNL     1      -0.123   1.552  -2.543  0.00  0.00    +0.143 A 
ATOM     33  N   UNL     1       1.138   1.538  -2.900  0.00  0.00    -0.115 NA
ATOM     34  N   UNL     1       1.194   1.235  -4.151  0.00  0.00    -0.023 NA
ATOM     35  N   UNL     1       0.001   1.063  -4.603  0.00  0.00    -0.043 NA
BRANCH  31  37
ATOM     36  C   UNL     1      -2.926   2.476  -3.297  0.00  0.00    +0.036 C 
ATOM     37  C   UNL     1      -2.298   1.149  -3.729  0.00  0.00    +0.059 C 
ATOM     38  C   UNL     1      -2.702   0.839  -5.171  0.00  0.00    +0.036 C 
ATOM     39  C   UNL     1      -2.788   0.029  -2.810  0.00  0.00    +0.036 C 
ENDBRANCH  31  37
ENDBRANCH   1  32
TORSDOF 6
