REMARK  Name = ZINC67299245
REMARK  5 active torsions:
REMARK  status: ('A' for Active; 'I' for Inactive)
REMARK    1  A    between atoms: C_3  and  C_6
REMARK    2  A    between atoms: C_6  and  N_7
REMARK    3  A    between atoms: C_8  and  C_10
REMARK    4  A    between atoms: C_15  and  O_29
REMARK    5  A    between atoms: N_20  and  C_21
REMARK                            x       y       z     vdW  Elec       q    Type
REMARK                         _______ _______ _______ _____ _____    ______ ____
ROOT
ATOM      1  C   UNL     1       5.836   0.219   2.895  0.00  0.00    +0.097 A 
ATOM      2  C   UNL     1       7.213   0.217   3.069  0.00  0.00    +0.030 A 
ATOM      3  C   UNL     1       7.721   0.301   4.391  0.00  0.00    +0.018 A 
ATOM      4  C   UNL     1       9.091   0.504   4.612  0.00  0.00    +0.015 A 
ATOM      5  C   UNL     1       9.563   0.625   5.886  0.00  0.00    +0.046 A 
ATOM      6  C   UNL     1       8.694   0.540   6.973  0.00  0.00    +0.120 A 
ATOM      7  C   UNL     1       7.339   0.319   6.774  0.00  0.00    +0.092 A 
ATOM      8  C   UNL     1       6.845   0.187   5.488  0.00  0.00    +0.141 A 
ATOM      9  O   UNL     1       5.530  -0.072   5.284  0.00  0.00    -0.438 OA
ATOM     10  C   UNL     1       4.999   0.348   4.103  0.00  0.00    +0.212 A 
ATOM     11  N   UNL     1       3.784   0.847   4.039  0.00  0.00    -0.325 N 
ATOM     12  H   UNL     1       3.457   1.224   3.207  0.00  0.00    +0.169 HD
ENDROOT
BRANCH  11  13
ATOM     13  C   UNL     1       2.980   0.836   5.146  0.00  0.00    +0.045 A 
ATOM     14  C   UNL     1       2.892  -0.313   5.937  0.00  0.00    +0.028 A 
ATOM     15  C   UNL     1       2.080  -0.320   7.052  0.00  0.00    +0.043 A 
ATOM     16  C   UNL     1       1.353   0.809   7.390  0.00  0.00    +0.159 A 
ATOM     17  C   UNL     1       1.435   1.954   6.610  0.00  0.00    +0.160 A 
ATOM     18  C   UNL     1       2.249   1.974   5.494  0.00  0.00    +0.067 A 
ATOM     19  F   UNL     1       0.723   3.052   6.945  0.00  0.00    -0.202 F 
ATOM     20  F   UNL     1       0.559   0.796   8.484  0.00  0.00    -0.202 F 
ENDBRANCH  11  13
BRANCH   1  22
ATOM     21  N   UNL     1       6.024  -0.033   0.472  0.00  0.00    -0.304 N 
ATOM     22  C   UNL     1       5.235   0.102   1.556  0.00  0.00    +0.250 C 
ATOM     23  O   UNL     1       4.026   0.128   1.429  0.00  0.00    -0.270 OA
ATOM     24  H   UNL     1       6.988   0.026   0.564  0.00  0.00    +0.149 HD
BRANCH  21  25
ATOM     25  C   UNL     1       5.426  -0.270  -0.844  0.00  0.00    +0.179 C 
BRANCH  25  28
ATOM     26  C   UNL     1       8.082  -1.167  -3.236  0.00  0.00    +0.041 A 
ATOM     27  C   UNL     1       7.136  -1.519  -2.247  0.00  0.00    +0.046 A 
ATOM     28  C   UNL     1       6.517  -0.384  -1.878  0.00  0.00    +0.122 A 
ATOM     29  O   UNL     1       7.034   0.632  -2.588  0.00  0.00    -0.466 OA
ATOM     30  C   UNL     1       7.984   0.163  -3.413  0.00  0.00    +0.195 A 
ENDBRANCH  25  28
ENDBRANCH  21  25
ENDBRANCH   1  22
BRANCH   6  31
ATOM     31  O   UNL     1       9.177   0.674   8.234  0.00  0.00    -0.507 OA
ATOM     32  H   UNL     1       9.181   1.585   8.559  0.00  0.00    +0.292 HD
ENDBRANCH   6  31
TORSDOF 5
