REMARK  Name = ZINC39482030
REMARK  6 active torsions:
REMARK  status: ('A' for Active; 'I' for Inactive)
REMARK    1  A    between atoms: C_4  and  C_7
REMARK    2  A    between atoms: C_10  and  N_21
REMARK    3  A    between atoms: C_11  and  N_13
REMARK    4  A    between atoms: N_21  and  S_22
REMARK    5  A    between atoms: S_22  and  C_25
REMARK    6  A    between atoms: C_30  and  O_31
REMARK                            x       y       z     vdW  Elec       q    Type
REMARK                         _______ _______ _______ _____ _____    ______ ____
ROOT
ATOM      1  C   UNL     1       3.886  -1.085   1.177  0.00  0.00    -0.016 A 
ATOM      2  C   UNL     1       4.982  -0.263   0.920  0.00  0.00    +0.010 A 
ATOM      3  C   UNL     1       6.199  -0.819   0.582  0.00  0.00    +0.027 A 
ATOM      4  C   UNL     1       6.335  -2.198   0.498  0.00  0.00    +0.069 A 
ATOM      5  C   UNL     1       5.241  -3.025   0.755  0.00  0.00    +0.053 A 
ATOM      6  C   UNL     1       4.021  -2.470   1.099  0.00  0.00    +0.033 A 
ENDROOT
BRANCH   5   7
ATOM      7  N   UNL     1       5.379  -4.416   0.669  0.00  0.00    -0.330 N 
ATOM      8  C   UNL     1       5.766  -5.212   1.844  0.00  0.00    +0.086 C 
ATOM      9  C   UNL     1       4.774  -6.370   1.995  0.00  0.00    -0.060 C 
ATOM     10  N   UNL     1       4.717  -7.131   0.740  0.00  0.00    +0.400 N 
ATOM     11  C   UNL     1       4.178  -6.286  -0.333  0.00  0.00    +0.119 C 
ATOM     12  C   UNL     1       5.134  -5.124  -0.597  0.00  0.00    +0.120 C 
ATOM     13  O   UNL     1       4.029  -7.063  -1.522  0.00  0.00    -0.250 OA
ATOM     14  H   UNL     1       5.646  -7.436   0.491  0.00  0.00    -0.082 HD
ATOM     15  H   UNL     1       4.122  -7.936   0.864  0.00  0.00    -0.082 HD
ENDBRANCH   5   7
BRANCH   1  19
ATOM     16  C   UNL     1       0.137   0.632   2.216  0.00  0.00    +0.000 A 
ATOM     17  C   UNL     1       1.222   1.451   1.956  0.00  0.00    +0.001 A 
ATOM     18  C   UNL     1       2.441   0.899   1.619  0.00  0.00    +0.008 A 
ATOM     19  C   UNL     1       2.578  -0.486   1.540  0.00  0.00    -0.018 A 
ATOM     20  C   UNL     1       1.482  -1.305   1.803  0.00  0.00    +0.008 A 
ATOM     21  C   UNL     1       0.268  -0.743   2.140  0.00  0.00    +0.001 A 
ENDBRANCH   1  19
BRANCH   4  22
ATOM     22  N   UNL     1       7.570  -2.758   0.156  0.00  0.00    -0.214 N 
ATOM     23  H   UNL     1       7.605  -3.564  -0.383  0.00  0.00    +0.174 HD
BRANCH  22  24
ATOM     24  S   UNL     1       8.974  -2.046   0.670  0.00  0.00    +0.076 S 
ATOM     25  O   UNL     1       8.796  -1.746   2.048  0.00  0.00    -0.150 OA
ATOM     26  O   UNL     1      10.039  -2.860   0.199  0.00  0.00    -0.150 OA
BRANCH  24  27
ATOM     27  C   UNL     1       9.112  -0.502  -0.167  0.00  0.00    +0.150 A 
ATOM     28  C   UNL     1       9.094   0.678   0.551  0.00  0.00    +0.032 A 
ATOM     29  C   UNL     1       9.201   1.890  -0.105  0.00  0.00    +0.002 A 
ATOM     30  C   UNL     1       9.327   1.925  -1.482  0.00  0.00    +0.004 A 
ATOM     31  C   UNL     1       9.345   0.748  -2.205  0.00  0.00    +0.047 A 
ATOM     32  C   UNL     1       9.243  -0.470  -1.548  0.00  0.00    +0.143 A 
BRANCH  32  33
ATOM     33  O   UNL     1       9.267  -1.629  -2.256  0.00  0.00    -0.505 OA
ATOM     34  H   UNL     1       8.397  -1.922  -2.560  0.00  0.00    +0.292 HD
ENDBRANCH  32  33
ENDBRANCH  24  27
ENDBRANCH  22  24
ENDBRANCH   4  22
TORSDOF 6
