REMARK  Name = ZINC36072535
REMARK  13 active torsions:
REMARK  status: ('A' for Active; 'I' for Inactive)
REMARK    1  A    between atoms: C_1  and  C_2
REMARK    2  A    between atoms: C_2  and  O_3
REMARK    3  A    between atoms: O_3  and  C_4
REMARK    4  A    between atoms: C_4  and  C_6
REMARK    5  A    between atoms: C_12  and  C_14
REMARK    6  A    between atoms: C_17  and  C_19
REMARK    7  A    between atoms: C_19  and  N_20
REMARK    8  A    between atoms: N_20  and  C_21
REMARK    9  A    between atoms: N_20  and  C_29
REMARK   10  A    between atoms: C_21  and  C_22
REMARK   11  A    between atoms: C_29  and  C_30
REMARK   12  A    between atoms: C_33  and  C_37
REMARK   13  A    between atoms: C_35  and  C_36
REMARK                            x       y       z     vdW  Elec       q    Type
REMARK                         _______ _______ _______ _____ _____    ______ ____
ROOT
ATOM      1  C   UNL     1       2.832  -9.353   3.666  0.00  0.00    +0.020 C 
ENDROOT
BRANCH   1   5
ATOM      2  C   UNL     1       5.516 -11.755   4.049  0.00  0.00    +0.164 A 
ATOM      3  C   UNL     1       4.513 -12.403   4.702  0.00  0.00    +0.230 A 
ATOM      4  O   UNL     1       3.430 -11.612   4.639  0.00  0.00    -0.449 OA
ATOM      5  C   UNL     1       3.760 -10.502   3.963  0.00  0.00    +0.179 A 
ATOM      6  N   UNL     1       5.009 -10.572   3.608  0.00  0.00    -0.210 NA
BRANCH   2  13
ATOM      7  C   UNL     1       9.187 -10.866   0.741  0.00  0.00    +0.101 C 
ATOM      8  C   UNL     1       9.538 -12.134   1.523  0.00  0.00    +0.033 C 
ATOM      9  C   UNL     1       9.166 -11.941   2.996  0.00  0.00    +0.109 C 
ATOM     10  N   UNL     1       7.752 -11.552   3.080  0.00  0.00    -0.296 N 
ATOM     11  C   UNL     1       7.288 -10.400   2.296  0.00  0.00    +0.109 C 
ATOM     12  C   UNL     1       7.680 -10.611   0.830  0.00  0.00    +0.033 C 
ATOM     13  C   UNL     1       6.896 -12.240   3.862  0.00  0.00    +0.268 C 
ATOM     14  O   UNL     1       7.261 -13.261   4.412  0.00  0.00    -0.268 OA
BRANCH   7  15
ATOM     15  C   UNL     1       9.582 -11.041  -0.703  0.00  0.00    +0.310 C 
ATOM     16  O   UNL     1       8.745 -10.968  -1.571  0.00  0.00    -0.251 OA
BRANCH  15  17
ATOM     17  O   UNL     1      10.864 -11.277  -1.024  0.00  0.00    -0.465 OA
BRANCH  17  19
ATOM     18  C   UNL     1      12.665 -11.692  -2.580  0.00  0.00    +0.048 C 
ATOM     19  C   UNL     1      11.167 -11.432  -2.411  0.00  0.00    +0.229 C 
ENDBRANCH  17  19
ENDBRANCH  15  17
ENDBRANCH   7  15
ENDBRANCH   2  13
ENDBRANCH   1   5
BRANCH   1  20
ATOM     20  N   UNL     1       2.123  -9.609   2.405  0.00  0.00    +0.391 N 
ATOM     21  H   UNL     1       2.790  -9.853   1.688  0.00  0.00    -0.080 HD
BRANCH  20  22
ATOM     22  C   UNL     1       1.390  -8.402   2.002  0.00  0.00    -0.042 C 
BRANCH  22  23
ATOM     23  C   UNL     1       2.370  -7.311   1.654  0.00  0.00    -0.064 A 
ATOM     24  C   UNL     1       2.714  -6.365   2.601  0.00  0.00    +0.004 A 
ATOM     25  C   UNL     1       3.613  -5.364   2.284  0.00  0.00    +0.038 A 
ATOM     26  C   UNL     1       4.169  -5.310   1.017  0.00  0.00    +0.123 A 
ATOM     27  C   UNL     1       3.824  -6.259   0.069  0.00  0.00    +0.038 A 
ATOM     28  C   UNL     1       2.929  -7.262   0.391  0.00  0.00    +0.004 A 
ATOM     29  F   UNL     1       5.048  -4.332   0.705  0.00  0.00    -0.205 F 
ENDBRANCH  22  23
ENDBRANCH  20  22
BRANCH  20  30
ATOM     30  C   UNL     1       1.177 -10.717   2.592  0.00  0.00    -0.042 C 
BRANCH  30  31
ATOM     31  C   UNL     1       0.539 -11.062   1.271  0.00  0.00    -0.061 A 
ATOM     32  C   UNL     1      -0.725 -10.591   0.970  0.00  0.00    +0.002 A 
ATOM     33  C   UNL     1      -1.310 -10.907  -0.242  0.00  0.00    +0.003 A 
ATOM     34  C   UNL     1      -0.630 -11.693  -1.153  0.00  0.00    -0.050 A 
ATOM     35  C   UNL     1       0.634 -12.162  -0.853  0.00  0.00    +0.007 A 
ATOM     36  C   UNL     1       1.221 -11.843   0.357  0.00  0.00    -0.049 A 
ATOM     37  C   UNL     1       2.602 -12.351   0.682  0.00  0.00    +0.044 C 
ATOM     38  C   UNL     1      -1.269 -12.038  -2.474  0.00  0.00    +0.044 C 
ENDBRANCH  30  31
ENDBRANCH  20  30
ENDBRANCH   1  20
TORSDOF 10
