REMARK  Name = ZINC02074460
REMARK  16 active torsions:
REMARK  status: ('A' for Active; 'I' for Inactive)
REMARK    1  A    between atoms: C_1  and  C_2
REMARK    2  A    between atoms: C_3  and  C_34
REMARK    3  A    between atoms: C_4  and  C_25
REMARK    4  A    between atoms: C_10  and  C_15
REMARK    5  A    between atoms: C_18  and  O_23
REMARK    6  A    between atoms: C_19  and  O_21
REMARK    7  A    between atoms: O_21  and  C_22
REMARK    8  A    between atoms: O_23  and  C_24
REMARK    9  A    between atoms: C_28  and  O_32
REMARK   10  A    between atoms: C_29  and  O_31
REMARK   11  A    between atoms: O_32  and  C_33
REMARK   12  A    between atoms: C_34  and  O_36
REMARK   13  A    between atoms: O_36  and  C_37
REMARK   14  A    between atoms: C_37  and  C_38
REMARK   15  A    between atoms: C_38  and  O_39
REMARK   16  A    between atoms: O_39  and  C_40
REMARK                            x       y       z     vdW  Elec       q    Type
REMARK                         _______ _______ _______ _____ _____    ______ ____
ROOT
ATOM      1  C   UNL     1       0.002  -0.004   0.002  0.00  0.00    +0.061 C 
ATOM      2  C   UNL     1      -0.018   1.503   0.010  0.00  0.00    +0.016 C 
ATOM      3  C   UNL     1      -1.194   2.154   0.019  0.00  0.00    +0.065 C 
ATOM      4  C   UNL     1      -1.253   3.654   0.041  0.00  0.00    +0.092 C 
ATOM      5  C   UNL     1       0.063   4.251  -0.392  0.00  0.00    +0.024 C 
ATOM      6  C   UNL     1       1.192   3.511  -0.383  0.00  0.00    +0.016 C 
ATOM      7  N   UNL     1       1.159   2.198   0.003  0.00  0.00    -0.321 N 
ATOM      8  C   UNL     1       2.515   4.108  -0.791  0.00  0.00    +0.059 C 
ATOM      9  C   UNL     1       2.285   5.194  -1.845  0.00  0.00    +0.032 C 
ATOM     10  C   UNL     1       1.354   6.257  -1.253  0.00  0.00    +0.088 C 
ATOM     11  C   UNL     1       0.080   5.596  -0.801  0.00  0.00    +0.162 C 
ATOM     12  O   UNL     1      -0.952   6.236  -0.790  0.00  0.00    -0.292 OA
ATOM     13  H   UNL     1       2.092   1.702   0.309  0.00  0.00    +0.152 HD
ENDROOT
BRANCH   9  14
ATOM     14  C   UNL     1       3.602   5.826  -2.217  0.00  0.00    -0.040 A 
ATOM     15  C   UNL     1       4.360   6.462  -1.251  0.00  0.00    +0.008 A 
ATOM     16  C   UNL     1       5.571   7.037  -1.587  0.00  0.00    +0.049 A 
ATOM     17  C   UNL     1       6.022   6.988  -2.896  0.00  0.00    +0.161 A 
ATOM     18  C   UNL     1       5.257   6.353  -3.869  0.00  0.00    +0.162 A 
ATOM     19  C   UNL     1       4.047   5.773  -3.525  0.00  0.00    +0.053 A 
BRANCH  18  20
ATOM     20  O   UNL     1       5.697   6.301  -5.155  0.00  0.00    -0.491 OA
ATOM     21  C   UNL     1       4.859   5.633  -6.100  0.00  0.00    +0.277 C 
ENDBRANCH  18  20
BRANCH  17  22
ATOM     22  O   UNL     1       7.211   7.559  -3.228  0.00  0.00    -0.491 OA
ATOM     23  C   UNL     1       7.943   8.193  -2.177  0.00  0.00    +0.277 C 
ENDBRANCH  17  22
ENDBRANCH   9  14
BRANCH   4  24
ATOM     24  C   UNL     1      -1.573   4.122   1.437  0.00  0.00    -0.032 A 
ATOM     25  C   UNL     1      -0.710   3.830   2.477  0.00  0.00    +0.008 A 
ATOM     26  C   UNL     1      -0.999   4.257   3.760  0.00  0.00    +0.050 A 
ATOM     27  C   UNL     1      -2.156   4.978   4.005  0.00  0.00    +0.161 A 
ATOM     28  C   UNL     1      -3.025   5.272   2.959  0.00  0.00    +0.159 A 
ATOM     29  C   UNL     1      -2.726   4.846   1.674  0.00  0.00    +0.053 A 
BRANCH  28  30
ATOM     30  O   UNL     1      -4.162   5.979   3.195  0.00  0.00    -0.503 OA
ATOM     31  H   UNL     1      -4.848   6.210   2.367  0.00  0.00    +0.292 HD
ENDBRANCH  28  30
BRANCH  27  32
ATOM     32  O   UNL     1      -2.442   5.399   5.267  0.00  0.00    -0.491 OA
ATOM     33  C   UNL     1      -1.505   5.061   6.291  0.00  0.00    +0.277 C 
ENDBRANCH  27  32
ENDBRANCH   4  24
BRANCH   3  34
ATOM     34  C   UNL     1      -2.398   1.413   0.014  0.00  0.00    +0.338 C 
ATOM     35  O   UNL     1      -2.364   0.196   0.001  0.00  0.00    -0.245 OA
BRANCH  34  36
ATOM     36  O   UNL     1      -3.586   2.054   0.023  0.00  0.00    -0.459 OA
BRANCH  36  37
ATOM     37  C   UNL     1      -4.762   1.242   0.017  0.00  0.00    +0.260 C 
BRANCH  37  38
ATOM     38  C   UNL     1      -6.001   2.139   0.029  0.00  0.00    +0.200 C 
BRANCH  38  39
ATOM     39  O   UNL     1      -6.055   2.892  -1.185  0.00  0.00    -0.380 OA
ATOM     40  C   UNL     1      -7.181   3.767  -1.275  0.00  0.00    +0.194 C 
ENDBRANCH  38  39
ENDBRANCH  37  38
ENDBRANCH  36  37
ENDBRANCH  34  36
ENDBRANCH   3  34
TORSDOF 11
