REMARK  Name = ZINC40783306
REMARK  4 active torsions:
REMARK  status: ('A' for Active; 'I' for Inactive)
REMARK    1  A    between atoms: C_9  and  N_11
REMARK    2  A    between atoms: C_13  and  N_27
REMARK    3  A    between atoms: C_14  and  N_18
REMARK    4  A    between atoms: N_18  and  C_19
REMARK                            x       y       z     vdW  Elec       q    Type
REMARK                         _______ _______ _______ _____ _____    ______ ____
ROOT
ATOM      1  N   UNL     1       1.210  -2.088  -0.071  0.00  0.00    -0.297 N 
ATOM      2  C   UNL     1       0.018  -2.792   0.059  0.00  0.00    +0.149 A 
ATOM      3  C   UNL     1       0.025  -4.184   0.169  0.00  0.00    +0.106 A 
ATOM      4  C   UNL     1      -1.200  -4.841   0.298  0.00  0.00    +0.149 A 
ATOM      5  N   UNL     1      -2.320  -4.122   0.310  0.00  0.00    -0.219 NA
ATOM      6  C   UNL     1      -2.282  -2.809   0.203  0.00  0.00    +0.225 A 
ATOM      7  N   UNL     1      -1.147  -2.150   0.086  0.00  0.00    -0.219 NA
ATOM      8  H   UNL     1       2.047  -2.567  -0.175  0.00  0.00    +0.154 HD
ENDROOT
BRANCH   1  17
ATOM      9  C   UNL     1       0.167   1.377   0.598  0.00  0.00    +0.004 A 
ATOM     10  C   UNL     1       1.155   2.102   0.004  0.00  0.00    +0.028 A 
ATOM     11  C   UNL     1       2.213   1.447  -0.648  0.00  0.00    +0.073 A 
ATOM     12  C   UNL     1       2.238   0.031  -0.676  0.00  0.00    +0.022 A 
ATOM     13  C   UNL     1       3.298  -0.621  -1.328  0.00  0.00    +0.013 A 
ATOM     14  C   UNL     1       4.267   0.147  -1.911  0.00  0.00    +0.020 A 
ATOM     15  C   UNL     1       4.184   1.536  -1.847  0.00  0.00    +0.111 A 
ATOM     16  N   UNL     1       3.193   2.140  -1.238  0.00  0.00    -0.255 NA
ATOM     17  C   UNL     1       1.202  -0.696  -0.053  0.00  0.00    +0.042 A 
ATOM     18  C   UNL     1       0.181  -0.013   0.576  0.00  0.00    +0.024 A 
ENDBRANCH   1  17
BRANCH   3  19
ATOM     19  N   UNL     1       1.230  -4.903   0.151  0.00  0.00    -0.353 N 
ATOM     20  H   UNL     1       2.074  -4.433   0.061  0.00  0.00    +0.143 HD
ATOM     21  H   UNL     1       1.220  -5.870   0.229  0.00  0.00    +0.143 HD
ENDBRANCH   3  19
BRANCH   4  22
ATOM     22  N   UNL     1      -1.250  -6.226   0.411  0.00  0.00    -0.297 N 
ATOM     23  H   UNL     1      -0.429  -6.737   0.486  0.00  0.00    +0.154 HD
BRANCH  22  24
ATOM     24  C   UNL     1      -2.485  -6.883   0.415  0.00  0.00    +0.051 A 
ATOM     25  C   UNL     1      -3.590  -6.292  -0.183  0.00  0.00    +0.026 A 
ATOM     26  C   UNL     1      -4.808  -6.943  -0.177  0.00  0.00    +0.022 A 
ATOM     27  C   UNL     1      -4.928  -8.184   0.424  0.00  0.00    +0.042 A 
ATOM     28  C   UNL     1      -3.830  -8.776   1.021  0.00  0.00    +0.041 A 
ATOM     29  C   UNL     1      -2.607  -8.132   1.013  0.00  0.00    +0.063 A 
ATOM     30 CL   UNL     1      -1.226  -8.879   1.754  0.00  0.00    -0.082 Cl
ATOM     31 CL   UNL     1      -6.461  -8.999   0.429  0.00  0.00    -0.083 Cl
ENDBRANCH  22  24
ENDBRANCH   4  22
TORSDOF 4
