REMARK  Name = ZINC23596884
REMARK  9 active torsions:
REMARK  status: ('A' for Active; 'I' for Inactive)
REMARK    1  A    between atoms: C_1  and  C_2
REMARK    2  A    between atoms: C_2  and  C_3
REMARK    3  A    between atoms: C_8  and  N_9
REMARK    4  A    between atoms: C_12  and  C_17
REMARK    5  A    between atoms: C_17  and  S_18
REMARK    6  A    between atoms: S_18  and  C_19
REMARK    7  A    between atoms: N_29  and  C_30
REMARK    8  A    between atoms: C_30  and  C_31
REMARK    9  A    between atoms: C_30  and  C_32
REMARK                            x       y       z     vdW  Elec       q    Type
REMARK                         _______ _______ _______ _____ _____    ______ ____
ROOT
ATOM      1  N   UNL     1      -7.717  -2.924   2.407  0.00  0.00    -0.283 N 
ATOM      2  C   UNL     1      -7.082  -2.681   1.204  0.00  0.00    +0.224 A 
ATOM      3  N   UNL     1      -5.835  -2.214   1.191  0.00  0.00    -0.198 NA
ATOM      4  C   UNL     1      -5.227  -1.982   0.042  0.00  0.00    +0.146 A 
ATOM      5  N   UNL     1      -5.854  -2.208  -1.100  0.00  0.00    -0.199 NA
ATOM      6  C   UNL     1      -7.099  -2.680  -1.095  0.00  0.00    +0.217 A 
ATOM      7  N   UNL     1      -7.714  -2.914   0.059  0.00  0.00    -0.181 NA
ATOM      8  N   UNL     1      -7.752  -2.920  -2.287  0.00  0.00    -0.327 N 
ATOM      9  H   UNL     1      -7.162  -2.824   3.352  0.00  0.00    +0.155 HD
ATOM     10  H   UNL     1      -8.780  -3.310  -2.282  0.00  0.00    +0.145 HD
ATOM     11  H   UNL     1      -7.243  -2.721  -3.242  0.00  0.00    +0.145 HD
ENDROOT
BRANCH   1  17
ATOM     12  C   UNL     1      -9.575  -4.016   3.496  0.00  0.00    -0.026 A 
ATOM     13  C   UNL     1     -10.907  -4.382   3.509  0.00  0.00    +0.005 A 
ATOM     14  C   UNL     1     -11.731  -4.033   2.455  0.00  0.00    +0.000 A 
ATOM     15  C   UNL     1     -11.226  -3.317   1.386  0.00  0.00    +0.002 A 
ATOM     16  C   UNL     1      -9.898  -2.942   1.369  0.00  0.00    +0.023 A 
ATOM     17  C   UNL     1      -9.065  -3.296   2.423  0.00  0.00    +0.037 A 
BRANCH  12  19
ATOM     18  C   UNL     1      -8.607  -3.240   5.643  0.00  0.00    +0.009 C 
ATOM     19  C   UNL     1      -8.676  -4.397   4.644  0.00  0.00    +0.033 C 
ENDBRANCH  12  19
ENDBRANCH   1  17
BRANCH   4  20
ATOM     20  C   UNL     1      -3.816  -1.454   0.031  0.00  0.00    +0.153 C 
BRANCH  20  21
ATOM     21  S   UNL     1      -2.652  -2.840   0.022  0.00  0.00    -0.080 S 
BRANCH  21  22
ATOM     22  C   UNL     1      -1.126  -1.959   0.011  0.00  0.00    +0.173 A 
ATOM     23  N   UNL     1      -1.161  -0.649   0.012  0.00  0.00    -0.223 NA
ATOM     24  C   UNL     1      -0.033   0.088   0.004  0.00  0.00    +0.079 A 
ATOM     25  C   UNL     1      -0.070   1.486   0.006  0.00  0.00    +0.028 A 
ATOM     26  C   UNL     1       1.098   2.194  -0.003  0.00  0.00    +0.002 A 
ATOM     27  C   UNL     1       2.327   1.545  -0.013  0.00  0.00    +0.001 A 
ATOM     28  C   UNL     1       2.396   0.180  -0.015  0.00  0.00    +0.015 A 
ATOM     29  C   UNL     1       1.219  -0.568  -0.006  0.00  0.00    +0.065 A 
ATOM     30  C   UNL     1       1.233  -2.037  -0.007  0.00  0.00    +0.263 A 
ATOM     31  O   UNL     1       2.279  -2.659  -0.016  0.00  0.00    -0.267 OA
ATOM     32  N   UNL     1       0.038  -2.673   0.002  0.00  0.00    -0.285 N 
BRANCH  32  33
ATOM     33  C   UNL     1      -0.007  -4.137   0.001  0.00  0.00    +0.087 C 
ATOM     34  C   UNL     1       0.689  -4.668  -1.254  0.00  0.00    +0.031 C 
ATOM     35  C   UNL     1       0.708  -4.670   1.244  0.00  0.00    +0.031 C 
ENDBRANCH  32  33
ENDBRANCH  21  22
ENDBRANCH  20  21
ENDBRANCH   4  20
TORSDOF 6
