REMARK  Name = ZINC27498302
REMARK  8 active torsions:
REMARK  status: ('A' for Active; 'I' for Inactive)
REMARK    1  A    between atoms: C_1  and  C_2
REMARK    2  A    between atoms: C_2  and  C_3
REMARK    3  A    between atoms: C_3  and  C_5
REMARK    4  A    between atoms: C_3  and  N_20
REMARK    5  A    between atoms: N_7  and  N_8
REMARK    6  A    between atoms: C_9  and  C_10
REMARK    7  A    between atoms: C_12  and  N_17
REMARK    8  A    between atoms: N_20  and  C_21
REMARK                            x       y       z     vdW  Elec       q    Type
REMARK                         _______ _______ _______ _____ _____    ______ ____
ROOT
ATOM      1  C   UNL     1      -1.805  -2.053  -0.331  0.00  0.00    +0.251 C 
ATOM      2  O   UNL     1      -2.427  -2.751   0.441  0.00  0.00    -0.272 OA
ATOM      3  N   UNL     1      -1.073  -2.619  -1.311  0.00  0.00    -0.228 N 
ATOM      4  H   UNL     1      -0.576  -2.060  -1.929  0.00  0.00    +0.175 HD
ENDROOT
BRANCH   3   5
ATOM      5  N   UNL     1      -1.030  -4.013  -1.437  0.00  0.00    -0.311 N 
ATOM      6  C   UNL     1      -0.301  -4.576  -2.412  0.00  0.00    +0.111 C 
ATOM      7  H   UNL     1      -1.527  -4.572  -0.819  0.00  0.00    +0.184 HD
BRANCH   6   8
ATOM      8  C   UNL     1      -0.191  -5.967  -2.487  0.00  0.00    +0.041 A 
ATOM      9  C   UNL     1       0.477  -6.581  -3.570  0.00  0.00    +0.046 A 
ATOM     10  C   UNL     1       0.575  -7.936  -3.625  0.00  0.00    +0.127 A 
ATOM     11  C   UNL     1       0.029  -8.745  -2.633  0.00  0.00    +0.036 A 
ATOM     12  C   UNL     1      -0.627  -8.217  -1.563  0.00  0.00    +0.054 A 
ATOM     13  C   UNL     1      -0.761  -6.823  -1.439  0.00  0.00    +0.188 A 
ATOM     14  O   UNL     1      -1.344  -6.334  -0.481  0.00  0.00    -0.287 OA
BRANCH  10  15
ATOM     15  N   UNL     1       1.277  -8.564  -4.766  0.00  0.00    +0.056 N 
ATOM     16  O   UNL     1       1.756  -7.874  -5.635  0.00  0.00    -0.126 OA
ATOM     17  O   UNL     1       1.372  -9.768  -4.828  0.00  0.00    -0.126 OA
ENDBRANCH  10  15
ENDBRANCH   6   8
ENDBRANCH   3   5
BRANCH   1  18
ATOM     18  C   UNL     1      -1.851  -0.553  -0.196  0.00  0.00    +0.158 C 
BRANCH  18  20
ATOM     19  C   UNL     1      -0.466   1.512   0.057  0.00  0.00    +0.006 C 
ATOM     20  C   UNL     1      -0.438  -0.018   0.044  0.00  0.00    +0.028 C 
ENDBRANCH  18  20
BRANCH  18  21
ATOM     21  N   UNL     1      -2.709  -0.191   0.936  0.00  0.00    -0.333 N 
ATOM     22  H   UNL     1      -2.844  -0.819   1.662  0.00  0.00    +0.147 HD
BRANCH  21  23
ATOM     23  C   UNL     1      -3.331   1.060   0.969  0.00  0.00    +0.028 A 
ATOM     24  C   UNL     1      -3.143   1.958  -0.074  0.00  0.00    +0.024 A 
ATOM     25  C   UNL     1      -3.760   3.194  -0.038  0.00  0.00    +0.017 A 
ATOM     26  C   UNL     1      -4.564   3.536   1.034  0.00  0.00    +0.018 A 
ATOM     27  C   UNL     1      -4.753   2.643   2.074  0.00  0.00    +0.017 A 
ATOM     28  C   UNL     1      -4.144   1.404   2.041  0.00  0.00    +0.024 A 
ATOM     29 BR   UNL     1      -5.406   5.229   1.079  0.00  0.00    -0.050 Br
ENDBRANCH  21  23
ENDBRANCH  18  21
ENDBRANCH   1  18
TORSDOF 7
