REMARK  Name = ZINC39685760
REMARK  12 active torsions:
REMARK  status: ('A' for Active; 'I' for Inactive)
REMARK    1  A    between atoms: C_1  and  C_2
REMARK    2  A    between atoms: C_2  and  C_3
REMARK    3  A    between atoms: C_2  and  C_4
REMARK    4  A    between atoms: C_4  and  C_6
REMARK    5  A    between atoms: C_4  and  N_13
REMARK    6  A    between atoms: N_8  and  C_9
REMARK    7  A    between atoms: C_9  and  C_10
REMARK    8  A    between atoms: C_9  and  C_11
REMARK    9  A    between atoms: C_9  and  C_12
REMARK   10  A    between atoms: C_14  and  C_16
REMARK   11  A    between atoms: C_27  and  C_29
REMARK   12  A    between atoms: C_31  and  C_36
REMARK                            x       y       z     vdW  Elec       q    Type
REMARK                         _______ _______ _______ _____ _____    ______ ____
ROOT
ATOM      1  C   UNL     1      -1.755  -4.438   1.294  0.00  0.00    +0.100 C 
ATOM      2  C   UNL     1      -2.809  -5.253   0.511  0.00  0.00    +0.121 C 
ATOM      3  N   UNL     1      -3.000  -6.485   1.313  0.00  0.00    -0.296 N 
ATOM      4  C   UNL     1      -2.966  -6.018   2.720  0.00  0.00    +0.115 C 
ATOM      5  C   UNL     1      -1.862  -4.943   2.743  0.00  0.00    -0.004 C 
ATOM      6  C   UNL     1      -0.537  -5.556   3.188  0.00  0.00    -0.010 C 
ATOM      7  C   UNL     1      -0.650  -5.999   4.649  0.00  0.00    -0.082 C 
ATOM      8  N   UNL     1      -0.984  -4.842   5.489  0.00  0.00    +0.379 N 
ATOM      9  C   UNL     1      -2.302  -4.315   5.115  0.00  0.00    -0.082 C 
ATOM     10  C   UNL     1      -2.258  -3.801   3.673  0.00  0.00    -0.010 C 
ATOM     11  C   UNL     1      -3.168  -7.745   0.864  0.00  0.00    +0.247 C 
ATOM     12  O   UNL     1      -3.055  -7.987  -0.322  0.00  0.00    -0.270 OA
ATOM     13  H   UNL     1      -0.998  -5.124   6.457  0.00  0.00    -0.086 HD
ATOM     14  H   UNL     1      -0.287  -4.123   5.361  0.00  0.00    -0.086 HD
ENDROOT
BRANCH  11  15
ATOM     15  C   UNL     1      -3.489  -8.831   1.814  0.00  0.00    +0.040 A 
ATOM     16  C   UNL     1      -3.252 -10.161   1.462  0.00  0.00    +0.025 A 
ATOM     17  C   UNL     1      -3.553 -11.171   2.352  0.00  0.00    +0.058 A 
ATOM     18  C   UNL     1      -4.088 -10.870   3.592  0.00  0.00    +0.050 A 
ATOM     19  C   UNL     1      -4.326  -9.552   3.948  0.00  0.00    +0.125 A 
ATOM     20  C   UNL     1      -4.024  -8.531   3.067  0.00  0.00    +0.051 A 
ATOM     21  F   UNL     1      -4.850  -9.264   5.160  0.00  0.00    -0.205 F 
BRANCH  17  22
ATOM     22  C   UNL     1      -3.299 -12.608   1.973  0.00  0.00    +0.418 C 
ATOM     23  F   UNL     1      -2.004 -12.970   2.360  0.00  0.00    -0.166 F 
ATOM     24  F   UNL     1      -4.226 -13.432   2.619  0.00  0.00    -0.166 F 
ATOM     25  F   UNL     1      -3.430 -12.755   0.588  0.00  0.00    -0.166 F 
ENDBRANCH  17  22
ENDBRANCH  11  15
BRANCH   1  27
ATOM     26  N   UNL     1      -3.330  -2.538   1.458  0.00  0.00    -0.303 N 
ATOM     27  C   UNL     1      -2.074  -2.966   1.227  0.00  0.00    +0.219 C 
ATOM     28  O   UNL     1      -1.199  -2.168   0.964  0.00  0.00    -0.275 OA
ATOM     29  H   UNL     1      -4.012  -3.165   1.746  0.00  0.00    +0.149 HD
BRANCH  26  30
ATOM     30  C   UNL     1      -3.667  -1.124   1.275  0.00  0.00    +0.161 C 
BRANCH  30  31
ATOM     31  C   UNL     1      -4.856  -0.775   2.134  0.00  0.00    +0.234 C 
ATOM     32  O   UNL     1      -5.425  -1.643   2.762  0.00  0.00    -0.274 OA
ATOM     33  N   UNL     1      -5.286   0.500   2.203  0.00  0.00    -0.309 N 
ATOM     34  H   UNL     1      -4.789   1.204   1.760  0.00  0.00    +0.149 HD
BRANCH  33  35
ATOM     35  C   UNL     1      -6.505   0.822   2.949  0.00  0.00    +0.026 C 
ATOM     36  C   UNL     1      -6.332   0.410   4.412  0.00  0.00    +0.031 C 
ATOM     37  C   UNL     1      -6.768   2.327   2.871  0.00  0.00    +0.031 C 
ATOM     38  C   UNL     1      -7.689   0.065   2.343  0.00  0.00    +0.031 C 
ENDBRANCH  33  35
ENDBRANCH  30  31
BRANCH  30  40
ATOM     39  C   UNL     1      -2.773  -1.139  -1.058  0.00  0.00    +0.009 C 
ATOM     40  C   UNL     1      -4.007  -0.867  -0.195  0.00  0.00    +0.012 C 
ATOM     41  C   UNL     1      -5.145  -1.794  -0.625  0.00  0.00    +0.009 C 
ENDBRANCH  30  40
ENDBRANCH  26  30
ENDBRANCH   1  27
TORSDOF 7
