REMARK  Name = ZINC39675832
REMARK  10 active torsions:
REMARK  status: ('A' for Active; 'I' for Inactive)
REMARK    1  A    between atoms: C_1  and  N_2
REMARK    2  A    between atoms: N_2  and  C_3
REMARK    3  A    between atoms: N_2  and  C_4
REMARK    4  A    between atoms: C_4  and  C_6
REMARK    5  A    between atoms: C_4  and  C_31
REMARK    6  A    between atoms: C_6  and  N_7
REMARK    7  A    between atoms: C_8  and  C_10
REMARK    8  A    between atoms: C_21  and  C_23
REMARK    9  A    between atoms: C_27  and  O_28
REMARK   10  A    between atoms: O_28  and  C_29
REMARK                            x       y       z     vdW  Elec       q    Type
REMARK                         _______ _______ _______ _____ _____    ______ ____
ROOT
ATOM      1  C   UNL     1      -2.625   3.826  -1.794  0.00  0.00    +0.100 C 
ATOM      2  C   UNL     1      -1.164   4.279  -2.016  0.00  0.00    +0.121 C 
ATOM      3  N   UNL     1      -1.104   4.661  -3.447  0.00  0.00    -0.296 N 
ATOM      4  C   UNL     1      -2.394   5.346  -3.700  0.00  0.00    +0.115 C 
ATOM      5  C   UNL     1      -3.429   4.532  -2.899  0.00  0.00    -0.004 C 
ATOM      6  C   UNL     1      -4.102   3.503  -3.802  0.00  0.00    -0.010 C 
ATOM      7  C   UNL     1      -4.941   4.228  -4.858  0.00  0.00    -0.082 C 
ATOM      8  N   UNL     1      -5.951   5.062  -4.194  0.00  0.00    +0.379 N 
ATOM      9  C   UNL     1      -5.295   6.108  -3.401  0.00  0.00    -0.082 C 
ATOM     10  C   UNL     1      -4.471   5.462  -2.284  0.00  0.00    -0.010 C 
ATOM     11  C   UNL     1      -0.103   4.436  -4.320  0.00  0.00    +0.251 C 
ATOM     12  O   UNL     1       0.861   3.773  -3.984  0.00  0.00    -0.270 OA
ATOM     13  H   UNL     1      -6.542   5.491  -4.891  0.00  0.00    -0.086 HD
ATOM     14  H   UNL     1      -6.516   4.486  -3.588  0.00  0.00    -0.086 HD
ENDROOT
BRANCH  11  15
ATOM     15  C   UNL     1      -0.175   4.991  -5.680  0.00  0.00    +0.087 A 
ATOM     16  C   UNL     1      -0.765   6.210  -5.931  0.00  0.00    +0.063 A 
ATOM     17  S   UNL     1      -0.608   6.413  -7.589  0.00  0.00    -0.081 S 
ATOM     18  C   UNL     1       0.238   4.904  -8.010  0.00  0.00    +0.120 A 
ATOM     19  C   UNL     1       0.375   4.286  -6.815  0.00  0.00    +0.158 A 
ATOM     20 CL   UNL     1       0.764   4.362  -9.573  0.00  0.00    -0.072 Cl
BRANCH  19  21
ATOM     21  O   UNL     1       0.988   3.076  -6.691  0.00  0.00    -0.492 OA
ATOM     22  C   UNL     1       0.163   1.916  -6.810  0.00  0.00    +0.277 C 
ENDBRANCH  19  21
ENDBRANCH  11  15
BRANCH   1  24
ATOM     23  N   UNL     1      -3.782   1.678  -1.386  0.00  0.00    -0.316 N 
ATOM     24  C   UNL     1      -2.739   2.330  -1.937  0.00  0.00    +0.218 C 
ATOM     25  O   UNL     1      -1.892   1.713  -2.547  0.00  0.00    -0.275 OA
ATOM     26  H   UNL     1      -4.460   2.172  -0.898  0.00  0.00    +0.149 HD
BRANCH  23  27
ATOM     27  C   UNL     1      -3.892   0.224  -1.524  0.00  0.00    +0.093 C 
BRANCH  27  28
ATOM     28  C   UNL     1      -5.088  -0.276  -0.711  0.00  0.00    -0.021 C 
BRANCH  28  29
ATOM     29  C   UNL     1      -6.361   0.273  -1.300  0.00  0.00    -0.059 A 
ATOM     30  C   UNL     1      -6.921  -0.324  -2.415  0.00  0.00    +0.002 A 
ATOM     31  C   UNL     1      -8.089   0.180  -2.955  0.00  0.00    +0.000 A 
ATOM     32  C   UNL     1      -8.698   1.280  -2.381  0.00  0.00    +0.000 A 
ATOM     33  C   UNL     1      -8.139   1.876  -1.266  0.00  0.00    +0.000 A 
ATOM     34  C   UNL     1      -6.973   1.370  -0.723  0.00  0.00    +0.002 A 
ENDBRANCH  28  29
BRANCH  28  36
ATOM     35  C   UNL     1      -3.930  -2.281  -0.082  0.00  0.00    -0.096 C 
ATOM     36  N   UNL     1      -5.125  -1.744  -0.747  0.00  0.00    +0.382 N 
ATOM     37  C   UNL     1      -6.328  -2.221  -0.052  0.00  0.00    -0.096 C 
ATOM     38  H   UNL     1      -5.144  -2.057  -1.706  0.00  0.00    -0.082 HD
ENDBRANCH  28  36
ENDBRANCH  27  28
ENDBRANCH  23  27
ENDBRANCH   1  24
TORSDOF 7
