REMARK  Name = ZINC59716392
REMARK  8 active torsions:
REMARK  status: ('A' for Active; 'I' for Inactive)
REMARK    1  A    between atoms: C_6  and  C_7
REMARK    2  A    between atoms: C_10  and  C_12
REMARK    3  A    between atoms: C_13  and  C_14
REMARK    4  A    between atoms: N_16  and  C_17
REMARK    5  A    between atoms: C_17  and  C_18
REMARK    6  A    between atoms: C_18  and  N_19
REMARK    7  A    between atoms: N_19  and  C_20
REMARK    8  A    between atoms: C_23  and  N_27
REMARK                            x       y       z     vdW  Elec       q    Type
REMARK                         _______ _______ _______ _____ _____    ______ ____
ROOT
ATOM      1  C   UNL     1      -6.755   0.368   0.052  0.00  0.00    +0.237 C 
ATOM      2  O   UNL     1      -7.487  -0.606   0.056  0.00  0.00    -0.271 OA
ATOM      3  N   UNL     1      -7.285   1.608   0.057  0.00  0.00    -0.310 N 
ATOM      4  H   UNL     1      -6.702   2.384   0.054  0.00  0.00    +0.149 HD
ENDROOT
BRANCH   1   6
ATOM      5  C   UNL     1      -4.818  -1.050   0.036  0.00  0.00    +0.051 C 
ATOM      6  C   UNL     1      -5.351   0.199   0.042  0.00  0.00    +0.071 C 
BRANCH   5  10
ATOM      7  C   UNL     1      -1.264  -0.762   0.011  0.00  0.00    +0.136 A 
ATOM      8  C   UNL     1      -1.379  -2.134   0.010  0.00  0.00    +0.050 A 
ATOM      9  C   UNL     1      -2.745  -2.429   0.020  0.00  0.00    +0.050 A 
ATOM     10  C   UNL     1      -3.415  -1.220   0.026  0.00  0.00    +0.129 A 
ATOM     11  O   UNL     1      -2.498  -0.229   0.026  0.00  0.00    -0.455 OA
BRANCH   7  17
ATOM     12  C   UNL     1      -0.017   1.393   0.010  0.00  0.00    +0.013 A 
ATOM     13  C   UNL     1       1.170   2.095   0.002  0.00  0.00    +0.021 A 
ATOM     14  C   UNL     1       2.378   1.419  -0.013  0.00  0.00    +0.041 A 
ATOM     15  C   UNL     1       2.404   0.035  -0.022  0.00  0.00    +0.021 A 
ATOM     16  C   UNL     1       1.225  -0.680  -0.014  0.00  0.00    +0.013 A 
ATOM     17  C   UNL     1       0.002  -0.004   0.002  0.00  0.00    +0.017 A 
ATOM     18 CL   UNL     1       3.868   2.311  -0.024  0.00  0.00    -0.084 Cl
ENDBRANCH   7  17
ENDBRANCH   5  10
ENDBRANCH   1   6
BRANCH   3  19
ATOM     19  C   UNL     1      -8.739   1.784   0.068  0.00  0.00    +0.123 C 
BRANCH  19  20
ATOM     20  C   UNL     1      -9.072   3.277   0.072  0.00  0.00    +0.120 C 
BRANCH  20  21
ATOM     21  N   UNL     1     -10.527   3.452   0.083  0.00  0.00    -0.341 N 
ATOM     22  H   UNL     1     -11.109   2.677   0.086  0.00  0.00    +0.146 HD
BRANCH  21  23
ATOM     23  C   UNL     1     -11.075   4.738   0.088  0.00  0.00    +0.046 A 
ATOM     24  C   UNL     1     -10.243   5.850   0.078  0.00  0.00    +0.026 A 
ATOM     25  C   UNL     1     -10.788   7.119   0.083  0.00  0.00    +0.034 A 
ATOM     26  C   UNL     1     -12.161   7.283   0.099  0.00  0.00    +0.128 A 
ATOM     27  C   UNL     1     -12.993   6.179   0.109  0.00  0.00    +0.054 A 
ATOM     28  C   UNL     1     -12.455   4.906   0.098  0.00  0.00    +0.064 A 
ATOM     29 CL   UNL     1     -13.500   3.520   0.104  0.00  0.00    -0.082 Cl
BRANCH  26  30
ATOM     30  N   UNL     1     -12.741   8.645   0.105  0.00  0.00    +0.056 N 
ATOM     31  O   UNL     1     -12.015   9.612   0.096  0.00  0.00    -0.126 OA
ATOM     32  O   UNL     1     -13.941   8.791   0.119  0.00  0.00    -0.126 OA
ENDBRANCH  26  30
ENDBRANCH  21  23
ENDBRANCH  20  21
ENDBRANCH  19  20
ENDBRANCH   3  19
TORSDOF 8
