REMARK  Name = ZINC12500166
REMARK  10 active torsions:
REMARK  status: ('A' for Active; 'I' for Inactive)
REMARK    1  A    between atoms: C_1  and  C_2
REMARK    2  A    between atoms: C_2  and  O_3
REMARK    3  A    between atoms: O_3  and  C_4
REMARK    4  A    between atoms: C_7  and  C_11
REMARK    5  A    between atoms: C_8  and  O_10
REMARK    6  A    between atoms: N_12  and  N_13
REMARK    7  A    between atoms: N_13  and  C_14
REMARK    8  A    between atoms: C_17  and  S_23
REMARK    9  A    between atoms: C_19  and  N_20
REMARK   10  A    between atoms: S_23  and  N_26
REMARK                            x       y       z     vdW  Elec       q    Type
REMARK                         _______ _______ _______ _____ _____    ______ ____
ROOT
ATOM      1  N   UNL     1      -3.338  -7.915   0.486  0.00  0.00    -0.236 N 
ATOM      2  H   UNL     1      -2.566  -8.502   0.489  0.00  0.00    +0.174 HD
ENDROOT
BRANCH   1   3
ATOM      3  C   UNL     1      -4.588  -8.425   0.243  0.00  0.00    +0.079 A 
ATOM      4  C   UNL     1      -5.717  -7.603   0.351  0.00  0.00    +0.029 A 
ATOM      5  C   UNL     1      -6.968  -8.122   0.104  0.00  0.00    +0.030 A 
ATOM      6  C   UNL     1      -7.112  -9.455  -0.250  0.00  0.00    +0.107 A 
ATOM      7  C   UNL     1      -5.999 -10.275  -0.359  0.00  0.00    +0.063 A 
ATOM      8  C   UNL     1      -4.741  -9.768  -0.121  0.00  0.00    +0.150 A 
BRANCH   8   9
ATOM      9  N   UNL     1      -3.553 -10.644  -0.244  0.00  0.00    +0.058 N 
ATOM     10  O   UNL     1      -2.429 -10.165  -0.737  0.00  0.00    -0.126 OA
ATOM     11  O   UNL     1      -3.619 -11.902   0.141  0.00  0.00    -0.126 OA
ENDBRANCH   8   9
BRANCH   6  12
ATOM     12  S   UNL     1      -8.717 -10.110  -0.563  0.00  0.00    +0.056 S 
ATOM     13  O   UNL     1      -8.634 -11.512  -0.344  0.00  0.00    -0.153 OA
ATOM     14  O   UNL     1      -9.637  -9.283   0.137  0.00  0.00    -0.153 OA
BRANCH  12  15
ATOM     15  N   UNL     1      -9.026  -9.902  -2.177  0.00  0.00    -0.204 NA
ATOM     16  H   UNL     1      -9.599 -10.528  -2.646  0.00  0.00    +0.144 HD
ATOM     17  H   UNL     1      -8.633  -9.153  -2.652  0.00  0.00    +0.144 HD
ENDBRANCH  12  15
ENDBRANCH   6  12
ENDBRANCH   1   3
BRANCH   1  19
ATOM     18  C   UNL     1      -1.962  -6.153   0.951  0.00  0.00    +0.141 C 
ATOM     19  N   UNL     1      -3.189  -6.653   0.712  0.00  0.00    -0.190 NA
BRANCH  18  23
ATOM     20  C   UNL     1      -1.478  -2.056   1.683  0.00  0.00    +0.124 A 
ATOM     21  C   UNL     1      -0.352  -2.902   1.690  0.00  0.00    +0.046 A 
ATOM     22  C   UNL     1      -0.473  -4.230   1.457  0.00  0.00    +0.016 A 
ATOM     23  C   UNL     1      -1.802  -4.794   1.194  0.00  0.00    +0.036 A 
ATOM     24  C   UNL     1      -2.964  -3.883   1.194  0.00  0.00    +0.129 A 
ATOM     25  C   UNL     1      -2.758  -2.543   1.444  0.00  0.00    +0.091 A 
BRANCH  24  26
ATOM     26  O   UNL     1      -4.207  -4.356   0.957  0.00  0.00    -0.506 OA
ATOM     27  H   UNL     1      -4.681  -4.635   1.753  0.00  0.00    +0.292 HD
ENDBRANCH  24  26
BRANCH  20  28
ATOM     28  O   UNL     1      -1.310  -0.737   1.920  0.00  0.00    -0.492 OA
BRANCH  28  30
ATOM     29  C   UNL     1       0.016   1.224   2.406  0.00  0.00    +0.048 C 
ATOM     30  C   UNL     1       0.025  -0.286   2.160  0.00  0.00    +0.225 C 
ENDBRANCH  28  30
ENDBRANCH  20  28
ENDBRANCH  18  23
ENDBRANCH   1  19
TORSDOF 9
