REMARK  Name = ZINC39670021
REMARK  8 active torsions:
REMARK  status: ('A' for Active; 'I' for Inactive)
REMARK    1  A    between atoms: C_1  and  C_2
REMARK    2  A    between atoms: C_7  and  C_11
REMARK    3  A    between atoms: C_11  and  N_12
REMARK    4  A    between atoms: C_13  and  C_15
REMARK    5  A    between atoms: C_26  and  C_28
REMARK    6  A    between atoms: C_33  and  O_34
REMARK    7  A    between atoms: O_34  and  C_35
REMARK    8  A    between atoms: C_35  and  C_37
REMARK                            x       y       z     vdW  Elec       q    Type
REMARK                         _______ _______ _______ _____ _____    ______ ____
ROOT
ATOM      1  C   UNL     1       2.682  -7.501   3.853  0.00  0.00    +0.100 C 
ATOM      2  C   UNL     1       3.452  -6.346   4.532  0.00  0.00    +0.121 C 
ATOM      3  N   UNL     1       3.479  -6.707   5.968  0.00  0.00    -0.296 N 
ATOM      4  C   UNL     1       3.701  -8.173   5.976  0.00  0.00    +0.115 C 
ATOM      5  C   UNL     1       2.851  -8.699   4.802  0.00  0.00    -0.004 C 
ATOM      6  C   UNL     1       3.578  -9.837   4.093  0.00  0.00    -0.010 C 
ATOM      7  C   UNL     1       3.682 -11.038   5.037  0.00  0.00    -0.082 C 
ATOM      8  N   UNL     1       2.336 -11.465   5.439  0.00  0.00    +0.379 N 
ATOM      9  C   UNL     1       1.679 -10.397   6.202  0.00  0.00    -0.082 C 
ATOM     10  C   UNL     1       1.490  -9.169   5.306  0.00  0.00    -0.010 C 
ATOM     11  C   UNL     1       3.336  -5.888   7.029  0.00  0.00    +0.250 C 
ATOM     12  O   UNL     1       3.477  -6.322   8.156  0.00  0.00    -0.270 OA
ATOM     13  H   UNL     1       1.790 -11.673   4.615  0.00  0.00    -0.086 HD
ATOM     14  H   UNL     1       2.404 -12.293   6.011  0.00  0.00    -0.086 HD
ENDROOT
BRANCH  11  15
ATOM     15  C   UNL     1       3.007  -4.464   6.822  0.00  0.00    +0.079 A 
ATOM     16  C   UNL     1       3.522  -3.777   5.720  0.00  0.00    +0.017 A 
ATOM     17  C   UNL     1       3.212  -2.447   5.533  0.00  0.00    +0.001 A 
ATOM     18  C   UNL     1       2.390  -1.788   6.433  0.00  0.00    +0.004 A 
ATOM     19  C   UNL     1       1.875  -2.455   7.526  0.00  0.00    +0.047 A 
ATOM     20  C   UNL     1       2.173  -3.795   7.728  0.00  0.00    +0.144 A 
BRANCH  20  21
ATOM     21  O   UNL     1       1.663  -4.453   8.799  0.00  0.00    -0.425 OA
BRANCH  21  22
ATOM     22  C   UNL     1       0.514  -5.128   8.636  0.00  0.00    +0.309 C 
ATOM     23  O   UNL     1       0.013  -5.213   7.539  0.00  0.00    -0.251 OA
ATOM     24  C   UNL     1      -0.151  -5.781   9.820  0.00  0.00    +0.136 C 
ENDBRANCH  21  22
ENDBRANCH  20  21
ENDBRANCH  11  15
BRANCH   1  26
ATOM     25  N   UNL     1       0.505  -7.655   2.690  0.00  0.00    -0.309 N 
ATOM     26  C   UNL     1       1.224  -7.146   3.709  0.00  0.00    +0.219 C 
ATOM     27  O   UNL     1       0.699  -6.403   4.511  0.00  0.00    -0.275 OA
ATOM     28  H   UNL     1       0.925  -8.250   2.049  0.00  0.00    +0.149 HD
BRANCH  25  29
ATOM     29  C   UNL     1      -0.912  -7.311   2.550  0.00  0.00    +0.159 C 
BRANCH  29  36
ATOM     30  C   UNL     1      -3.156  -9.509  -4.157  0.00  0.00    +0.044 C 
ATOM     31  C   UNL     1      -2.911  -9.479  -2.671  0.00  0.00    -0.046 A 
ATOM     32  C   UNL     1      -3.367 -10.529  -1.858  0.00  0.00    +0.021 A 
ATOM     33  C   UNL     1      -3.149 -10.505  -0.526  0.00  0.00    +0.093 A 
ATOM     34  N   UNL     1      -2.484  -9.462   0.050  0.00  0.00    -0.308 N 
ATOM     35  C   UNL     1      -2.134  -9.188   1.344  0.00  0.00    +0.115 A 
ATOM     36  C   UNL     1      -1.481  -8.006   1.340  0.00  0.00    +0.051 A 
ATOM     37  N   UNL     1      -1.424  -7.555   0.084  0.00  0.00    -0.342 N 
ATOM     38  C   UNL     1      -2.026  -8.422  -0.717  0.00  0.00    +0.116 A 
ATOM     39  C   UNL     1      -2.241  -8.435  -2.110  0.00  0.00    +0.048 A 
ATOM     40  H   UNL     1      -1.008  -6.724  -0.196  0.00  0.00    +0.167 HD
ENDBRANCH  29  36
ENDBRANCH  25  29
ENDBRANCH   1  26
TORSDOF 6
