REMARK  Name = ZINC12464327
REMARK  8 active torsions:
REMARK  status: ('A' for Active; 'I' for Inactive)
REMARK    1  A    between atoms: C_4  and  O_7
REMARK    2  A    between atoms: O_7  and  C_8
REMARK    3  A    between atoms: C_12  and  C_14
REMARK    4  A    between atoms: C_14  and  N_63
REMARK    5  A    between atoms: C_20  and  C_22
REMARK    6  A    between atoms: C_22  and  C_23
REMARK    7  A    between atoms: N_25  and  C_26
REMARK    8  A    between atoms: C_26  and  C_27
REMARK                            x       y       z     vdW  Elec       q    Type
REMARK                         _______ _______ _______ _____ _____    ______ ____
ROOT
ATOM      1  C   UNL     1      -1.104   5.056  -2.508  0.00  0.00    -0.058 C 
ATOM      2  C   UNL     1      -0.829   4.841  -3.998  0.00  0.00    +0.085 C 
ATOM      3  N   UNL     1      -2.049   5.062  -4.769  0.00  0.00    -0.318 N 
ATOM      4  C   UNL     1      -3.268   5.052  -4.220  0.00  0.00    +0.200 C 
ATOM      5  O   UNL     1      -4.231   5.213  -4.939  0.00  0.00    -0.278 OA
ATOM      6  C   UNL     1      -3.495   4.849  -2.748  0.00  0.00    +0.028 C 
ATOM      7  H   UNL     1      -1.972   5.223  -5.723  0.00  0.00    +0.149 HD
ATOM      8  N   UNL     1      -2.289   4.254  -2.142  0.00  0.00    +0.391 N 
ATOM      9  H   UNL     1      -2.171   3.299  -2.498  0.00  0.00    -0.080 HD
ENDROOT
BRANCH   8  10
ATOM     10  C   UNL     1      -2.434   4.205  -0.669  0.00  0.00    -0.042 C 
BRANCH  10  15
ATOM     11  C   UNL     1       0.804   2.910   0.784  0.00  0.00    +0.129 A 
ATOM     12  C   UNL     1       0.521   1.559   0.924  0.00  0.00    +0.046 A 
ATOM     13  C   UNL     1      -0.715   1.071   0.549  0.00  0.00    +0.004 A 
ATOM     14  C   UNL     1      -1.669   1.927   0.029  0.00  0.00    +0.002 A 
ATOM     15  C   UNL     1      -1.391   3.275  -0.107  0.00  0.00    -0.060 A 
ATOM     16  C   UNL     1      -0.156   3.768   0.267  0.00  0.00    +0.048 A 
BRANCH  11  17
ATOM     17  O   UNL     1       2.020   3.393   1.154  0.00  0.00    -0.456 OA
BRANCH  17  21
ATOM     18  C   UNL     1       2.329   5.266   4.816  0.00  0.00    +0.000 A 
ATOM     19  C   UNL     1       3.432   5.187   3.986  0.00  0.00    +0.004 A 
ATOM     20  C   UNL     1       3.331   4.560   2.760  0.00  0.00    +0.046 A 
ATOM     21  C   UNL     1       2.122   4.009   2.360  0.00  0.00    +0.128 A 
ATOM     22  C   UNL     1       1.015   4.095   3.193  0.00  0.00    +0.046 A 
ATOM     23  C   UNL     1       1.122   4.718   4.421  0.00  0.00    +0.004 A 
ENDBRANCH  17  21
ENDBRANCH  11  17
ENDBRANCH  10  15
ENDBRANCH   8  10
BRANCH   6  24
ATOM     24  C   UNL     1      -4.676   3.897  -2.543  0.00  0.00    +0.089 C 
BRANCH  24  25
ATOM     25  C   UNL     1      -4.356   2.560  -3.161  0.00  0.00    +0.212 C 
ATOM     26  O   UNL     1      -3.322   2.408  -3.776  0.00  0.00    -0.276 OA
ATOM     27  N   UNL     1      -5.220   1.534  -3.031  0.00  0.00    -0.315 N 
ATOM     28  H   UNL     1      -6.048   1.656  -2.539  0.00  0.00    +0.149 HD
BRANCH  27  29
ATOM     29  C   UNL     1      -4.910   0.234  -3.631  0.00  0.00    +0.107 C 
BRANCH  29  30
ATOM     30  C   UNL     1      -6.046  -0.748  -3.338  0.00  0.00    +0.010 C 
ATOM     31  C   UNL     1      -6.120  -1.010  -1.830  0.00  0.00    +0.033 C 
ATOM     32  C   UNL     1      -7.205  -2.054  -1.555  0.00  0.00    +0.160 C 
ATOM     33  O   UNL     1      -6.915  -3.248  -2.285  0.00  0.00    -0.380 OA
ATOM     34  C   UNL     1      -6.881  -3.071  -3.702  0.00  0.00    +0.160 C 
ATOM     35  C   UNL     1      -5.782  -2.070  -4.065  0.00  0.00    +0.033 C 
ENDBRANCH  29  30
ENDBRANCH  27  29
ENDBRANCH  24  25
ENDBRANCH   6  24
TORSDOF 8
