REMARK  Name = ZINC59599126
REMARK  8 active torsions:
REMARK  status: ('A' for Active; 'I' for Inactive)
REMARK    1  A    between atoms: C_1  and  N_2
REMARK    2  A    between atoms: C_3  and  N_31
REMARK    3  A    between atoms: C_4  and  O_11
REMARK    4  A    between atoms: N_7  and  C_10
REMARK    5  A    between atoms: O_11  and  C_12
REMARK    6  A    between atoms: C_15  and  C_20
REMARK    7  A    between atoms: C_17  and  O_18
REMARK    8  A    between atoms: O_18  and  C_19
REMARK                            x       y       z     vdW  Elec       q    Type
REMARK                         _______ _______ _______ _____ _____    ______ ____
ROOT
ATOM      1  C   UNL     1      -3.446  -2.008   0.056  0.00  0.00    +0.170 A 
ATOM      2  C   UNL     1      -3.488  -0.621   0.127  0.00  0.00    +0.050 A 
ATOM      3  C   UNL     1      -4.684   0.044  -0.025  0.00  0.00    +0.012 A 
ATOM      4  C   UNL     1      -5.863  -0.679  -0.253  0.00  0.00    -0.020 A 
ATOM      5  C   UNL     1      -5.819  -2.078  -0.324  0.00  0.00    +0.057 A 
ATOM      6  C   UNL     1      -4.615  -2.735  -0.175  0.00  0.00    +0.163 A 
ENDROOT
BRANCH   4   7
ATOM      7  C   UNL     1      -7.138   0.027  -0.415  0.00  0.00    +0.027 C 
ATOM      8  C   UNL     1      -7.181   1.209  -1.087  0.00  0.00    +0.061 C 
ATOM      9  C   UNL     1      -6.119   1.860  -1.859  0.00  0.00    +0.201 C 
ATOM     10  O   UNL     1      -5.013   1.362  -1.981  0.00  0.00    -0.286 OA
ATOM     11  C   UNL     1      -6.465   3.142  -2.476  0.00  0.00    +0.036 A 
ATOM     12  C   UNL     1      -5.631   3.970  -3.266  0.00  0.00    +0.013 A 
ATOM     13  C   UNL     1      -6.100   5.152  -3.778  0.00  0.00    +0.001 A 
ATOM     14  C   UNL     1      -7.400   5.572  -3.539  0.00  0.00    +0.001 A 
ATOM     15  C   UNL     1      -8.239   4.787  -2.772  0.00  0.00    +0.016 A 
ATOM     16  C   UNL     1      -7.777   3.593  -2.251  0.00  0.00    +0.024 A 
ATOM     17  S   UNL     1      -8.544   2.345  -1.250  0.00  0.00    -0.085 S 
ENDBRANCH   4   7
BRANCH   6  18
ATOM     18  O   UNL     1      -4.568  -4.092  -0.249  0.00  0.00    -0.491 OA
ATOM     19  C   UNL     1      -5.801  -4.772  -0.489  0.00  0.00    +0.277 C 
ENDBRANCH   6  18
BRANCH   1  20
ATOM     20  O   UNL     1      -2.264  -2.658   0.207  0.00  0.00    -0.443 OA
BRANCH  20  24
ATOM     21  C   UNL     1       2.089  -0.896  -0.923  0.00  0.00    +0.155 C 
ATOM     22  N   UNL     1       0.970  -1.040   0.012  0.00  0.00    -0.282 N 
ATOM     23  C   UNL     1      -0.127  -1.790  -0.344  0.00  0.00    +0.149 A 
ATOM     24  C   UNL     1      -1.166  -1.920   0.537  0.00  0.00    +0.230 A 
ATOM     25  C   UNL     1      -1.085  -1.280   1.786  0.00  0.00    +0.301 A 
ATOM     26  O   UNL     1      -1.998  -1.381   2.588  0.00  0.00    -0.263 OA
ATOM     27  N   UNL     1       0.009  -0.555   2.093  0.00  0.00    -0.261 N 
ATOM     28  C   UNL     1       1.024  -0.443   1.217  0.00  0.00    +0.333 A 
ATOM     29  O   UNL     1       2.003   0.212   1.517  0.00  0.00    -0.246 OA
ATOM     30  C   UNL     1       0.096   0.112   3.394  0.00  0.00    +0.157 C 
BRANCH  23  31
ATOM     31  N   UNL     1      -0.178  -2.404  -1.573  0.00  0.00    -0.341 N 
ATOM     32  H   UNL     1       0.526  -2.249  -2.222  0.00  0.00    +0.144 HD
ATOM     33  H   UNL     1      -0.918  -2.991  -1.792  0.00  0.00    +0.144 HD
ENDBRANCH  23  31
ENDBRANCH  20  24
ENDBRANCH   1  20
TORSDOF 5
