REMARK  Name = ZINC22148649
REMARK  9 active torsions:
REMARK  status: ('A' for Active; 'I' for Inactive)
REMARK    1  A    between atoms: C_1  and  C_2
REMARK    2  A    between atoms: C_2  and  C_4
REMARK    3  A    between atoms: C_2  and  S_20
REMARK    4  A    between atoms: C_10  and  C_15
REMARK    5  A    between atoms: S_20  and  C_21
REMARK    6  A    between atoms: C_24  and  C_27
REMARK    7  A    between atoms: N_25  and  N_26
REMARK    8  A    between atoms: C_32  and  O_33
REMARK    9  A    between atoms: O_33  and  C_34
REMARK                            x       y       z     vdW  Elec       q    Type
REMARK                         _______ _______ _______ _____ _____    ______ ____
ROOT
ATOM      1  C   UNL     1       0.043   1.564  -0.140  0.00  0.00    +0.027 C 
ATOM      2  C   UNL     1      -0.006   0.043   0.016  0.00  0.00    +0.117 C 
ENDROOT
BRANCH   2   3
ATOM      3  C   UNL     1      -1.442  -0.411   0.072  0.00  0.00    +0.124 A 
ATOM      4  N   UNL     1      -2.041  -0.584   1.278  0.00  0.00    -0.309 N 
ATOM      5  H   UNL     1      -1.536  -0.413   2.088  0.00  0.00    +0.170 HD
ATOM      6  C   UNL     1      -3.321  -0.987   1.372  0.00  0.00    +0.260 A 
ATOM      7  O   UNL     1      -3.845  -1.137   2.462  0.00  0.00    -0.267 OA
ATOM      8  C   UNL     1      -4.060  -1.236   0.171  0.00  0.00    +0.080 A 
ATOM      9  C   UNL     1      -5.442  -1.675   0.012  0.00  0.00    +0.010 A 
ATOM     10  C   UNL     1      -5.931  -1.846  -1.242  0.00  0.00    +0.057 A 
ATOM     11  S   UNL     1      -4.548  -1.423  -2.284  0.00  0.00    -0.076 S 
ATOM     12  C   UNL     1      -3.358  -1.031  -1.028  0.00  0.00    +0.116 A 
ATOM     13  N   UNL     1      -2.091  -0.626  -1.041  0.00  0.00    -0.225 NA
BRANCH   9  14
ATOM     14  C   UNL     1      -6.293  -1.928   1.194  0.00  0.00    +0.021 A 
ATOM     15  C   UNL     1      -7.557  -1.473   1.460  0.00  0.00    +0.016 A 
ATOM     16  C   UNL     1      -8.159  -1.847   2.643  0.00  0.00    +0.008 A 
ATOM     17  C   UNL     1      -7.484  -2.650   3.504  0.00  0.00    +0.046 A 
ATOM     18  S   UNL     1      -5.944  -2.914   2.641  0.00  0.00    -0.097 S 
ENDBRANCH   9  14
ENDBRANCH   2   3
BRANCH   2  19
ATOM     19  S   UNL     1       0.839  -0.435   1.548  0.00  0.00    -0.074 S 
BRANCH  19  20
ATOM     20  C   UNL     1       2.517   0.025   1.271  0.00  0.00    +0.209 A 
ATOM     21  N   UNL     1       3.002   0.589   0.188  0.00  0.00    -0.121 NA
ATOM     22  N   UNL     1       4.264   0.789   0.321  0.00  0.00    -0.127 NA
ATOM     23  C   UNL     1       4.664   0.364   1.498  0.00  0.00    +0.185 A 
ATOM     24  N   UNL     1       3.556  -0.134   2.144  0.00  0.00    -0.224 N 
BRANCH  23  25
ATOM     25  C   UNL     1       6.042   0.414   2.028  0.00  0.00    +0.062 A 
ATOM     26  C   UNL     1       6.601  -0.710   2.637  0.00  0.00    +0.015 A 
ATOM     27  C   UNL     1       7.888  -0.656   3.131  0.00  0.00    +0.001 A 
ATOM     28  C   UNL     1       8.627   0.509   3.025  0.00  0.00    +0.004 A 
ATOM     29  C   UNL     1       8.084   1.629   2.425  0.00  0.00    +0.046 A 
ATOM     30  C   UNL     1       6.795   1.589   1.918  0.00  0.00    +0.131 A 
BRANCH  30  31
ATOM     31  O   UNL     1       6.263   2.688   1.322  0.00  0.00    -0.494 OA
ATOM     32  C   UNL     1       7.091   3.850   1.246  0.00  0.00    +0.277 C 
ENDBRANCH  30  31
ENDBRANCH  23  25
BRANCH  24  33
ATOM     33  N   UNL     1       3.506  -0.676   3.397  0.00  0.00    -0.295 N 
ATOM     34  H   UNL     1       3.750  -1.655   3.378  0.00  0.00    +0.163 HD
ATOM     35  H   UNL     1       4.100  -0.168   4.035  0.00  0.00    +0.163 HD
ENDBRANCH  24  33
ENDBRANCH  19  20
ENDBRANCH   2  19
TORSDOF 7
