REMARK  Name = ZINC59015725
REMARK  7 active torsions:
REMARK  status: ('A' for Active; 'I' for Inactive)
REMARK    1  A    between atoms: C_1  and  C_2
REMARK    2  A    between atoms: C_7  and  N_8
REMARK    3  A    between atoms: C_9  and  C_11
REMARK    4  A    between atoms: C_11  and  S_12
REMARK    5  A    between atoms: S_12  and  C_13
REMARK    6  A    between atoms: N_18  and  N_19
REMARK    7  A    between atoms: C_20  and  C_21
REMARK                            x       y       z     vdW  Elec       q    Type
REMARK                         _______ _______ _______ _____ _____    ______ ____
ROOT
ATOM      1  C   UNL     1      -0.386  -0.116   7.687  0.00  0.00    +0.211 A 
ATOM      2  N   UNL     1      -0.472  -0.557   8.946  0.00  0.00    -0.186 NA
ATOM      3  C   UNL     1      -0.552   0.467   9.770  0.00  0.00    +0.232 A 
ATOM      4  N   UNL     1      -0.515   1.598   9.034  0.00  0.00    -0.245 N 
ATOM      5  N   UNL     1      -0.403   1.196   7.693  0.00  0.00    -0.144 NA
ATOM      6  N   UNL     1      -0.654   0.396  11.147  0.00  0.00    -0.205 N 
ATOM      7  H   UNL     1      -0.708   1.210  11.672  0.00  0.00    +0.177 HD
ATOM      8  H   UNL     1      -0.556   2.508   9.366  0.00  0.00    +0.192 HD
ENDROOT
BRANCH   6   9
ATOM      9  N   UNL     1      -0.681  -0.851  11.785  0.00  0.00    -0.188 NA
ATOM     10  C   UNL     1      -0.777  -0.917  13.078  0.00  0.00    +0.139 C 
BRANCH  10  11
ATOM     11  C   UNL     1      -0.805  -2.230  13.748  0.00  0.00    +0.014 A 
ATOM     12  C   UNL     1      -0.914  -2.305  15.139  0.00  0.00    +0.011 A 
ATOM     13  C   UNL     1      -0.940  -3.536  15.761  0.00  0.00    +0.002 A 
ATOM     14  C   UNL     1      -0.858  -4.697  15.011  0.00  0.00    +0.021 A 
ATOM     15  C   UNL     1      -0.749  -4.631  13.632  0.00  0.00    +0.060 A 
ATOM     16  C   UNL     1      -0.728  -3.405  12.995  0.00  0.00    +0.068 A 
ATOM     17 CL   UNL     1      -0.600  -3.324  11.266  0.00  0.00    -0.081 Cl
ATOM     18 CL   UNL     1      -0.646  -6.093  12.701  0.00  0.00    -0.082 Cl
ENDBRANCH  10  11
ENDBRANCH   6   9
BRANCH   1  19
ATOM     19  S   UNL     1      -0.260  -1.131   6.253  0.00  0.00    -0.075 S 
BRANCH  19  20
ATOM     20  C   UNL     1      -0.169   0.054   4.882  0.00  0.00    +0.173 C 
BRANCH  20  22
ATOM     21  N   UNL     1       0.025  -0.014   2.417  0.00  0.00    -0.285 N 
ATOM     22  C   UNL     1      -0.057  -0.693   3.578  0.00  0.00    +0.227 C 
ATOM     23  O   UNL     1      -0.040  -1.906   3.574  0.00  0.00    -0.275 OA
ATOM     24  H   UNL     1       0.077   0.955   2.425  0.00  0.00    +0.155 HD
BRANCH  21  31
ATOM     25  C   UNL     1      -1.265   1.183   0.181  0.00  0.00    +0.046 C 
ATOM     26  C   UNL     1      -0.584  -0.158   0.084  0.00  0.00    -0.028 A 
ATOM     27  C   UNL     1      -0.569  -0.841  -1.116  0.00  0.00    +0.025 A 
ATOM     28  C   UNL     1       0.056  -2.072  -1.206  0.00  0.00    +0.041 A 
ATOM     29  C   UNL     1       0.668  -2.623  -0.093  0.00  0.00    +0.022 A 
ATOM     30  C   UNL     1       0.656  -1.944   1.109  0.00  0.00    +0.025 A 
ATOM     31  C   UNL     1       0.034  -0.706   1.201  0.00  0.00    +0.036 A 
ATOM     32 CL   UNL     1       0.072  -2.928  -2.716  0.00  0.00    -0.084 Cl
ENDBRANCH  21  31
ENDBRANCH  20  22
ENDBRANCH  19  20
ENDBRANCH   1  19
TORSDOF 6
