REMARK  Name = ZINC16024685
REMARK  7 active torsions:
REMARK  status: ('A' for Active; 'I' for Inactive)
REMARK    1  A    between atoms: C_1  and  C_2
REMARK    2  A    between atoms: C_2  and  C_4
REMARK    3  A    between atoms: C_2  and  O_31
REMARK    4  A    between atoms: N_12  and  C_15
REMARK    5  A    between atoms: C_15  and  C_16
REMARK    6  A    between atoms: C_16  and  O_17
REMARK    7  A    between atoms: O_17  and  C_18
REMARK                            x       y       z     vdW  Elec       q    Type
REMARK                         _______ _______ _______ _____ _____    ______ ____
ROOT
ATOM      1  C   UNL     1      -1.433  -0.534   0.013  0.00  0.00    +0.096 C 
ATOM      2  C   UNL     1      -1.437  -2.077  -0.034  0.00  0.00    +0.109 C 
ATOM      3  C   UNL     1      -2.651  -2.444  -0.933  0.00  0.00    +0.122 C 
ATOM      4  C   UNL     1      -3.594  -3.141   0.022  0.00  0.00    +0.228 C 
ATOM      5  O   UNL     1      -4.679  -3.593  -0.271  0.00  0.00    -0.275 OA
ATOM      6  N   UNL     1      -3.043  -3.181   1.241  0.00  0.00    -0.239 N 
ATOM      7  C   UNL     1      -1.817  -2.614   1.327  0.00  0.00    +0.227 C 
ATOM      8  O   UNL     1      -1.132  -2.541   2.325  0.00  0.00    -0.275 OA
ATOM      9  C   UNL     1      -3.233  -1.094  -1.368  0.00  0.00    +0.136 C 
ATOM     10  N   UNL     1      -2.150  -0.111  -1.220  0.00  0.00    -0.293 NA
ATOM     11  C   UNL     1      -3.761  -1.149  -2.773  0.00  0.00    +0.004 A 
ATOM     12  C   UNL     1      -3.189  -1.446  -3.990  0.00  0.00    +0.023 A 
ATOM     13  C   UNL     1      -3.955  -1.411  -5.142  0.00  0.00    +0.018 A 
ATOM     14  C   UNL     1      -5.296  -1.076  -5.068  0.00  0.00    +0.017 A 
ATOM     15  C   UNL     1      -5.872  -0.779  -3.850  0.00  0.00    +0.025 A 
ATOM     16  C   UNL     1      -5.109  -0.813  -2.686  0.00  0.00    +0.039 A 
ATOM     17  N   UNL     1      -5.459  -0.560  -1.358  0.00  0.00    -0.283 N 
ATOM     18  C   UNL     1      -4.413  -0.705  -0.520  0.00  0.00    +0.243 C 
ATOM     19  O   UNL     1      -4.422  -0.552   0.683  0.00  0.00    -0.273 OA
ATOM     20 BR   UNL     1      -3.171  -1.818  -6.814  0.00  0.00    -0.050 Br
ATOM     21  H   UNL     1      -2.514   0.825  -1.123  0.00  0.00    +0.124 HD
ATOM     22  H   UNL     1      -6.351  -0.308  -1.071  0.00  0.00    +0.155 HD
ENDROOT
BRANCH   1  24
ATOM     23  C   UNL     1      -0.019   1.526   0.010  0.00  0.00    +0.039 C 
ATOM     24  C   UNL     1       0.002  -0.004   0.002  0.00  0.00    +0.129 C 
BRANCH  24  25
ATOM     25  O   UNL     1       0.693  -0.477   1.160  0.00  0.00    -0.390 OA
ATOM     26  H   UNL     1       1.611  -0.180   1.219  0.00  0.00    +0.210 HD
ENDBRANCH  24  25
ENDBRANCH   1  24
BRANCH   6  27
ATOM     27  C   UNL     1      -3.709  -3.795   2.391  0.00  0.00    +0.144 C 
BRANCH  27  28
ATOM     28  C   UNL     1      -3.326  -5.274   2.472  0.00  0.00    +0.179 C 
BRANCH  28  29
ATOM     29  O   UNL     1      -1.927  -5.390   2.740  0.00  0.00    -0.381 OA
ATOM     30  C   UNL     1      -1.463  -6.738   2.835  0.00  0.00    +0.194 C 
ENDBRANCH  28  29
ENDBRANCH  27  28
ENDBRANCH   6  27
TORSDOF 5
