REMARK  Name = ZINC64085444
REMARK  6 active torsions:
REMARK  status: ('A' for Active; 'I' for Inactive)
REMARK    1  A    between atoms: C_1  and  C_2
REMARK    2  A    between atoms: C_2  and  C_3
REMARK    3  A    between atoms: C_2  and  C_4
REMARK    4  A    between atoms: C_6  and  C_21
REMARK    5  A    between atoms: C_14  and  C_17
REMARK    6  A    between atoms: C_26  and  C_29
REMARK                            x       y       z     vdW  Elec       q    Type
REMARK                         _______ _______ _______ _____ _____    ______ ____
ROOT
ATOM      1  C   UNL     1      -1.771  -0.435  -0.357  0.00  0.00    +0.134 C 
ATOM      2  C   UNL     1      -1.676  -1.943  -0.274  0.00  0.00    +0.052 C 
ATOM      3  H   UNL     1      -2.947  -1.268   2.540  0.00  0.00    +0.170 HD
ATOM      4  C   UNL     1      -2.163  -2.301   0.929  0.00  0.00    +0.098 C 
ATOM      5  N   UNL     1      -2.567  -1.223   1.649  0.00  0.00    -0.269 N 
ATOM      6  N   UNL     1      -2.363  -0.034   0.931  0.00  0.00    -0.229 N 
ATOM      7  C   UNL     1      -2.657   1.259   1.349  0.00  0.00    +0.138 A 
ATOM      8  C   UNL     1      -3.184   1.470   2.619  0.00  0.00    +0.046 A 
ATOM      9  C   UNL     1      -3.472   2.761   3.022  0.00  0.00    +0.017 A 
ATOM     10  C   UNL     1      -3.222   3.802   2.137  0.00  0.00    +0.073 A 
ATOM     11  C   UNL     1      -2.698   3.521   0.892  0.00  0.00    +0.125 A 
ATOM     12  N   UNL     1      -2.428   2.279   0.536  0.00  0.00    -0.238 NA
ENDROOT
BRANCH   2  13
ATOM     13  C   UNL     1      -1.171  -2.811  -1.271  0.00  0.00    +0.246 C 
ATOM     14  O   UNL     1       0.017  -3.076  -1.302  0.00  0.00    -0.270 OA
ATOM     15  N   UNL     1      -2.005  -3.345  -2.185  0.00  0.00    -0.294 N 
ATOM     16  C   UNL     1      -1.530  -4.330  -3.171  0.00  0.00    +0.113 C 
ATOM     17  C   UNL     1      -2.277  -5.644  -2.925  0.00  0.00    +0.054 C 
ATOM     18  C   UNL     1      -3.743  -5.385  -2.742  0.00  0.00    -0.043 C 
ATOM     19  C   UNL     1      -4.258  -4.202  -2.429  0.00  0.00    -0.004 C 
ATOM     20  C   UNL     1      -3.425  -2.970  -2.234  0.00  0.00    +0.135 C 
BRANCH  18  21
ATOM     21  C   UNL     1      -4.630  -6.467  -2.912  0.00  0.00    -0.015 C 
ATOM     22  C   UNL     1      -4.300  -7.800  -3.122  0.00  0.00    +0.022 A 
ATOM     23  C   UNL     1      -3.062  -8.476  -3.229  0.00  0.00    +0.013 A 
ATOM     24  C   UNL     1      -3.078  -9.822  -3.441  0.00  0.00    +0.020 A 
ATOM     25  C   UNL     1      -4.287 -10.509  -3.549  0.00  0.00    +0.113 A 
ATOM     26  N   UNL     1      -5.449  -9.914  -3.455  0.00  0.00    -0.238 NA
ATOM     27  C   UNL     1      -5.543  -8.583  -3.245  0.00  0.00    +0.135 A 
ATOM     28  N   UNL     1      -6.591  -7.799  -3.121  0.00  0.00    -0.365 N 
ATOM     29  C   UNL     1      -6.142  -6.421  -2.897  0.00  0.00    +0.150 C 
ATOM     30  H   UNL     1      -7.516  -8.087  -3.166  0.00  0.00    +0.161 HD
ENDBRANCH  18  21
ENDBRANCH   2  13
BRANCH  10  31
ATOM     31  C   UNL     1      -3.521   5.225   2.533  0.00  0.00    +0.419 C 
ATOM     32  F   UNL     1      -2.394   5.787   3.142  0.00  0.00    -0.166 F 
ATOM     33  F   UNL     1      -3.853   5.966   1.394  0.00  0.00    -0.166 F 
ATOM     34  F   UNL     1      -4.594   5.244   3.431  0.00  0.00    -0.166 F 
ENDBRANCH  10  31
BRANCH   1  36
ATOM     35  C   UNL     1       0.566  -0.411   0.525  0.00  0.00    +0.009 C 
ATOM     36  C   UNL     1      -0.380   0.181  -0.521  0.00  0.00    +0.010 C 
ATOM     37  C   UNL     1       0.151  -0.128  -1.923  0.00  0.00    +0.009 C 
ENDBRANCH   1  36
TORSDOF 4
