REMARK  Name = ZINC67457894
REMARK  5 active torsions:
REMARK  status: ('A' for Active; 'I' for Inactive)
REMARK    1  A    between atoms: C_4  and  C_7
REMARK    2  A    between atoms: C_7  and  C_8
REMARK    3  A    between atoms: C_8  and  C_9
REMARK    4  A    between atoms: C_9  and  C_26
REMARK    5  A    between atoms: C_26  and  O_27
REMARK                            x       y       z     vdW  Elec       q    Type
REMARK                         _______ _______ _______ _____ _____    ______ ____
ROOT
ATOM      1  C   UNL     1       5.503  -1.635   1.496  0.00  0.00    +0.010 C 
ATOM      2  C   UNL     1       6.608  -0.755   0.906  0.00  0.00    +0.012 C 
ATOM      3  C   UNL     1       7.945  -1.496   0.978  0.00  0.00    +0.020 C 
ATOM      4  C   UNL     1       8.287  -1.784   2.443  0.00  0.00    +0.106 C 
ATOM      5  N   UNL     1       7.165  -2.505   3.058  0.00  0.00    -0.314 N 
ATOM      6  C   UNL     1       5.818  -1.924   2.967  0.00  0.00    +0.115 C 
ATOM      7  C   UNL     1       7.371  -3.705   3.708  0.00  0.00    +0.137 A 
ATOM      8  C   UNL     1       7.749  -3.734   5.065  0.00  0.00    +0.078 A 
ATOM      9  C   UNL     1       8.001  -2.749   6.045  0.00  0.00    +0.147 A 
ATOM     10  N   UNL     1       8.323  -3.346   7.157  0.00  0.00    -0.180 NA
ATOM     11  N   UNL     1       8.301  -4.734   6.971  0.00  0.00    -0.260 N 
ATOM     12  H   UNL     1       8.503  -5.401   7.646  0.00  0.00    +0.191 HD
ATOM     13  C   UNL     1       7.947  -4.986   5.679  0.00  0.00    +0.163 A 
ATOM     14  N   UNL     1       7.769  -6.092   4.958  0.00  0.00    -0.195 NA
ATOM     15  C   UNL     1       7.414  -6.017   3.687  0.00  0.00    +0.216 A 
ATOM     16  N   UNL     1       7.212  -4.859   3.070  0.00  0.00    -0.199 NA
ATOM     17  N   UNL     1       7.240  -7.191   2.974  0.00  0.00    -0.327 N 
ATOM     18  H   UNL     1       7.379  -8.047   3.407  0.00  0.00    +0.145 HD
ATOM     19  H   UNL     1       6.980  -7.157   2.040  0.00  0.00    +0.145 HD
ENDROOT
BRANCH   1  20
ATOM     20  C   UNL     1       4.162  -0.906   1.395  0.00  0.00    +0.015 C 
BRANCH  20  21
ATOM     21  C   UNL     1       3.062  -1.775   2.009  0.00  0.00    +0.036 C 
BRANCH  21  25
ATOM     22  C   UNL     1      -0.664   0.307   1.835  0.00  0.00    +0.000 A 
ATOM     23  C   UNL     1      -0.280  -0.512   0.789  0.00  0.00    +0.000 A 
ATOM     24  C   UNL     1       0.926  -1.185   0.846  0.00  0.00    +0.003 A 
ATOM     25  C   UNL     1       1.748  -1.040   1.948  0.00  0.00    -0.047 A 
ATOM     26  C   UNL     1       1.364  -0.221   2.993  0.00  0.00    +0.003 A 
ATOM     27  C   UNL     1       0.158   0.452   2.937  0.00  0.00    +0.000 A 
ENDBRANCH  21  25
ENDBRANCH  20  21
ENDBRANCH   1  20
BRANCH   1  28
ATOM     28  C   UNL     1       5.430  -2.952   0.721  0.00  0.00    +0.164 C 
BRANCH  28  29
ATOM     29  O   UNL     1       5.208  -2.678  -0.664  0.00  0.00    -0.394 OA
ATOM     30  H   UNL     1       5.151  -3.469  -1.217  0.00  0.00    +0.209 HD
ENDBRANCH  28  29
ENDBRANCH   1  28
TORSDOF 5
