REMARK  Name = ZINC39682064
REMARK  11 active torsions:
REMARK  status: ('A' for Active; 'I' for Inactive)
REMARK    1  A    between atoms: C_1  and  C_2
REMARK    2  A    between atoms: C_4  and  C_7
REMARK    3  A    between atoms: C_7  and  N_8
REMARK    4  A    between atoms: C_9  and  C_11
REMARK    5  A    between atoms: C_22  and  C_24
REMARK    6  A    between atoms: C_26  and  O_34
REMARK    7  A    between atoms: C_27  and  O_32
REMARK    8  A    between atoms: C_28  and  O_30
REMARK    9  A    between atoms: O_30  and  C_31
REMARK   10  A    between atoms: O_32  and  C_33
REMARK   11  A    between atoms: O_34  and  C_35
REMARK                            x       y       z     vdW  Elec       q    Type
REMARK                         _______ _______ _______ _____ _____    ______ ____
ROOT
ATOM      1  C   UNL     1      -3.944  -4.324   3.709  0.00  0.00    +0.100 C 
ATOM      2  C   UNL     1      -4.361  -2.873   4.037  0.00  0.00    +0.121 C 
ATOM      3  N   UNL     1      -5.817  -2.832   3.766  0.00  0.00    -0.296 N 
ATOM      4  C   UNL     1      -6.321  -4.134   4.263  0.00  0.00    +0.115 C 
ATOM      5  C   UNL     1      -5.232  -5.149   3.863  0.00  0.00    -0.004 C 
ATOM      6  C   UNL     1      -5.060  -6.199   4.957  0.00  0.00    -0.010 C 
ATOM      7  C   UNL     1      -6.333  -7.045   5.051  0.00  0.00    -0.082 C 
ATOM      8  N   UNL     1      -6.589  -7.693   3.759  0.00  0.00    +0.379 N 
ATOM      9  C   UNL     1      -6.845  -6.677   2.731  0.00  0.00    -0.082 C 
ATOM     10  C   UNL     1      -5.594  -5.815   2.539  0.00  0.00    -0.010 C 
ATOM     11  C   UNL     1      -6.524  -1.835   3.198  0.00  0.00    +0.247 C 
ATOM     12  O   UNL     1      -5.949  -0.874   2.725  0.00  0.00    -0.270 OA
ATOM     13  H   UNL     1      -5.784  -8.242   3.494  0.00  0.00    -0.086 HD
ATOM     14  H   UNL     1      -7.392  -8.297   3.840  0.00  0.00    -0.086 HD
ENDROOT
BRANCH  11  15
ATOM     15  C   UNL     1      -7.998  -1.910   3.148  0.00  0.00    +0.044 A 
ATOM     16  C   UNL     1      -8.686  -2.738   4.039  0.00  0.00    +0.062 A 
ATOM     17  C   UNL     1     -10.066  -2.806   3.991  0.00  0.00    +0.166 A 
ATOM     18  C   UNL     1     -10.770  -2.051   3.056  0.00  0.00    +0.204 A 
ATOM     19  C   UNL     1     -10.086  -1.226   2.168  0.00  0.00    +0.166 A 
ATOM     20  C   UNL     1      -8.706  -1.149   2.215  0.00  0.00    +0.062 A 
BRANCH  19  21
ATOM     21  O   UNL     1     -10.776  -0.490   1.255  0.00  0.00    -0.491 OA
ATOM     22  C   UNL     1     -10.011   0.335   0.375  0.00  0.00    +0.277 C 
ENDBRANCH  19  21
BRANCH  18  23
ATOM     23  O   UNL     1     -12.126  -2.120   3.011  0.00  0.00    -0.488 OA
ATOM     24  C   UNL     1     -12.850  -1.193   3.822  0.00  0.00    +0.277 C 
ENDBRANCH  18  23
BRANCH  17  25
ATOM     25  O   UNL     1     -10.737  -3.611   4.857  0.00  0.00    -0.491 OA
ATOM     26  C   UNL     1      -9.952  -4.358   5.789  0.00  0.00    +0.277 C 
ENDBRANCH  17  25
ENDBRANCH  11  15
BRANCH   1  28
ATOM     27  N   UNL     1      -2.589  -5.412   1.949  0.00  0.00    -0.309 N 
ATOM     28  C   UNL     1      -3.427  -4.415   2.297  0.00  0.00    +0.219 C 
ATOM     29  O   UNL     1      -3.766  -3.592   1.473  0.00  0.00    -0.275 OA
ATOM     30  H   UNL     1      -2.318  -6.070   2.608  0.00  0.00    +0.149 HD
BRANCH  27  31
ATOM     31  C   UNL     1      -2.087  -5.501   0.576  0.00  0.00    +0.160 C 
BRANCH  31  35
ATOM     32  C   UNL     1       2.362  -7.758   0.971  0.00  0.00    +0.073 C 
ATOM     33  C   UNL     1       0.891  -7.662   0.657  0.00  0.00    +0.076 A 
ATOM     34  N   UNL     1       0.102  -6.622   0.767  0.00  0.00    -0.248 NA
ATOM     35  C   UNL     1      -1.175  -6.694   0.450  0.00  0.00    +0.066 A 
ATOM     36  C   UNL     1      -1.633  -7.893   0.007  0.00  0.00    +0.071 A 
ATOM     37  S   UNL     1      -0.134  -8.862   0.073  0.00  0.00    -0.080 S 
ENDBRANCH  31  35
ENDBRANCH  27  31
ENDBRANCH   1  28
TORSDOF 7
