REMARK  Name = ZINC06243660
REMARK  8 active torsions:
REMARK  status: ('A' for Active; 'I' for Inactive)
REMARK    1  A    between atoms: C_1  and  C_2
REMARK    2  A    between atoms: C_2  and  C_3
REMARK    3  A    between atoms: C_6  and  N_9
REMARK    4  A    between atoms: N_9  and  C_10
REMARK    5  A    between atoms: C_16  and  C_17
REMARK    6  A    between atoms: C_21  and  O_24
REMARK    7  A    between atoms: C_22  and  O_23
REMARK    8  A    between atoms: O_24  and  C_25
REMARK                            x       y       z     vdW  Elec       q    Type
REMARK                         _______ _______ _______ _____ _____    ______ ____
ROOT
ATOM      1  C   UNL     1      -4.550  -0.328  -0.264  0.00  0.00    +0.224 C 
ATOM      2  N   UNL     1      -4.845   1.114  -0.280  0.00  0.00    -0.284 N 
ATOM      3  C   UNL     1      -3.833   1.958  -0.191  0.00  0.00    +0.252 C 
ATOM      4  O   UNL     1      -4.031   3.159  -0.200  0.00  0.00    -0.270 OA
ATOM      5  C   UNL     1      -2.461   1.432  -0.081  0.00  0.00    +0.074 C 
ATOM      6  C   UNL     1      -1.297   2.117   0.020  0.00  0.00    +0.031 C 
ATOM      7  S   UNL     1      -2.717  -0.336  -0.121  0.00  0.00    -0.078 S 
ATOM      8  H   UNL     1      -5.758   1.435  -0.353  0.00  0.00    +0.152 HD
ENDROOT
BRANCH   6   9
ATOM      9  C   UNL     1      -0.042   1.398   0.277  0.00  0.00    +0.023 A 
ATOM     10  C   UNL     1      -0.069   0.091   0.777  0.00  0.00    +0.031 A 
ATOM     11  C   UNL     1       1.112  -0.581   1.012  0.00  0.00    +0.045 A 
ATOM     12  C   UNL     1       2.329   0.031   0.755  0.00  0.00    +0.069 A 
ATOM     13  C   UNL     1       2.371   1.325   0.260  0.00  0.00    +0.163 A 
ATOM     14  C   UNL     1       1.190   2.016   0.018  0.00  0.00    +0.166 A 
ATOM     15 CL   UNL     1       1.075  -2.202   1.633  0.00  0.00    -0.083 Cl
BRANCH  14  16
ATOM     16  O   UNL     1       1.229   3.284  -0.469  0.00  0.00    -0.503 OA
ATOM     17  H   UNL     1       1.255   3.967   0.216  0.00  0.00    +0.292 HD
ENDBRANCH  14  16
BRANCH  13  18
ATOM     18  O   UNL     1       3.569   1.918   0.009  0.00  0.00    -0.491 OA
ATOM     19  C   UNL     1       4.743   1.149   0.281  0.00  0.00    +0.277 C 
ENDBRANCH  13  18
ENDBRANCH   6   9
BRANCH   1  20
ATOM     20  N   UNL     1      -4.975  -0.963  -1.514  0.00  0.00    -0.317 N 
ATOM     21  H   UNL     1      -5.185  -0.418  -2.288  0.00  0.00    +0.149 HD
BRANCH  20  25
ATOM     22  C   UNL     1      -5.282  -5.109  -1.742  0.00  0.00    -0.048 A 
ATOM     23  C   UNL     1      -5.582  -4.333  -2.846  0.00  0.00    +0.005 A 
ATOM     24  C   UNL     1      -5.482  -2.958  -2.774  0.00  0.00    +0.023 A 
ATOM     25  C   UNL     1      -5.078  -2.354  -1.590  0.00  0.00    +0.029 A 
ATOM     26  C   UNL     1      -4.773  -3.136  -0.484  0.00  0.00    +0.023 A 
ATOM     27  C   UNL     1      -4.880  -4.511  -0.561  0.00  0.00    +0.005 A 
BRANCH  22  29
ATOM     28  C   UNL     1      -4.056  -7.196  -2.281  0.00  0.00    +0.009 C 
ATOM     29  C   UNL     1      -5.394  -6.610  -1.824  0.00  0.00    +0.032 C 
ENDBRANCH  22  29
ENDBRANCH  20  25
ENDBRANCH   1  20
TORSDOF 6
