REMARK  Name = ZINC67374384
REMARK  7 active torsions:
REMARK  status: ('A' for Active; 'I' for Inactive)
REMARK    1  A    between atoms: C_1  and  C_2
REMARK    2  A    between atoms: C_2  and  C_4
REMARK    3  A    between atoms: C_2  and  N_10
REMARK    4  A    between atoms: N_10  and  C_11
REMARK    5  A    between atoms: C_11  and  C_16
REMARK    6  A    between atoms: C_16  and  N_17
REMARK    7  A    between atoms: N_22  and  C_27
REMARK                            x       y       z     vdW  Elec       q    Type
REMARK                         _______ _______ _______ _____ _____    ______ ____
ROOT
ATOM      1  C   UNL     1      -0.203   0.615  -2.431  0.00  0.00    -0.052 C 
ATOM      2  C   UNL     1      -1.451  -0.285  -2.427  0.00  0.00    -0.011 C 
ATOM      3  C   UNL     1      -1.678  -0.731  -3.886  0.00  0.00    -0.001 C 
ATOM      4  C   UNL     1      -0.282  -0.601  -4.544  0.00  0.00    -0.001 C 
ATOM      5  C   UNL     1       0.285   0.684  -3.893  0.00  0.00    -0.011 C 
ENDROOT
BRANCH   1   6
ATOM      6  N   UNL     1       0.841   0.030  -1.579  0.00  0.00    +0.388 N 
ATOM      7  H   UNL     1       1.709   0.524  -1.723  0.00  0.00    -0.084 HD
ATOM      8  H   UNL     1       0.965  -0.943  -1.817  0.00  0.00    -0.084 HD
BRANCH   6  10
ATOM      9  C   UNL     1       1.618  -0.255   0.726  0.00  0.00    -0.009 C 
ATOM     10  C   UNL     1       0.443   0.142  -0.169  0.00  0.00    -0.043 C 
BRANCH  10  11
ATOM     11  C   UNL     1      -0.724  -0.774   0.097  0.00  0.00    -0.062 A 
ATOM     12  C   UNL     1      -0.605  -2.131  -0.140  0.00  0.00    +0.002 A 
ATOM     13  C   UNL     1      -1.675  -2.971   0.105  0.00  0.00    +0.000 A 
ATOM     14  C   UNL     1      -2.863  -2.455   0.587  0.00  0.00    +0.000 A 
ATOM     15  C   UNL     1      -2.982  -1.098   0.825  0.00  0.00    +0.000 A 
ATOM     16  C   UNL     1      -1.910  -0.259   0.584  0.00  0.00    +0.002 A 
ENDBRANCH  10  11
ENDBRANCH   6  10
ENDBRANCH   1   6
BRANCH   1  17
ATOM     17  C   UNL     1      -0.563   2.015  -1.931  0.00  0.00    +0.090 C 
BRANCH  17  18
ATOM     18  N   UNL     1       0.647   2.840  -1.875  0.00  0.00    -0.330 N 
ATOM     19  C   UNL     1       0.569   4.152  -1.450  0.00  0.00    +0.133 A 
ATOM     20  C   UNL     1       1.720   4.961  -1.394  0.00  0.00    +0.078 A 
ATOM     21  C   UNL     1       3.087   4.766  -1.691  0.00  0.00    +0.148 A 
ATOM     22  N   UNL     1       3.723   5.877  -1.452  0.00  0.00    -0.177 NA
ATOM     23  N   UNL     1       2.824   6.847  -0.993  0.00  0.00    -0.249 N 
ATOM     24  C   UNL     1       1.579   6.291  -0.953  0.00  0.00    +0.163 A 
ATOM     25  N   UNL     1       0.369   6.729  -0.608  0.00  0.00    -0.216 NA
ATOM     26  C   UNL     1      -0.676   5.935  -0.677  0.00  0.00    +0.225 A 
ATOM     27  N   UNL     1      -0.594   4.682  -1.090  0.00  0.00    -0.220 NA
ATOM     28  C   UNL     1       3.161   8.223  -0.619  0.00  0.00    +0.174 C 
ATOM     29  H   UNL     1       1.502   2.464  -2.135  0.00  0.00    +0.147 HD
ENDBRANCH  17  18
ENDBRANCH   1  17
TORSDOF 5
