REMARK  Name = ZINC06286390
REMARK  6 active torsions:
REMARK  status: ('A' for Active; 'I' for Inactive)
REMARK    1  A    between atoms: C_1  and  C_2
REMARK    2  A    between atoms: C_4  and  C_14
REMARK    3  A    between atoms: C_5  and  C_13
REMARK    4  A    between atoms: N_6  and  C_7
REMARK    5  A    between atoms: N_16  and  N_17
REMARK    6  A    between atoms: C_18  and  C_19
REMARK                            x       y       z     vdW  Elec       q    Type
REMARK                         _______ _______ _______ _____ _____    ______ ____
ROOT
ATOM      1  C   UNL     1       1.141   2.087   0.002  0.00  0.00    +0.265 C 
ATOM      2  O   UNL     1       2.203   1.493  -0.011  0.00  0.00    -0.268 OA
ATOM      3  N   UNL     1      -0.017   1.397   0.010  0.00  0.00    -0.203 N 
ATOM      4  H   UNL     1      -0.864   1.870   0.016  0.00  0.00    +0.178 HD
ENDROOT
BRANCH   1   8
ATOM      5  C   UNL     1      -0.473   6.927   0.044  0.00  0.00    +0.064 C 
ATOM      6  C   UNL     1       0.388   5.690   0.029  0.00  0.00    +0.022 A 
ATOM      7  C   UNL     1      -0.064   4.423   0.027  0.00  0.00    +0.036 A 
ATOM      8  C   UNL     1       1.121   3.558   0.011  0.00  0.00    +0.059 A 
ATOM      9  C   UNL     1       2.204   4.395   0.010  0.00  0.00    +0.033 A 
ATOM     10  N   UNL     1       1.754   5.672   0.015  0.00  0.00    -0.317 N 
ATOM     11  C   UNL     1       3.649   3.967   0.002  0.00  0.00    +0.064 C 
BRANCH  10  12
ATOM     12  C   UNL     1       2.571   6.811   0.013  0.00  0.00    +0.047 A 
ATOM     13  C   UNL     1       3.383   7.083  -1.080  0.00  0.00    +0.026 A 
ATOM     14  C   UNL     1       4.183   8.209  -1.081  0.00  0.00    +0.002 A 
ATOM     15  C   UNL     1       4.185   9.059   0.009  0.00  0.00    +0.000 A 
ATOM     16  C   UNL     1       3.381   8.788   1.102  0.00  0.00    +0.002 A 
ATOM     17  C   UNL     1       2.575   7.667   1.107  0.00  0.00    +0.026 A 
ENDBRANCH  10  12
ENDBRANCH   1   8
BRANCH   3  18
ATOM     18  N   UNL     1       0.002  -0.004   0.002  0.00  0.00    -0.187 NA
ATOM     19  C   UNL     1      -1.113  -0.668   0.009  0.00  0.00    +0.142 C 
BRANCH  19  20
ATOM     20  C   UNL     1      -1.093  -2.142   0.001  0.00  0.00    +0.048 A 
ATOM     21  C   UNL     1      -2.293  -2.862   0.009  0.00  0.00    +0.133 A 
ATOM     22  C   UNL     1      -2.265  -4.243   0.001  0.00  0.00    +0.039 A 
ATOM     23  C   UNL     1      -1.055  -4.914  -0.014  0.00  0.00    +0.004 A 
ATOM     24  C   UNL     1       0.135  -4.209  -0.022  0.00  0.00    +0.021 A 
ATOM     25  C   UNL     1       0.125  -2.828  -0.020  0.00  0.00    +0.052 A 
ATOM     26 CL   UNL     1       1.620  -1.947  -0.037  0.00  0.00    -0.083 Cl
ATOM     27  F   UNL     1      -3.475  -2.208   0.024  0.00  0.00    -0.205 F 
ENDBRANCH  19  20
ENDBRANCH   3  18
TORSDOF 4
