REMARK  Name = ZINC39640680
REMARK  8 active torsions:
REMARK  status: ('A' for Active; 'I' for Inactive)
REMARK    1  A    between atoms: C_1  and  C_2
REMARK    2  A    between atoms: C_9  and  C_16
REMARK    3  A    between atoms: C_11  and  O_12
REMARK    4  A    between atoms: C_16  and  O_17
REMARK    5  A    between atoms: O_17  and  C_18
REMARK    6  A    between atoms: C_18  and  C_20
REMARK    7  A    between atoms: N_29  and  C_31
REMARK    8  A    between atoms: C_31  and  C_32
REMARK                            x       y       z     vdW  Elec       q    Type
REMARK                         _______ _______ _______ _____ _____    ______ ____
ROOT
ATOM      1  C   UNL     1      -4.367  -6.986   0.391  0.00  0.00    +0.360 C 
ATOM      2  O   UNL     1      -4.429  -8.196   0.481  0.00  0.00    -0.243 OA
ENDROOT
BRANCH   1   3
ATOM      3  C   UNL     1      -5.605  -6.184   0.371  0.00  0.00    +0.176 A 
ATOM      4  C   UNL     1      -6.920  -6.841   0.465  0.00  0.00    +0.021 A 
ATOM      5  C   UNL     1      -7.067  -8.219   0.575  0.00  0.00    +0.011 A 
ATOM      6  C   UNL     1      -8.332  -8.760   0.658  0.00  0.00    +0.001 A 
ATOM      7  C   UNL     1      -9.457  -7.946   0.632  0.00  0.00    +0.001 A 
ATOM      8  C   UNL     1      -9.333  -6.577   0.524  0.00  0.00    +0.014 A 
ATOM      9  C   UNL     1      -8.065  -6.011   0.439  0.00  0.00    +0.050 A 
ATOM     10  C   UNL     1      -7.842  -4.564   0.321  0.00  0.00    +0.275 A 
ATOM     11  O   UNL     1      -8.781  -3.789   0.293  0.00  0.00    -0.266 OA
ATOM     12  N   UNL     1      -6.573  -4.112   0.244  0.00  0.00    -0.224 N 
ATOM     13  N   UNL     1      -5.548  -4.878   0.274  0.00  0.00    -0.161 NA
BRANCH  12  14
ATOM     14  C   UNL     1      -6.357  -2.668   0.126  0.00  0.00    +0.182 C 
BRANCH  14  15
ATOM     15  C   UNL     1      -6.236  -2.064   1.501  0.00  0.00    -0.026 A 
ATOM     16  C   UNL     1      -7.365  -1.613   2.159  0.00  0.00    +0.005 A 
ATOM     17  C   UNL     1      -7.254  -1.059   3.421  0.00  0.00    +0.000 A 
ATOM     18  C   UNL     1      -6.015  -0.956   4.024  0.00  0.00    +0.000 A 
ATOM     19  C   UNL     1      -4.886  -1.408   3.366  0.00  0.00    +0.000 A 
ATOM     20  C   UNL     1      -4.997  -1.966   2.107  0.00  0.00    +0.005 A 
ENDBRANCH  14  15
ENDBRANCH  12  14
ENDBRANCH   1   3
BRANCH   1  21
ATOM     21  O   UNL     1      -3.168  -6.376   0.310  0.00  0.00    -0.455 OA
BRANCH  21  22
ATOM     22  C   UNL     1      -2.011  -7.214   0.336  0.00  0.00    +0.269 C 
BRANCH  22  31
ATOM     23  C   UNL     1       4.556  -5.994  -5.437  0.00  0.00    +0.109 C 
ATOM     24  C   UNL     1       3.532  -5.814  -4.346  0.00  0.00    +0.214 C 
ATOM     25  O   UNL     1       3.526  -4.795  -3.678  0.00  0.00    -0.276 OA
ATOM     26  N   UNL     1       2.642  -6.759  -4.114  0.00  0.00    -0.286 N 
ATOM     27  C   UNL     1       1.805  -6.659  -3.045  0.00  0.00    +0.037 A 
ATOM     28  C   UNL     1       0.656  -7.466  -2.978  0.00  0.00    +0.024 A 
ATOM     29  C   UNL     1      -0.186  -7.376  -1.915  0.00  0.00    +0.014 A 
ATOM     30  C   UNL     1       0.090  -6.471  -0.875  0.00  0.00    +0.024 A 
ATOM     31  C   UNL     1      -0.772  -6.362   0.236  0.00  0.00    +0.007 A 
ATOM     32  C   UNL     1      -0.455  -5.458   1.231  0.00  0.00    +0.095 A 
ATOM     33  C   UNL     1       0.690  -4.683   1.121  0.00  0.00    +0.285 A 
ATOM     34  O   UNL     1       1.504  -4.788   0.066  0.00  0.00    -0.425 OA
ATOM     35  C   UNL     1       1.242  -5.655  -0.934  0.00  0.00    +0.141 A 
ATOM     36  C   UNL     1       2.096  -5.759  -2.018  0.00  0.00    +0.070 A 
ATOM     37  H   UNL     1       2.583  -7.526  -4.705  0.00  0.00    +0.155 HD
BRANCH  33  38
ATOM     38  O   UNL     1       0.988  -3.805   2.098  0.00  0.00    -0.480 OA
ATOM     39  H   UNL     1       1.801  -3.306   1.944  0.00  0.00    +0.295 HD
ENDBRANCH  33  38
ENDBRANCH  22  31
ENDBRANCH  21  22
ENDBRANCH   1  21
TORSDOF 7
