REMARK  Name = ZINC38658555
REMARK  10 active torsions:
REMARK  status: ('A' for Active; 'I' for Inactive)
REMARK    1  A    between atoms: C_1  and  O_2
REMARK    2  A    between atoms: O_2  and  C_3
REMARK    3  A    between atoms: C_6  and  C_11
REMARK    4  A    between atoms: C_8  and  O_9
REMARK    5  A    between atoms: O_9  and  C_10
REMARK    6  A    between atoms: C_16  and  O_25
REMARK    7  A    between atoms: C_20  and  N_24
REMARK    8  A    between atoms: C_21  and  C_22
REMARK    9  A    between atoms: O_25  and  C_26
REMARK   10  A    between atoms: C_26  and  C_28
REMARK                            x       y       z     vdW  Elec       q    Type
REMARK                         _______ _______ _______ _____ _____    ______ ____
ROOT
ATOM      1  C   UNL     1      -4.975  -2.618   0.028  0.00  0.00    +0.098 C 
ATOM      2  C   UNL     1      -5.761  -2.226  -1.195  0.00  0.00    +0.008 A 
ATOM      3  C   UNL     1      -5.394  -2.729  -2.431  0.00  0.00    +0.012 A 
ATOM      4  C   UNL     1      -6.103  -2.380  -3.563  0.00  0.00    +0.047 A 
ATOM      5  C   UNL     1      -7.189  -1.521  -3.464  0.00  0.00    +0.135 A 
ATOM      6  C   UNL     1      -7.559  -1.016  -2.228  0.00  0.00    +0.093 A 
ATOM      7  C   UNL     1      -6.845  -1.368  -1.091  0.00  0.00    +0.138 A 
ATOM      8  O   UNL     1      -7.219  -0.864   0.111  0.00  0.00    -0.441 OA
ATOM      9  C   UNL     1      -6.818  -1.464   1.244  0.00  0.00    +0.199 C 
ATOM     10  C   UNL     1      -5.761  -2.305   1.270  0.00  0.00    +0.098 C 
ENDROOT
BRANCH   1  14
ATOM     11  C   UNL     1      -1.294  -0.443   0.100  0.00  0.00    +0.162 A 
ATOM     12  C   UNL     1      -2.502   0.234   0.121  0.00  0.00    +0.050 A 
ATOM     13  C   UNL     1      -3.691  -0.472   0.097  0.00  0.00    +0.008 A 
ATOM     14  C   UNL     1      -3.676  -1.854   0.053  0.00  0.00    -0.031 A 
ATOM     15  C   UNL     1      -2.474  -2.535   0.033  0.00  0.00    +0.054 A 
ATOM     16  C   UNL     1      -1.279  -1.834   0.050  0.00  0.00    +0.162 A 
BRANCH  11  18
ATOM     17  C   UNL     1      -0.215   1.675   0.175  0.00  0.00    +0.277 C 
ATOM     18  O   UNL     1      -0.124   0.250   0.123  0.00  0.00    -0.491 OA
ENDBRANCH  11  18
BRANCH  16  19
ATOM     19  O   UNL     1      -0.096  -2.503   0.024  0.00  0.00    -0.491 OA
ATOM     20  C   UNL     1      -0.158  -3.929  -0.028  0.00  0.00    +0.277 C 
ENDBRANCH  16  19
ENDBRANCH   1  14
BRANCH   9  21
ATOM     21  N   UNL     1      -7.500  -1.214   2.409  0.00  0.00    -0.328 N 
ATOM     22  H   UNL     1      -8.260  -0.612   2.405  0.00  0.00    +0.145 HD
ATOM     23  H   UNL     1      -7.222  -1.640   3.235  0.00  0.00    +0.145 HD
ENDBRANCH   9  21
BRANCH  10  24
ATOM     24  C   UNL     1      -5.384  -2.913   2.510  0.00  0.00    +0.101 C 
ATOM     25  N   UNL     1      -5.085  -3.394   3.495  0.00  0.00    -0.191 NA
ENDBRANCH  10  24
BRANCH   5  26
ATOM     26  O   UNL     1      -7.888  -1.177  -4.577  0.00  0.00    -0.422 OA
BRANCH  26  27
ATOM     27  C   UNL     1      -8.597  -2.138  -5.202  0.00  0.00    +0.345 C 
ATOM     28  O   UNL     1      -8.677  -3.248  -4.714  0.00  0.00    -0.245 OA
BRANCH  27  29
ATOM     29  C   UNL     1      -9.274  -1.843  -6.477  0.00  0.00    +0.067 A 
ATOM     30  C   UNL     1      -9.089  -0.621  -7.112  0.00  0.00    +0.015 A 
ATOM     31  C   UNL     1      -9.728  -0.345  -8.313  0.00  0.00    +0.001 A 
ATOM     32  C   UNL     1     -10.553  -1.248  -8.911  0.00  0.00    +0.008 A 
ATOM     33  C   UNL     1     -10.786  -2.504  -8.325  0.00  0.00    -0.017 A 
ATOM     34  C   UNL     1     -10.150  -2.831  -7.102  0.00  0.00    -0.004 A 
ATOM     35  C   UNL     1     -10.377  -4.082  -6.518  0.00  0.00    +0.009 A 
ATOM     36  C   UNL     1     -11.202  -4.975  -7.135  0.00  0.00    +0.001 A 
ATOM     37  C   UNL     1     -11.824  -4.659  -8.340  0.00  0.00    +0.001 A 
ATOM     38  C   UNL     1     -11.635  -3.447  -8.931  0.00  0.00    +0.008 A 
ENDBRANCH  27  29
ENDBRANCH  26  27
ENDBRANCH   5  26
TORSDOF 8
