REMARK  Name = ZINC16322261
REMARK  8 active torsions:
REMARK  status: ('A' for Active; 'I' for Inactive)
REMARK    1  A    between atoms: C_1  and  C_2
REMARK    2  A    between atoms: C_2  and  C_4
REMARK    3  A    between atoms: C_2  and  O_23
REMARK    4  A    between atoms: N_6  and  C_7
REMARK    5  A    between atoms: C_7  and  N_9
REMARK    6  A    between atoms: N_9  and  C_10
REMARK    7  A    between atoms: C_11  and  C_20
REMARK    8  A    between atoms: O_23  and  C_24
REMARK                            x       y       z     vdW  Elec       q    Type
REMARK                         _______ _______ _______ _____ _____    ______ ____
ROOT
ATOM      1  C   UNL     1       6.562  -2.741   1.214  0.00  0.00    +0.141 C 
ATOM      2  S   UNL     1       6.977  -1.796  -0.152  0.00  0.00    -0.018 S 
ENDROOT
BRANCH   1   5
ATOM      3  C   UNL     1       8.814  -3.264   1.538  0.00  0.00    +0.259 C 
ATOM      4  O   UNL     1       9.108  -2.595   0.570  0.00  0.00    -0.271 OA
ATOM      5  N   UNL     1       7.524  -3.374   1.913  0.00  0.00    -0.265 N 
ATOM      6  H   UNL     1       7.289  -3.910   2.687  0.00  0.00    +0.157 HD
BRANCH   3   8
ATOM      7  C   UNL     1       9.699  -5.484   2.196  0.00  0.00    +0.062 C 
ATOM      8  C   UNL     1       9.890  -3.971   2.320  0.00  0.00    +0.256 C 
BRANCH   8   9
ATOM      9  O   UNL     1      11.172  -3.610   1.801  0.00  0.00    -0.478 OA
BRANCH   9  10
ATOM     10  C   UNL     1      12.230  -3.708   2.649  0.00  0.00    +0.140 A 
ATOM     11  C   UNL     1      12.059  -4.249   3.914  0.00  0.00    +0.048 A 
ATOM     12  C   UNL     1      13.137  -4.352   4.772  0.00  0.00    +0.023 A 
ATOM     13  C   UNL     1      14.385  -3.907   4.374  0.00  0.00    +0.043 A 
ATOM     14  C   UNL     1      14.558  -3.362   3.114  0.00  0.00    +0.043 A 
ATOM     15  C   UNL     1      13.483  -3.262   2.251  0.00  0.00    +0.084 A 
ATOM     16 CL   UNL     1      13.700  -2.577   0.670  0.00  0.00    -0.080 Cl
ATOM     17 CL   UNL     1      15.736  -4.032   5.457  0.00  0.00    -0.083 Cl
ENDBRANCH   9  10
ENDBRANCH   8   9
ENDBRANCH   3   8
ENDBRANCH   1   5
BRANCH   1  18
ATOM     18  N   UNL     1       5.272  -2.852   1.590  0.00  0.00    -0.291 N 
ATOM     19  H   UNL     1       5.037  -3.387   2.364  0.00  0.00    +0.154 HD
BRANCH  18  20
ATOM     20  C   UNL     1       4.283  -2.201   0.871  0.00  0.00    +0.084 A 
ATOM     21  C   UNL     1       2.915  -2.194   1.099  0.00  0.00    +0.068 A 
ATOM     22  C   UNL     1       2.081  -1.421   0.189  0.00  0.00    -0.023 A 
ATOM     23  C   UNL     1       2.750  -0.791  -0.801  0.00  0.00    -0.004 A 
ATOM     24  S   UNL     1       4.453  -1.199  -0.531  0.00  0.00    -0.077 S 
ATOM     25  C   UNL     1       2.180   0.053  -1.898  0.00  0.00    +0.043 C 
ATOM     26  C   UNL     1       1.208   1.076  -1.297  0.00  0.00    +0.005 C 
ATOM     27  C   UNL     1      -0.184   0.453  -1.253  0.00  0.00    +0.001 C 
ATOM     28  C   UNL     1      -0.078  -1.051  -1.009  0.00  0.00    +0.005 C 
ATOM     29  C   UNL     1       0.568  -1.327   0.344  0.00  0.00    +0.037 C 
BRANCH  21  30
ATOM     30  C   UNL     1       2.329  -2.938   2.217  0.00  0.00    +0.244 C 
ATOM     31  O   UNL     1       1.978  -4.093   2.062  0.00  0.00    -0.270 OA
ATOM     32  N   UNL     1       2.179  -2.344   3.417  0.00  0.00    -0.325 N 
ATOM     33  H   UNL     1       2.459  -1.423   3.541  0.00  0.00    +0.145 HD
ATOM     34  H   UNL     1       1.791  -2.836   4.157  0.00  0.00    +0.145 HD
ENDBRANCH  21  30
ENDBRANCH  18  20
ENDBRANCH   1  18
TORSDOF 7
