REMARK  Name = ZINC14721398
REMARK  12 active torsions:
REMARK  status: ('A' for Active; 'I' for Inactive)
REMARK    1  A    between atoms: C_1  and  C_2
REMARK    2  A    between atoms: C_2  and  C_3
REMARK    3  A    between atoms: C_2  and  C_4
REMARK    4  A    between atoms: C_4  and  N_5
REMARK    5  A    between atoms: C_6  and  N_34
REMARK    6  A    between atoms: C_7  and  N_14
REMARK    7  A    between atoms: N_14  and  C_15
REMARK    8  A    between atoms: C_15  and  C_16
REMARK    9  A    between atoms: C_16  and  O_17
REMARK   10  A    between atoms: O_17  and  C_18
REMARK   11  A    between atoms: C_19  and  C_21
REMARK   12  A    between atoms: C_21  and  C_22
REMARK                            x       y       z     vdW  Elec       q    Type
REMARK                         _______ _______ _______ _____ _____    ______ ____
ROOT
ATOM      1  N   UNL     1       2.332  -3.418   1.621  0.00  0.00    -0.262 N 
ATOM      2  C   UNL     1       1.781  -2.189   1.537  0.00  0.00    +0.224 C 
ATOM      3  O   UNL     1       1.470  -1.593   2.547  0.00  0.00    -0.275 OA
ENDROOT
BRANCH   1   6
ATOM      4  N   UNL     1       3.826  -3.914   4.941  0.00  0.00    -0.280 N 
ATOM      5  C   UNL     1       3.553  -3.355   3.714  0.00  0.00    +0.127 A 
ATOM      6  C   UNL     1       2.638  -3.969   2.883  0.00  0.00    +0.140 A 
ATOM      7  C   UNL     1       2.020  -5.158   3.314  0.00  0.00    +0.277 A 
ATOM      8  O   UNL     1       1.211  -5.724   2.597  0.00  0.00    -0.266 OA
ATOM      9  N   UNL     1       2.327  -5.667   4.523  0.00  0.00    -0.273 N 
ATOM     10  H   UNL     1       1.888  -6.511   4.830  0.00  0.00    +0.173 HD
ATOM     11  C   UNL     1       3.217  -5.051   5.322  0.00  0.00    +0.331 A 
ATOM     12  O   UNL     1       3.475  -5.532   6.409  0.00  0.00    -0.246 OA
BRANCH   5  13
ATOM     13  N   UNL     1       4.180  -2.197   3.322  0.00  0.00    -0.343 N 
ATOM     14  H   UNL     1       4.078  -1.874   2.413  0.00  0.00    +0.144 HD
ATOM     15  H   UNL     1       4.724  -1.702   3.955  0.00  0.00    +0.144 HD
ENDBRANCH   5  13
BRANCH   4  16
ATOM     16  C   UNL     1       4.791  -3.270   5.836  0.00  0.00    +0.131 C 
BRANCH  16  18
ATOM     17  C   UNL     1       6.619  -3.414   4.139  0.00  0.00    +0.009 C 
ATOM     18  C   UNL     1       6.192  -3.816   5.553  0.00  0.00    +0.003 C 
ATOM     19  C   UNL     1       7.179  -3.237   6.568  0.00  0.00    +0.009 C 
ENDBRANCH  16  18
ENDBRANCH   4  16
ENDBRANCH   1   6
BRANCH   1  20
ATOM     20  C   UNL     1       2.613  -4.179   0.401  0.00  0.00    +0.142 C 
BRANCH  20  21
ATOM     21  C   UNL     1       4.020  -3.842  -0.098  0.00  0.00    +0.178 C 
BRANCH  21  22
ATOM     22  O   UNL     1       4.984  -4.288   0.857  0.00  0.00    -0.381 OA
ATOM     23  C   UNL     1       6.338  -4.020   0.485  0.00  0.00    +0.194 C 
ENDBRANCH  21  22
ENDBRANCH  20  21
ENDBRANCH   1  20
BRANCH   2  24
ATOM     24  C   UNL     1       1.552  -1.556   0.189  0.00  0.00    +0.135 C 
BRANCH  24  25
ATOM     25  C   UNL     1       0.930  -0.196   0.371  0.00  0.00    +0.007 A 
ATOM     26  C   UNL     1      -0.376   0.103   0.336  0.00  0.00    +0.200 A 
ATOM     27  O   UNL     1      -0.555   1.420   0.540  0.00  0.00    -0.463 OA
ATOM     28  C   UNL     1       0.627   2.044   0.719  0.00  0.00    +0.135 A 
ATOM     29  C   UNL     1       1.633   1.068   0.624  0.00  0.00    +0.024 A 
ATOM     30  C   UNL     1       2.970   1.428   0.769  0.00  0.00    +0.015 A 
ATOM     31  C   UNL     1       3.305   2.745   1.007  0.00  0.00    -0.043 A 
ATOM     32  C   UNL     1       2.313   3.711   1.103  0.00  0.00    -0.041 A 
ATOM     33  C   UNL     1       0.984   3.364   0.960  0.00  0.00    +0.050 A 
ATOM     34  C   UNL     1       2.944   5.063   1.366  0.00  0.00    +0.036 C 
ATOM     35  C   UNL     1       4.430   4.897   0.985  0.00  0.00    +0.009 C 
ATOM     36  C   UNL     1       4.663   3.387   1.200  0.00  0.00    +0.036 C 
ENDBRANCH  24  25
ENDBRANCH   2  24
TORSDOF 9
