REMARK  Name = ZINC39964808
REMARK  9 active torsions:
REMARK  status: ('A' for Active; 'I' for Inactive)
REMARK    1  A    between atoms: C_1  and  C_2
REMARK    2  A    between atoms: C_7  and  C_12
REMARK    3  A    between atoms: C_12  and  C_26
REMARK    4  A    between atoms: C_13  and  C_14
REMARK    5  A    between atoms: C_16  and  C_23
REMARK    6  A    between atoms: C_17  and  O_22
REMARK    7  A    between atoms: C_18  and  O_20
REMARK    8  A    between atoms: O_20  and  C_21
REMARK    9  A    between atoms: C_23  and  C_24
REMARK                            x       y       z     vdW  Elec       q    Type
REMARK                         _______ _______ _______ _____ _____    ______ ____
ROOT
ATOM      1  C   UNL     1      -1.154  -5.135   1.908  0.00  0.00    +0.072 C 
ATOM      2  C   UNL     1      -1.022  -6.339   2.504  0.00  0.00    +0.026 C 
ENDROOT
BRANCH   1   9
ATOM      3  C   UNL     1       0.358   1.553   0.559  0.00  0.00    +0.044 C 
ATOM      4  C   UNL     1       0.215   0.064   0.376  0.00  0.00    -0.048 A 
ATOM      5  C   UNL     1      -0.054  -0.435  -0.911  0.00  0.00    +0.005 A 
ATOM      6  C   UNL     1      -0.198  -1.751  -1.166  0.00  0.00    +0.027 A 
ATOM      7  C   UNL     1      -0.072  -2.719  -0.068  0.00  0.00    +0.060 A 
ATOM      8  N   UNL     1      -0.160  -4.017  -0.018  0.00  0.00    -0.359 N 
ATOM      9  C   UNL     1       0.062  -4.420   1.377  0.00  0.00    +0.216 C 
ATOM     10  N   UNL     1       0.290  -3.183   2.134  0.00  0.00    -0.359 N 
ATOM     11  C   UNL     1       0.213  -2.191   1.295  0.00  0.00    +0.061 A 
ATOM     12  C   UNL     1       0.355  -0.737   1.451  0.00  0.00    +0.030 A 
ATOM     13  H   UNL     1      -0.339  -4.609  -0.764  0.00  0.00    +0.162 HD
ATOM     14  H   UNL     1       0.467  -3.117   3.086  0.00  0.00    +0.162 HD
ENDBRANCH   1   9
BRANCH   2  15
ATOM     15  C   UNL     1       0.317  -6.873   2.794  0.00  0.00    -0.020 A 
ATOM     16  C   UNL     1       1.337  -6.016   3.223  0.00  0.00    +0.015 A 
ATOM     17  C   UNL     1       2.590  -6.518   3.495  0.00  0.00    +0.002 A 
ATOM     18  C   UNL     1       2.846  -7.875   3.343  0.00  0.00    +0.162 A 
ATOM     19  C   UNL     1       1.835  -8.735   2.916  0.00  0.00    +0.162 A 
ATOM     20  C   UNL     1       0.574  -8.240   2.647  0.00  0.00    +0.057 A 
BRANCH  19  21
ATOM     21  O   UNL     1       2.090 -10.063   2.769  0.00  0.00    -0.491 OA
ATOM     22  C   UNL     1       1.009 -10.886   2.328  0.00  0.00    +0.277 C 
ENDBRANCH  19  21
BRANCH  18  23
ATOM     23  O   UNL     1       4.084  -8.364   3.612  0.00  0.00    -0.503 OA
ATOM     24  H   UNL     1       4.206  -8.645   4.529  0.00  0.00    +0.292 HD
ENDBRANCH  18  23
BRANCH  17  25
ATOM     25  C   UNL     1       3.687  -5.594   3.957  0.00  0.00    +0.065 C 
BRANCH  25  26
ATOM     26  C   UNL     1       4.511  -5.160   2.772  0.00  0.00    -0.030 C 
ATOM     27  C   UNL     1       4.683  -3.885   2.525  0.00  0.00    +0.004 C 
ENDBRANCH  25  26
ENDBRANCH  17  25
ENDBRANCH   2  15
BRANCH   1  28
ATOM     28  C   UNL     1      -2.449  -4.538   1.779  0.00  0.00    +0.099 C 
ATOM     29  N   UNL     1      -3.477  -4.064   1.677  0.00  0.00    -0.191 NA
ENDBRANCH   1  28
TORSDOF 7
