REMARK  Name = ZINC06768554
REMARK  6 active torsions:
REMARK  status: ('A' for Active; 'I' for Inactive)
REMARK    1  A    between atoms: C_1  and  C_2
REMARK    2  A    between atoms: C_6  and  C_8
REMARK    3  A    between atoms: C_9  and  N_19
REMARK    4  A    between atoms: C_14  and  C_17
REMARK    5  A    between atoms: N_19  and  C_20
REMARK    6  A    between atoms: C_23  and  C_26
REMARK                            x       y       z     vdW  Elec       q    Type
REMARK                         _______ _______ _______ _____ _____    ______ ____
ROOT
ATOM      1  C   UNL     1       2.418   3.937   0.000  0.00  0.00    +0.088 A 
ATOM      2  C   UNL     1       3.505   3.686   0.765  0.00  0.00    +0.147 A 
ATOM      3  N   UNL     1       4.477   4.620   0.458  0.00  0.00    -0.199 N 
ATOM      4  C   UNL     1       3.980   5.452  -0.493  0.00  0.00    +0.154 A 
ATOM      5  N   UNL     1       2.706   5.048  -0.793  0.00  0.00    -0.336 N 
ATOM      6  H   UNL     1       2.111   5.460  -1.439  0.00  0.00    +0.167 HD
ATOM      7  C   UNL     1       4.977   6.387  -0.782  0.00  0.00    +0.114 A 
ATOM      8  C   UNL     1       6.084   6.075   0.037  0.00  0.00    +0.156 A 
ATOM      9  N   UNL     1       5.779   5.034   0.763  0.00  0.00    -0.170 NA
ENDROOT
BRANCH   1  15
ATOM     10  C   UNL     1      -2.570   3.858   0.046  0.00  0.00    +0.044 C 
ATOM     11  C   UNL     1      -1.249   3.133   0.030  0.00  0.00    -0.050 A 
ATOM     12  C   UNL     1      -1.221   1.750   0.017  0.00  0.00    +0.003 A 
ATOM     13  C   UNL     1      -0.013   1.076   0.008  0.00  0.00    +0.001 A 
ATOM     14  C   UNL     1       1.173   1.780   0.000  0.00  0.00    +0.010 A 
ATOM     15  C   UNL     1       1.153   3.176   0.008  0.00  0.00    +0.002 A 
ATOM     16  C   UNL     1      -0.071   3.850   0.022  0.00  0.00    +0.013 A 
ENDBRANCH   1  15
BRANCH   7  17
ATOM     17  C   UNL     1       4.893   7.458  -1.729  0.00  0.00    +0.104 C 
ATOM     18  N   UNL     1       4.825   8.308  -2.480  0.00  0.00    -0.191 NA
ENDBRANCH   7  17
BRANCH   2  19
ATOM     19  N   UNL     1       3.625   2.660   1.701  0.00  0.00    -0.324 N 
ATOM     20  H   UNL     1       2.887   2.708   2.387  0.00  0.00    +0.148 HD
BRANCH  19  21
ATOM     21  C   UNL     1       4.945   2.688   2.346  0.00  0.00    +0.072 C 
ATOM     22  C   UNL     1       5.952   1.928   1.481  0.00  0.00    +0.022 C 
ATOM     23  C   UNL     1       7.326   1.957   2.152  0.00  0.00    +0.005 C 
ATOM     24  C   UNL     1       7.235   1.296   3.529  0.00  0.00    -0.014 C 
ATOM     25  C   UNL     1       6.228   2.056   4.394  0.00  0.00    +0.005 C 
ATOM     26  C   UNL     1       4.854   2.027   3.723  0.00  0.00    +0.022 C 
ATOM     27  C   UNL     1       6.776  -0.155   3.368  0.00  0.00    +0.007 C 
ENDBRANCH  19  21
ENDBRANCH   2  19
TORSDOF 4
