REMARK  Name = ZINC19326925
REMARK  1 active torsions:
REMARK  status: ('A' for Active; 'I' for Inactive)
REMARK    1  A    between atoms: C_10  and  N_11
REMARK                            x       y       z     vdW  Elec       q    Type
REMARK                         _______ _______ _______ _____ _____    ______ ____
ROOT
ATOM      1  N   UNL     1       4.871   0.098  -0.044  0.00  0.00    -0.287 N 
ATOM      2  C   UNL     1       6.065  -0.566   0.045  0.00  0.00    +0.189 C 
ATOM      3  N   UNL     1       7.236   0.144   0.146  0.00  0.00    -0.296 N 
ATOM      4  C   UNL     1       8.392  -0.528   0.750  0.00  0.00    +0.101 C 
ATOM      5  C   UNL     1       9.687   0.217   0.394  0.00  0.00    +0.045 C 
ATOM      6  C   UNL     1       9.956   1.115   1.628  0.00  0.00    +0.004 C 
ATOM      7  C   UNL     1       9.516   0.216   2.811  0.00  0.00    +0.004 C 
ATOM      8  C   UNL     1       8.273  -0.530   2.278  0.00  0.00    +0.045 C 
ATOM      9  N   UNL     1       8.440  -1.903   0.238  0.00  0.00    -0.294 N 
ATOM     10  C   UNL     1       7.232  -2.581   0.133  0.00  0.00    +0.191 C 
ATOM     11  N   UNL     1       7.209  -3.891   0.132  0.00  0.00    -0.371 N 
ATOM     12  N   UNL     1       6.085  -1.883   0.039  0.00  0.00    -0.187 NA
ATOM     13  H   UNL     1       4.844   1.063   0.050  0.00  0.00    +0.155 HD
ATOM     14  H   UNL     1       9.278  -2.319  -0.017  0.00  0.00    +0.151 HD
ATOM     15  H   UNL     1       8.038  -4.391   0.204  0.00  0.00    +0.159 HD
ATOM     16  H   UNL     1       7.297   1.059  -0.171  0.00  0.00    +0.151 HD
ATOM     17  H   UNL     1       6.364  -4.361   0.058  0.00  0.00    +0.159 HD
ENDROOT
BRANCH   1  27
ATOM     18  C   UNL     1       0.049   0.686   1.327  0.00  0.00    +0.001 A 
ATOM     19  C   UNL     1       1.215   1.411   1.565  0.00  0.00    +0.001 A 
ATOM     20  C   UNL     1       2.410   1.004   1.054  0.00  0.00    +0.010 A 
ATOM     21  C   UNL     1       2.472  -0.162   0.276  0.00  0.00    +0.003 A 
ATOM     22  C   UNL     1       1.287  -0.900   0.033  0.00  0.00    -0.016 A 
ATOM     23  C   UNL     1       0.072  -0.450   0.577  0.00  0.00    +0.008 A 
ATOM     24  C   UNL     1       1.348  -2.069  -0.745  0.00  0.00    +0.008 A 
ATOM     25  C   UNL     1       2.539  -2.482  -1.259  0.00  0.00    +0.002 A 
ATOM     26  C   UNL     1       3.709  -1.766  -1.027  0.00  0.00    +0.024 A 
ATOM     27  C   UNL     1       3.692  -0.614  -0.270  0.00  0.00    +0.041 A 
ENDBRANCH   1  27
TORSDOF 1
