REMARK  Name = ZINC23593483
REMARK  7 active torsions:
REMARK  status: ('A' for Active; 'I' for Inactive)
REMARK    1  A    between atoms: C_4  and  C_7
REMARK    2  A    between atoms: C_10  and  C_13
REMARK    3  A    between atoms: C_13  and  O_14
REMARK    4  A    between atoms: O_14  and  C_15
REMARK    5  A    between atoms: C_15  and  C_17
REMARK    6  A    between atoms: C_19  and  S_24
REMARK    7  A    between atoms: S_24  and  N_27
REMARK                            x       y       z     vdW  Elec       q    Type
REMARK                         _______ _______ _______ _____ _____    ______ ____
ROOT
ATOM      1  C   UNL     1      -0.115   7.582  -1.504  0.00  0.00    +0.341 C 
ATOM      2  O   UNL     1      -0.116   8.317  -0.537  0.00  0.00    -0.245 OA
ENDROOT
BRANCH   1   3
ATOM      3  C   UNL     1      -0.136   8.153  -2.865  0.00  0.00    +0.075 A 
ATOM      4  C   UNL     1      -0.129   7.311  -3.980  0.00  0.00    +0.044 A 
ATOM      5  C   UNL     1      -0.152   7.851  -5.248  0.00  0.00    +0.106 A 
ATOM      6  C   UNL     1      -0.173   9.224  -5.420  0.00  0.00    +0.029 A 
ATOM      7  C   UNL     1      -0.175  10.065  -4.322  0.00  0.00    +0.018 A 
ATOM      8  C   UNL     1      -0.156   9.538  -3.045  0.00  0.00    +0.032 A 
ATOM      9 BR   UNL     1      -0.159  10.689  -1.545  0.00  0.00    -0.049 Br
BRANCH   5  10
ATOM     10  S   UNL     1      -0.150   6.790  -6.655  0.00  0.00    +0.056 S 
ATOM     11  O   UNL     1      -0.680   5.544  -6.224  0.00  0.00    -0.153 OA
ATOM     12  O   UNL     1      -0.721   7.532  -7.724  0.00  0.00    -0.153 OA
BRANCH  10  13
ATOM     13  N   UNL     1       1.432   6.517  -7.060  0.00  0.00    -0.204 NA
ATOM     14  H   UNL     1       1.477   5.856  -7.938  0.00  0.00    +0.144 HD
ATOM     15  H   UNL     1       1.950   6.040  -6.215  0.00  0.00    +0.144 HD
ENDBRANCH  10  13
ENDBRANCH   5  10
ENDBRANCH   1   3
BRANCH   1  16
ATOM     16  O   UNL     1      -0.095   6.245  -1.334  0.00  0.00    -0.456 OA
BRANCH  16  17
ATOM     17  C   UNL     1      -0.076   5.755   0.032  0.00  0.00    +0.268 C 
BRANCH  17  21
ATOM     18  C   UNL     1      -0.018   1.480   0.010  0.00  0.00    -0.018 A 
ATOM     19  C   UNL     1      -1.233   2.162   0.020  0.00  0.00    +0.009 A 
ATOM     20  C   UNL     1      -1.246   3.542   0.032  0.00  0.00    +0.007 A 
ATOM     21  C   UNL     1      -0.056   4.248   0.024  0.00  0.00    -0.010 A 
ATOM     22  C   UNL     1       1.153   3.575   0.010  0.00  0.00    +0.007 A 
ATOM     23  C   UNL     1       1.177   2.195   0.003  0.00  0.00    +0.009 A 
BRANCH  18  27
ATOM     24  C   UNL     1       0.040  -2.772  -0.014  0.00  0.00    +0.000 A 
ATOM     25  C   UNL     1      -1.169  -2.100   0.002  0.00  0.00    +0.001 A 
ATOM     26  C   UNL     1      -1.194  -0.720   0.010  0.00  0.00    +0.008 A 
ATOM     27  C   UNL     1       0.002  -0.004   0.002  0.00  0.00    -0.018 A 
ATOM     28  C   UNL     1       1.217  -0.687  -0.019  0.00  0.00    +0.008 A 
ATOM     29  C   UNL     1       1.230  -2.067  -0.022  0.00  0.00    +0.001 A 
ENDBRANCH  18  27
ENDBRANCH  17  21
ENDBRANCH  16  17
ENDBRANCH   1  16
TORSDOF 7
