REMARK  Name = ZINC21231654
REMARK  11 active torsions:
REMARK  status: ('A' for Active; 'I' for Inactive)
REMARK    1  A    between atoms: C_1  and  C_2
REMARK    2  A    between atoms: C_2  and  C_3
REMARK    3  A    between atoms: C_3  and  C_5
REMARK    4  A    between atoms: C_3  and  C_6
REMARK    5  A    between atoms: C_9  and  N_12
REMARK    6  A    between atoms: C_22  and  S_23
REMARK    7  A    between atoms: S_23  and  C_24
REMARK    8  A    between atoms: C_24  and  C_26
REMARK    9  A    between atoms: C_24  and  C_29
REMARK   10  A    between atoms: C_26  and  C_27
REMARK   11  A    between atoms: C_26  and  C_28
REMARK                            x       y       z     vdW  Elec       q    Type
REMARK                         _______ _______ _______ _____ _____    ______ ____
ROOT
ATOM      1  N   UNL     1      -4.920   3.054   5.546  0.00  0.00    -0.255 N 
ATOM      2  C   UNL     1      -6.035   3.769   5.273  0.00  0.00    +0.267 A 
ATOM      3  O   UNL     1      -6.303   4.110   4.136  0.00  0.00    -0.267 OA
ATOM      4  C   UNL     1      -6.910   4.120   6.399  0.00  0.00    +0.065 A 
ATOM      5  C   UNL     1      -8.082   4.854   6.221  0.00  0.00    +0.015 A 
ATOM      6  C   UNL     1      -8.861   5.154   7.304  0.00  0.00    +0.001 A 
ATOM      7  C   UNL     1      -8.498   4.734   8.578  0.00  0.00    +0.002 A 
ATOM      8  C   UNL     1      -7.355   4.014   8.781  0.00  0.00    +0.028 A 
ATOM      9  C   UNL     1      -6.537   3.692   7.694  0.00  0.00    +0.079 A 
ATOM     10  N   UNL     1      -5.397   2.979   7.850  0.00  0.00    -0.223 NA
ATOM     11  C   UNL     1      -4.635   2.674   6.829  0.00  0.00    +0.177 A 
ENDROOT
BRANCH   1  15
ATOM     12  C   UNL     1      -2.341   1.983   2.452  0.00  0.00    -0.044 A 
ATOM     13  C   UNL     1      -3.365   1.131   2.822  0.00  0.00    +0.006 A 
ATOM     14  C   UNL     1      -4.218   1.480   3.851  0.00  0.00    +0.026 A 
ATOM     15  C   UNL     1      -4.053   2.694   4.506  0.00  0.00    +0.052 A 
ATOM     16  C   UNL     1      -3.027   3.549   4.128  0.00  0.00    +0.026 A 
ATOM     17  C   UNL     1      -2.174   3.191   3.103  0.00  0.00    +0.006 A 
BRANCH  12  18
ATOM     18  C   UNL     1      -1.409   1.595   1.333  0.00  0.00    +0.016 C 
ATOM     19  C   UNL     1      -2.212   1.393   0.047  0.00  0.00    +0.012 C 
BRANCH  18  21
ATOM     20  C   UNL     1       0.347  -0.033   0.619  0.00  0.00    +0.004 C 
ATOM     21  C   UNL     1      -0.689   0.295   1.696  0.00  0.00    +0.004 C 
ENDBRANCH  18  21
ENDBRANCH  12  18
ENDBRANCH   1  15
BRANCH  11  22
ATOM     22  S   UNL     1      -3.172   1.737   7.122  0.00  0.00    -0.074 S 
BRANCH  22  23
ATOM     23  C   UNL     1      -3.203   1.665   8.931  0.00  0.00    +0.143 C 
BRANCH  23  24
ATOM     24  C   UNL     1      -2.959   3.042   9.493  0.00  0.00    +0.234 C 
ATOM     25  O   UNL     1      -2.434   3.892   8.807  0.00  0.00    -0.274 OA
ATOM     26  N   UNL     1      -3.325   3.328  10.758  0.00  0.00    -0.239 N 
ATOM     27  C   UNL     1      -3.107   4.559  11.260  0.00  0.00    +0.303 C 
ATOM     28  O   UNL     1      -2.581   5.412  10.572  0.00  0.00    -0.253 OA
ATOM     29  N   UNL     1      -3.474   4.845  12.525  0.00  0.00    -0.313 N 
ATOM     30  H   UNL     1      -3.802   2.556  11.380  0.00  0.00    +0.159 HD
ATOM     31  H   UNL     1      -3.296   5.851  12.935  0.00  0.00    +0.146 HD
ATOM     32  H   UNL     1      -3.951   4.074  13.148  0.00  0.00    +0.146 HD
ENDBRANCH  23  24
BRANCH  23  33
ATOM     33  C   UNL     1      -2.110   0.713   9.422  0.00  0.00    +0.005 C 
ATOM     34  C   UNL     1      -2.127   0.663  10.951  0.00  0.00    +0.009 C 
ATOM     35  C   UNL     1      -2.366  -0.689   8.863  0.00  0.00    +0.009 C 
ENDBRANCH  23  33
ENDBRANCH  22  23
ENDBRANCH  11  22
TORSDOF 7
