REMARK  Name = ZINC39674427
REMARK  10 active torsions:
REMARK  status: ('A' for Active; 'I' for Inactive)
REMARK    1  A    between atoms: C_1  and  C_2
REMARK    2  A    between atoms: C_4  and  C_9
REMARK    3  A    between atoms: C_5  and  C_8
REMARK    4  A    between atoms: C_9  and  C_11
REMARK    5  A    between atoms: C_9  and  N_12
REMARK    6  A    between atoms: C_13  and  C_15
REMARK    7  A    between atoms: C_26  and  C_28
REMARK    8  A    between atoms: C_31  and  O_38
REMARK    9  A    between atoms: C_32  and  C_34
REMARK   10  A    between atoms: O_38  and  C_39
REMARK                            x       y       z     vdW  Elec       q    Type
REMARK                         _______ _______ _______ _____ _____    ______ ____
ROOT
ATOM      1  C   UNL     1      -0.248   2.640  -4.308  0.00  0.00    +0.100 C 
ATOM      2  C   UNL     1      -1.458   3.469  -3.823  0.00  0.00    +0.121 C 
ATOM      3  N   UNL     1      -1.750   4.395  -4.942  0.00  0.00    -0.296 N 
ATOM      4  C   UNL     1      -1.546   3.576  -6.161  0.00  0.00    +0.115 C 
ATOM      5  C   UNL     1      -0.310   2.712  -5.843  0.00  0.00    -0.004 C 
ATOM      6  C   UNL     1      -0.479   1.314  -6.431  0.00  0.00    -0.010 C 
ATOM      7  C   UNL     1      -0.479   1.405  -7.960  0.00  0.00    -0.082 C 
ATOM      8  N   UNL     1       0.782   2.001  -8.417  0.00  0.00    +0.379 N 
ATOM      9  C   UNL     1       0.893   3.379  -7.923  0.00  0.00    -0.082 C 
ATOM     10  C   UNL     1       0.951   3.371  -6.393  0.00  0.00    -0.010 C 
ATOM     11  C   UNL     1      -2.118   5.690  -4.869  0.00  0.00    +0.247 C 
ATOM     12  O   UNL     1      -2.138   6.256  -3.794  0.00  0.00    -0.270 OA
ATOM     13  H   UNL     1       1.556   1.456  -8.067  0.00  0.00    -0.086 HD
ATOM     14  H   UNL     1       0.805   2.003  -9.425  0.00  0.00    -0.086 HD
ENDROOT
BRANCH  11  15
ATOM     15  C   UNL     1      -2.497   6.420  -6.095  0.00  0.00    +0.038 A 
ATOM     16  C   UNL     1      -2.887   5.716  -7.238  0.00  0.00    +0.016 A 
ATOM     17  C   UNL     1      -3.240   6.400  -8.379  0.00  0.00    +0.047 A 
ATOM     18  C   UNL     1      -3.209   7.790  -8.396  0.00  0.00    +0.132 A 
ATOM     19  C   UNL     1      -2.822   8.494  -7.261  0.00  0.00    +0.097 A 
ATOM     20  C   UNL     1      -2.472   7.816  -6.114  0.00  0.00    +0.029 A 
BRANCH  19  21
ATOM     21  C   UNL     1      -2.789  10.000  -7.285  0.00  0.00    +0.421 C 
ATOM     22  F   UNL     1      -2.372  10.477  -6.038  0.00  0.00    -0.166 F 
ATOM     23  F   UNL     1      -1.897  10.432  -8.272  0.00  0.00    -0.166 F 
ATOM     24  F   UNL     1      -4.069  10.490  -7.567  0.00  0.00    -0.166 F 
ENDBRANCH  19  21
BRANCH  18  25
ATOM     25  O   UNL     1      -3.557   8.461  -9.522  0.00  0.00    -0.495 OA
ATOM     26  C   UNL     1      -3.944   7.676 -10.652  0.00  0.00    +0.277 C 
ENDBRANCH  18  25
ENDBRANCH  11  15
BRANCH   1  28
ATOM     27  N   UNL     1       0.731   0.445  -3.724  0.00  0.00    -0.309 N 
ATOM     28  C   UNL     1      -0.371   1.211  -3.844  0.00  0.00    +0.219 C 
ATOM     29  O   UNL     1      -1.462   0.752  -3.580  0.00  0.00    -0.275 OA
ATOM     30  H   UNL     1       1.603   0.812  -3.935  0.00  0.00    +0.149 HD
BRANCH  27  31
ATOM     31  C   UNL     1       0.611  -0.944  -3.273  0.00  0.00    +0.100 C 
ATOM     32  C   UNL     1       0.471  -0.975  -1.750  0.00  0.00    +0.033 C 
BRANCH  31  35
ATOM     33  C   UNL     1       3.712  -0.052  -3.874  0.00  0.00    +0.039 C 
ATOM     34  C   UNL     1       3.289  -1.417  -3.326  0.00  0.00    +0.154 C 
ATOM     35  C   UNL     1       1.842  -1.712  -3.680  0.00  0.00    -0.001 C 
ATOM     36  C   UNL     1       1.913  -2.811  -4.435  0.00  0.00    +0.063 C 
ATOM     37  N   UNL     1       3.196  -3.211  -4.580  0.00  0.00    -0.159 NA
ATOM     38  N   UNL     1       4.026  -2.500  -3.999  0.00  0.00    -0.180 NA
ATOM     39  C   UNL     1       0.725  -3.510  -5.042  0.00  0.00    +0.067 C 
ENDBRANCH  31  35
ENDBRANCH  27  31
ENDBRANCH   1  28
TORSDOF 6
