REMARK  Name = ZINC09129938
REMARK  11 active torsions:
REMARK  status: ('A' for Active; 'I' for Inactive)
REMARK    1  A    between atoms: C_1  and  O_2
REMARK    2  A    between atoms: O_2  and  C_3
REMARK    3  A    between atoms: C_6  and  C_13
REMARK    4  A    between atoms: C_7  and  O_11
REMARK    5  A    between atoms: C_8  and  O_9
REMARK    6  A    between atoms: O_9  and  C_10
REMARK    7  A    between atoms: O_11  and  C_12
REMARK    8  A    between atoms: C_15  and  C_27
REMARK    9  A    between atoms: C_17  and  C_22
REMARK   10  A    between atoms: C_17  and  O_26
REMARK   11  A    between atoms: C_27  and  C_29
REMARK                            x       y       z     vdW  Elec       q    Type
REMARK                         _______ _______ _______ _____ _____    ______ ____
ROOT
ATOM      1  C   UNL     1       2.358  -2.254   4.229  0.00  0.00    +0.124 C 
ATOM      2  C   UNL     1       1.595  -2.911   5.384  0.00  0.00    +0.145 C 
ATOM      3  C   UNL     1       2.607  -3.585   6.316  0.00  0.00    +0.243 C 
ATOM      4  N   UNL     1       3.595  -2.596   6.749  0.00  0.00    -0.264 N 
ATOM      5  C   UNL     1       3.919  -1.549   5.975  0.00  0.00    +0.302 C 
ATOM      6  O   UNL     1       4.754  -0.762   6.377  0.00  0.00    -0.253 OA
ATOM      7  N   UNL     1       3.361  -1.337   4.774  0.00  0.00    -0.292 N 
ATOM      8  H   UNL     1       4.024  -2.699   7.613  0.00  0.00    +0.153 HD
ATOM      9  H   UNL     1       3.625  -0.560   4.256  0.00  0.00    +0.151 HD
ENDROOT
BRANCH   1  13
ATOM     10  C   UNL     1      -0.383  -0.078   1.766  0.00  0.00    +0.165 A 
ATOM     11  C   UNL     1      -0.748  -0.461   3.047  0.00  0.00    +0.050 A 
ATOM     12  C   UNL     1       0.139  -1.164   3.840  0.00  0.00    +0.013 A 
ATOM     13  C   UNL     1       1.394  -1.488   3.360  0.00  0.00    +0.019 A 
ATOM     14  C   UNL     1       1.768  -1.109   2.079  0.00  0.00    +0.170 A 
ATOM     15  C   UNL     1       0.876  -0.407   1.277  0.00  0.00    +0.204 A 
BRANCH  10  17
ATOM     16  C   UNL     1      -2.532   0.918   1.554  0.00  0.00    +0.277 C 
ATOM     17  O   UNL     1      -1.256   0.614   0.986  0.00  0.00    -0.491 OA
ENDBRANCH  10  17
BRANCH  15  18
ATOM     18  O   UNL     1       1.236  -0.038   0.017  0.00  0.00    -0.488 OA
ATOM     19  C   UNL     1       1.871   1.234  -0.129  0.00  0.00    +0.277 C 
ENDBRANCH  15  18
BRANCH  14  20
ATOM     20  O   UNL     1       3.003  -1.427   1.608  0.00  0.00    -0.491 OA
ATOM     21  C   UNL     1       3.112  -2.621   0.829  0.00  0.00    +0.277 C 
ENDBRANCH  14  20
ENDBRANCH   1  13
BRANCH   3  22
ATOM     22  C   UNL     1       1.880  -4.150   7.538  0.00  0.00    +0.436 C 
ATOM     23  F   UNL     1       0.930  -5.090   7.123  0.00  0.00    -0.166 F 
ATOM     24  F   UNL     1       2.805  -4.765   8.388  0.00  0.00    -0.166 F 
ATOM     25  F   UNL     1       1.239  -3.110   8.221  0.00  0.00    -0.166 F 
ENDBRANCH   3  22
BRANCH   3  26
ATOM     26  O   UNL     1       3.265  -4.645   5.619  0.00  0.00    -0.364 OA
ATOM     27  H   UNL     1       3.921  -5.117   6.151  0.00  0.00    +0.212 HD
ENDBRANCH   3  26
BRANCH   2  28
ATOM     28  C   UNL     1       0.639  -3.940   4.839  0.00  0.00    +0.179 C 
ATOM     29  O   UNL     1       0.982  -4.664   3.926  0.00  0.00    -0.291 OA
BRANCH  28  30
ATOM     30  C   UNL     1      -0.656  -4.064   5.390  0.00  0.00    +0.055 A 
ATOM     31  C   UNL     1      -1.678  -4.942   5.041  0.00  0.00    +0.019 A 
ATOM     32  C   UNL     1      -2.837  -4.822   5.765  0.00  0.00    +0.008 A 
ATOM     33  C   UNL     1      -2.910  -3.884   6.744  0.00  0.00    +0.046 A 
ATOM     34  S   UNL     1      -1.405  -3.140   6.718  0.00  0.00    -0.094 S 
ENDBRANCH  28  30
ENDBRANCH   2  28
TORSDOF 8
