REMARK  Name = ZINC38740768
REMARK  3 active torsions:
REMARK  status: ('A' for Active; 'I' for Inactive)
REMARK    1  A    between atoms: C_13  and  C_15
REMARK    2  A    between atoms: C_21  and  C_23
REMARK    3  A    between atoms: N_28  and  C_31
REMARK                            x       y       z     vdW  Elec       q    Type
REMARK                         _______ _______ _______ _____ _____    ______ ____
ROOT
ATOM      1  C   UNL     1       0.151  -6.640   1.201  0.00  0.00    +0.091 C 
ATOM      2  C   UNL     1      -0.707  -6.225   2.399  0.00  0.00    +0.040 C 
ATOM      3  C   UNL     1      -0.079  -6.704   3.675  0.00  0.00    -0.030 C 
ATOM      4  C   UNL     1       0.832  -7.622   3.735  0.00  0.00    -0.030 C 
ATOM      5  C   UNL     1       1.395  -8.328   2.537  0.00  0.00    +0.040 C 
ATOM      6  C   UNL     1       0.475  -8.134   1.325  0.00  0.00    +0.091 C 
ENDROOT
BRANCH   1  19
ATOM      7  C   UNL     1       4.317  -1.885  -4.412  0.00  0.00    +0.005 A 
ATOM      8  C   UNL     1       3.370  -1.770  -5.422  0.00  0.00    +0.018 A 
ATOM      9  C   UNL     1       2.212  -2.518  -5.352  0.00  0.00    +0.084 A 
ATOM     10  N   UNL     1       1.996  -3.338  -4.341  0.00  0.00    -0.350 N 
ATOM     11  C   UNL     1       2.874  -3.476  -3.359  0.00  0.00    +0.099 A 
ATOM     12  C   UNL     1       4.063  -2.753  -3.366  0.00  0.00    +0.042 A 
ATOM     13  N   UNL     1       2.605  -4.351  -2.313  0.00  0.00    -0.314 N 
ATOM     14  C   UNL     1       3.611  -4.604  -1.272  0.00  0.00    +0.125 C 
ATOM     15  C   UNL     1       2.986  -4.305   0.096  0.00  0.00    +0.126 C 
ATOM     16  N   UNL     1       1.691  -4.994   0.181  0.00  0.00    -0.298 N 
ATOM     17  C   UNL     1       0.685  -4.742  -0.860  0.00  0.00    +0.126 C 
ATOM     18  C   UNL     1       1.308  -5.036  -2.226  0.00  0.00    +0.125 C 
ATOM     19  C   UNL     1       1.431  -5.843   1.195  0.00  0.00    +0.220 C 
ATOM     20  O   UNL     1       2.226  -5.966   2.102  0.00  0.00    -0.275 OA
ATOM     21  H   UNL     1       1.174  -3.852  -4.316  0.00  0.00    +0.166 HD
ENDBRANCH   1  19
BRANCH   6  22
ATOM     22  C   UNL     1       1.167  -8.607   0.072  0.00  0.00    +0.220 C 
ATOM     23  O   UNL     1       2.368  -8.482  -0.041  0.00  0.00    -0.275 OA
ATOM     24  N   UNL     1       0.451  -9.169  -0.922  0.00  0.00    -0.298 N 
ATOM     25  C   UNL     1      -1.016  -9.216  -0.853  0.00  0.00    +0.126 C 
ATOM     26  C   UNL     1      -1.587  -8.561  -2.118  0.00  0.00    +0.124 C 
ATOM     27  N   UNL     1      -0.914  -9.138  -3.290  0.00  0.00    -0.325 N 
ATOM     28  C   UNL     1       0.554  -9.092  -3.358  0.00  0.00    +0.124 C 
ATOM     29  C   UNL     1       1.124  -9.742  -2.097  0.00  0.00    +0.126 C 
BRANCH  27  30
ATOM     30  C   UNL     1      -1.653  -9.719  -4.317  0.00  0.00    +0.070 A 
ATOM     31  C   UNL     1      -1.979 -11.076  -4.287  0.00  0.00    +0.081 A 
ATOM     32  C   UNL     1      -2.714 -11.612  -5.324  0.00  0.00    +0.132 A 
ATOM     33  N   UNL     1      -3.107 -10.860  -6.335  0.00  0.00    -0.260 NA
ATOM     34  C   UNL     1      -2.819  -9.574  -6.401  0.00  0.00    +0.132 A 
ATOM     35  C   UNL     1      -2.093  -8.959  -5.401  0.00  0.00    +0.081 A 
ATOM     36 CL   UNL     1      -1.726  -7.264  -5.494  0.00  0.00    -0.080 Cl
ATOM     37 CL   UNL     1      -1.466 -12.074  -2.962  0.00  0.00    -0.080 Cl
ENDBRANCH  27  30
ENDBRANCH   6  22
TORSDOF 3
