REMARK  Name = ZINC13500192
REMARK  12 active torsions:
REMARK  status: ('A' for Active; 'I' for Inactive)
REMARK    1  A    between atoms: C_1  and  C_2
REMARK    2  A    between atoms: C_2  and  C_3
REMARK    3  A    between atoms: C_3  and  C_4
REMARK    4  A    between atoms: C_4  and  C_6
REMARK    5  A    between atoms: C_4  and  N_76
REMARK    6  A    between atoms: N_10  and  C_11
REMARK    7  A    between atoms: C_16  and  C_17
REMARK    8  A    between atoms: C_16  and  N_76
REMARK    9  A    between atoms: C_21  and  O_29
REMARK   10  A    between atoms: O_29  and  C_30
REMARK   11  A    between atoms: C_30  and  C_31
REMARK   12  A    between atoms: C_32  and  N_76
REMARK                            x       y       z     vdW  Elec       q    Type
REMARK                         _______ _______ _______ _____ _____    ______ ____
ROOT
ATOM      1  N   UNL     1       2.551  -1.710  -1.002  0.00  0.00    +0.391 N 
ATOM      2  H   UNL     1       3.229  -1.179  -0.442  0.00  0.00    -0.080 HD
ENDROOT
BRANCH   1   3
ATOM      3  C   UNL     1       2.367  -1.032  -2.303  0.00  0.00    -0.067 C 
ATOM      4  C   UNL     1       1.383  -1.810  -3.178  0.00  0.00    -0.015 C 
ATOM      5  C   UNL     1       1.212  -1.089  -4.517  0.00  0.00    -0.002 C 
ATOM      6  C   UNL     1       2.565  -1.000  -5.225  0.00  0.00    -0.000 C 
ATOM      7  C   UNL     1       3.549  -0.223  -4.350  0.00  0.00    -0.002 C 
ATOM      8  C   UNL     1       3.721  -0.944  -3.011  0.00  0.00    -0.015 C 
ENDBRANCH   1   3
BRANCH   1   9
ATOM      9  C   UNL     1       1.265  -1.764  -0.274  0.00  0.00    +0.003 C 
BRANCH   9  10
ATOM     10  C   UNL     1       0.440  -2.932  -0.749  0.00  0.00    +0.138 A 
ATOM     11  N   UNL     1       0.507  -3.512  -1.923  0.00  0.00    -0.115 NA
ATOM     12  N   UNL     1      -0.356  -4.469  -1.943  0.00  0.00    -0.023 NA
ATOM     13  N   UNL     1      -0.971  -4.514  -0.813  0.00  0.00    -0.044 NA
ATOM     14  N   UNL     1      -0.508  -3.583  -0.050  0.00  0.00    -0.228 N 
BRANCH  14  15
ATOM     15  C   UNL     1      -0.935  -3.288   1.320  0.00  0.00    +0.111 C 
ATOM     16  C   UNL     1      -0.905  -4.575   2.171  0.00  0.00    +0.027 C 
ATOM     17  C   UNL     1      -2.138  -4.444   3.101  0.00  0.00    +0.002 C 
ATOM     18  C   UNL     1      -3.197  -3.795   2.176  0.00  0.00    +0.002 C 
ATOM     19  C   UNL     1      -2.392  -2.792   1.324  0.00  0.00    +0.027 C 
ENDBRANCH  14  15
ENDBRANCH   9  10
BRANCH   9  20
ATOM     20  C   UNL     1       0.494  -0.464  -0.513  0.00  0.00    -0.008 C 
BRANCH  20  22
ATOM     21  C   UNL     1       0.460   1.995  -0.073  0.00  0.00    +0.004 C 
ATOM     22  C   UNL     1       1.273   0.709   0.085  0.00  0.00    -0.005 C 
ENDBRANCH  20  22
ENDBRANCH   9  20
ENDBRANCH   1   9
BRANCH   1  23
ATOM     23  C   UNL     1       3.069  -3.078  -1.213  0.00  0.00    -0.036 C 
BRANCH  23  24
ATOM     24  C   UNL     1       3.675  -3.570   0.076  0.00  0.00    +0.001 A 
ATOM     25  C   UNL     1       2.949  -4.359   0.905  0.00  0.00    +0.017 A 
ATOM     26  C   UNL     1       3.568  -4.825   2.148  0.00  0.00    +0.002 A 
ATOM     27  C   UNL     1       2.869  -5.647   3.039  0.00  0.00    +0.055 A 
ATOM     28  C   UNL     1       3.481  -6.064   4.204  0.00  0.00    +0.121 A 
ATOM     29  C   UNL     1       4.786  -5.670   4.493  0.00  0.00    +0.047 A 
ATOM     30  C   UNL     1       5.483  -4.860   3.624  0.00  0.00    +0.030 A 
ATOM     31  C   UNL     1       4.886  -4.429   2.444  0.00  0.00    +0.049 A 
ATOM     32  N   UNL     1       5.568  -3.619   1.560  0.00  0.00    -0.322 N 
ATOM     33  H   UNL     1       6.477  -3.347   1.765  0.00  0.00    +0.169 HD
ATOM     34  C   UNL     1       4.993  -3.201   0.419  0.00  0.00    +0.251 A 
ATOM     35  O   UNL     1       5.627  -2.487  -0.339  0.00  0.00    -0.268 OA
BRANCH  28  36
ATOM     36  O   UNL     1       2.807  -6.862   5.073  0.00  0.00    -0.492 OA
BRANCH  36  37
ATOM     37  C   UNL     1       3.498  -7.258   6.260  0.00  0.00    +0.225 C 
ATOM     38  C   UNL     1       2.587  -8.147   7.109  0.00  0.00    +0.048 C 
ENDBRANCH  36  37
ENDBRANCH  28  36
ENDBRANCH  23  24
ENDBRANCH   1  23
TORSDOF 10
