REMARK  Name = ZINC51581632
REMARK  7 active torsions:
REMARK  status: ('A' for Active; 'I' for Inactive)
REMARK    1  A    between atoms: C_1  and  C_2
REMARK    2  A    between atoms: C_2  and  C_3
REMARK    3  A    between atoms: C_3  and  C_4
REMARK    4  A    between atoms: C_9  and  S_12
REMARK    5  A    between atoms: S_12  and  C_13
REMARK    6  A    between atoms: C_15  and  C_22
REMARK    7  A    between atoms: C_18  and  C_19
REMARK                            x       y       z     vdW  Elec       q    Type
REMARK                         _______ _______ _______ _____ _____    ______ ____
ROOT
ATOM      1  C   UNL     1       4.122  -3.561   0.945  0.00  0.00    +0.026 A 
ATOM      2  C   UNL     1       3.785  -2.216   0.859  0.00  0.00    +0.019 A 
ATOM      3  C   UNL     1       4.506  -1.277   1.567  0.00  0.00    -0.049 A 
ATOM      4  C   UNL     1       5.568  -1.665   2.368  0.00  0.00    +0.004 A 
ATOM      5  C   UNL     1       5.916  -2.995   2.466  0.00  0.00    +0.012 A 
ATOM      6  C   UNL     1       5.193  -3.958   1.760  0.00  0.00    +0.026 A 
ATOM      7  C   UNL     1       4.136   0.181   1.469  0.00  0.00    +0.044 C 
ENDROOT
BRANCH   6   8
ATOM      8  C   UNL     1       5.556  -5.385   1.865  0.00  0.00    +0.095 C 
ATOM      9  N   UNL     1       6.795  -5.780   1.571  0.00  0.00    -0.387 N 
ATOM     10  N   UNL     1       4.647  -6.278   2.254  0.00  0.00    -0.345 N 
ATOM     11  H   UNL     1       7.436  -5.144   1.218  0.00  0.00    +0.157 HD
ATOM     12  H   UNL     1       3.745  -5.990   2.469  0.00  0.00    +0.144 HD
ATOM     13  H   UNL     1       4.886  -7.216   2.323  0.00  0.00    +0.144 HD
ATOM     14  H   UNL     1       7.055  -6.705   1.710  0.00  0.00    +0.157 HD
ENDBRANCH   6   8
BRANCH   1  15
ATOM     15  S   UNL     1       3.204  -4.764   0.042  0.00  0.00    -0.051 S 
BRANCH  15  21
ATOM     16  C   UNL     1       6.213  -4.803  -2.479  0.00  0.00    +0.049 A 
ATOM     17  C   UNL     1       5.900  -5.794  -3.364  0.00  0.00    +0.093 A 
ATOM     18  C   UNL     1       4.699  -6.504  -3.193  0.00  0.00    +0.252 A 
ATOM     19  O   UNL     1       4.388  -7.396  -3.965  0.00  0.00    -0.268 OA
ATOM     20  N   UNL     1       3.895  -6.179  -2.158  0.00  0.00    -0.302 N 
ATOM     21  C   UNL     1       4.259  -5.180  -1.307  0.00  0.00    +0.174 A 
ATOM     22  N   UNL     1       5.390  -4.523  -1.472  0.00  0.00    -0.228 NA
ATOM     23  H   UNL     1       3.061  -6.655  -2.021  0.00  0.00    +0.171 HD
BRANCH  16  24
ATOM     24  C   UNL     1       7.495  -4.027  -2.641  0.00  0.00    +0.055 C 
BRANCH  24  26
ATOM     25  C   UNL     1       8.520  -1.952  -3.580  0.00  0.00    +0.004 C 
ATOM     26  C   UNL     1       7.218  -2.739  -3.417  0.00  0.00    +0.003 C 
ENDBRANCH  24  26
ENDBRANCH  16  24
ENDBRANCH  15  21
ENDBRANCH   1  15
TORSDOF 5
