REMARK  Name = ZINC20344245
REMARK  6 active torsions:
REMARK  status: ('A' for Active; 'I' for Inactive)
REMARK    1  A    between atoms: C_1  and  C_2
REMARK    2  A    between atoms: C_4  and  O_5
REMARK    3  A    between atoms: N_13  and  C_14
REMARK    4  A    between atoms: C_14  and  N_16
REMARK    5  A    between atoms: N_19  and  C_22
REMARK    6  A    between atoms: C_25  and  N_28
REMARK                            x       y       z     vdW  Elec       q    Type
REMARK                         _______ _______ _______ _____ _____    ______ ____
ROOT
ATOM      1  C   UNL     1       1.965   7.135  -1.605  0.00  0.00    +0.137 C 
ATOM      2  S   UNL     1       3.490   7.869  -1.345  0.00  0.00    -0.018 S 
ENDROOT
BRANCH   1  14
ATOM      3  C   UNL     1      -3.360  11.536  -0.029  0.00  0.00    +0.045 C 
ATOM      4  C   UNL     1      -3.139  11.001  -1.420  0.00  0.00    -0.033 A 
ATOM      5  C   UNL     1      -3.976  11.332  -2.437  0.00  0.00    +0.091 A 
ATOM      6  C   UNL     1      -3.748  10.818  -3.729  0.00  0.00    +0.285 A 
ATOM      7  O   UNL     1      -2.715  10.002  -3.991  0.00  0.00    -0.425 OA
ATOM      8  C   UNL     1      -1.845   9.633  -3.026  0.00  0.00    +0.141 A 
ATOM      9  C   UNL     1      -2.014  10.109  -1.712  0.00  0.00    +0.021 A 
ATOM     10  C   UNL     1      -1.116   9.731  -0.708  0.00  0.00    +0.013 A 
ATOM     11  C   UNL     1      -0.079   8.895  -1.006  0.00  0.00    +0.024 A 
ATOM     12  C   UNL     1       0.098   8.424  -2.307  0.00  0.00    +0.036 A 
ATOM     13  C   UNL     1      -0.784   8.790  -3.313  0.00  0.00    +0.070 A 
ATOM     14  N   UNL     1       1.165   7.575  -2.596  0.00  0.00    -0.297 N 
ATOM     15  H   UNL     1       1.355   7.265  -3.635  0.00  0.00    +0.154 HD
BRANCH   6  16
ATOM     16  O   UNL     1      -4.506  11.123  -4.632  0.00  0.00    -0.480 OA
ATOM     17  H   UNL     1      -4.341  10.730  -5.646  0.00  0.00    +0.295 HD
ENDBRANCH   6  16
ENDBRANCH   1  14
BRANCH   1  18
ATOM     18  N   UNL     1       1.564   6.118  -0.817  0.00  0.00    -0.309 N 
ATOM     19  C   UNL     1       2.463   5.551   0.200  0.00  0.00    +0.125 C 
ATOM     20  C   UNL     1       2.502   4.030   0.020  0.00  0.00    +0.124 C 
ATOM     21  N   UNL     1       1.132   3.501   0.038  0.00  0.00    -0.327 N 
ATOM     22  C   UNL     1       0.344   4.024  -1.086  0.00  0.00    +0.124 C 
ATOM     23  C   UNL     1       0.216   5.546  -0.951  0.00  0.00    +0.125 C 
BRANCH  21  24
ATOM     24  C   UNL     1       1.134   2.105   0.041  0.00  0.00    +0.030 A 
ATOM     25  C   UNL     1      -0.067   1.407   0.058  0.00  0.00    +0.025 A 
ATOM     26  C   UNL     1      -0.062   0.026   0.060  0.00  0.00    +0.034 A 
ATOM     27  C   UNL     1       1.137  -0.662   0.045  0.00  0.00    +0.126 A 
ATOM     28  C   UNL     1       2.335   0.029   0.029  0.00  0.00    +0.034 A 
ATOM     29  C   UNL     1       2.337   1.410   0.028  0.00  0.00    +0.025 A 
BRANCH  27  30
ATOM     30  N   UNL     1       1.139  -2.142   0.047  0.00  0.00    +0.056 N 
ATOM     31  O   UNL     1       0.085  -2.753   0.062  0.00  0.00    -0.126 OA
ATOM     32  O   UNL     1       2.195  -2.750   0.035  0.00  0.00    -0.126 OA
ENDBRANCH  27  30
ENDBRANCH  21  24
ENDBRANCH   1  18
TORSDOF 5
