REMARK  Name = ZINC12321638
REMARK  8 active torsions:
REMARK  status: ('A' for Active; 'I' for Inactive)
REMARK    1  A    between atoms: C_1  and  O_2
REMARK    2  A    between atoms: O_2  and  C_3
REMARK    3  A    between atoms: C_6  and  C_9
REMARK    4  A    between atoms: C_19  and  C_20
REMARK    5  A    between atoms: C_27  and  C_28
REMARK    6  A    between atoms: C_27  and  N_51
REMARK    7  A    between atoms: C_28  and  C_29
REMARK    8  A    between atoms: C_29  and  O_30
REMARK                            x       y       z     vdW  Elec       q    Type
REMARK                         _______ _______ _______ _____ _____    ______ ____
ROOT
ATOM      1  C   UNL     1      -0.891  -0.848   6.985  0.00  0.00    +0.076 A 
ATOM      2  C   UNL     1      -1.609   0.436   7.080  0.00  0.00    +0.201 A 
ATOM      3  O   UNL     1      -2.460   0.636   7.929  0.00  0.00    -0.286 OA
ATOM      4  C   UNL     1      -1.241   1.464   6.090  0.00  0.00    +0.065 A 
ATOM      5  C   UNL     1      -1.857   2.717   6.088  0.00  0.00    +0.019 A 
ATOM      6  C   UNL     1      -1.494   3.648   5.159  0.00  0.00    +0.046 A 
ATOM      7  C   UNL     1      -0.512   3.355   4.210  0.00  0.00    +0.123 A 
ATOM      8  C   UNL     1       0.106   2.119   4.202  0.00  0.00    +0.021 A 
ATOM      9  C   UNL     1      -0.251   1.157   5.142  0.00  0.00    +0.144 A 
ATOM     10  O   UNL     1       0.351  -0.047   5.133  0.00  0.00    -0.450 OA
ATOM     11  C   UNL     1       0.042  -0.997   6.012  0.00  0.00    +0.219 A 
ATOM     12  C   UNL     1       1.171   1.793   3.185  0.00  0.00    -0.031 C 
ATOM     13  C   UNL     1       1.050   4.127   2.589  0.00  0.00    +0.157 C 
ATOM     14  O   UNL     1      -0.180   4.305   3.296  0.00  0.00    -0.509 OA
ATOM     15  N   UNL     1       1.076   2.747   2.063  0.00  0.00    +0.405 N 
ATOM     16  H   UNL     1       0.209   2.570   1.544  0.00  0.00    -0.076 HD
ENDROOT
BRANCH   1  20
ATOM     17  C   UNL     1      -1.729  -4.015   9.699  0.00  0.00    +0.120 A 
ATOM     18  C   UNL     1      -1.070  -2.877  10.144  0.00  0.00    +0.046 A 
ATOM     19  C   UNL     1      -0.797  -1.849   9.267  0.00  0.00    +0.012 A 
ATOM     20  C   UNL     1      -1.183  -1.952   7.931  0.00  0.00    -0.010 A 
ATOM     21  C   UNL     1      -1.850  -3.093   7.489  0.00  0.00    +0.012 A 
ATOM     22  C   UNL     1      -2.115  -4.121   8.370  0.00  0.00    +0.046 A 
BRANCH  17  24
ATOM     23  C   UNL     1      -2.678  -6.168  10.041  0.00  0.00    +0.277 C 
ATOM     24  O   UNL     1      -1.997  -5.026  10.566  0.00  0.00    -0.495 OA
ENDBRANCH  17  24
ENDBRANCH   1  20
BRANCH  11  25
ATOM     25  C   UNL     1       0.772  -2.312   5.922  0.00  0.00    +0.451 C 
ATOM     26  F   UNL     1      -0.117  -3.312   5.513  0.00  0.00    -0.163 F 
ATOM     27  F   UNL     1       1.813  -2.205   4.994  0.00  0.00    -0.163 F 
ATOM     28  F   UNL     1       1.297  -2.640   7.177  0.00  0.00    -0.163 F 
ENDBRANCH  11  25
BRANCH  15  29
ATOM     29  C   UNL     1       2.229   2.573   1.151  0.00  0.00    -0.071 C 
BRANCH  29  30
ATOM     30  C   UNL     1       1.993   3.402  -0.113  0.00  0.00    +0.009 C 
BRANCH  30  31
ATOM     31  C   UNL     1       3.171   3.218  -1.071  0.00  0.00    +0.154 C 
BRANCH  31  32
ATOM     32  O   UNL     1       2.951   3.993  -2.252  0.00  0.00    -0.395 OA
ATOM     33  H   UNL     1       3.660   3.924  -2.906  0.00  0.00    +0.209 HD
ENDBRANCH  31  32
ENDBRANCH  30  31
ENDBRANCH  29  30
ENDBRANCH  15  29
TORSDOF 7
