REMARK  Name = ZINC21986105
REMARK  9 active torsions:
REMARK  status: ('A' for Active; 'I' for Inactive)
REMARK    1  A    between atoms: C_1  and  C_2
REMARK    2  A    between atoms: C_2  and  C_4
REMARK    3  A    between atoms: C_4  and  O_37
REMARK    4  A    between atoms: C_8  and  O_25
REMARK    5  A    between atoms: C_11  and  O_12
REMARK    6  A    between atoms: C_19  and  O_23
REMARK    7  A    between atoms: O_23  and  C_24
REMARK    8  A    between atoms: C_26  and  O_29
REMARK    9  A    between atoms: O_29  and  C_30
REMARK                            x       y       z     vdW  Elec       q    Type
REMARK                         _______ _______ _______ _____ _____    ______ ____
ROOT
ATOM      1  C   UNL     1      -0.754   2.520  -6.041  0.00  0.00    +0.130 C 
ATOM      2  C   UNL     1      -0.141   3.878  -6.375  0.00  0.00    +0.082 C 
ATOM      3  C   UNL     1       0.542   4.465  -5.167  0.00  0.00    +0.007 A 
ATOM      4  C   UNL     1       0.290   4.028  -3.891  0.00  0.00    +0.030 A 
ATOM      5  C   UNL     1       0.945   4.620  -2.803  0.00  0.00    +0.134 A 
ATOM      6  C   UNL     1       1.857   5.654  -3.003  0.00  0.00    +0.078 A 
ATOM      7  C   UNL     1       2.118   6.102  -4.314  0.00  0.00    +0.078 A 
ATOM      8  C   UNL     1       1.458   5.503  -5.385  0.00  0.00    +0.132 A 
ATOM      9  C   UNL     1       3.080   7.193  -4.543  0.00  0.00    +0.198 C 
ATOM     10  O   UNL     1       3.305   7.580  -5.673  0.00  0.00    -0.286 OA
ATOM     11  C   UNL     1       3.772   7.817  -3.395  0.00  0.00    +0.037 A 
ATOM     12  C   UNL     1       4.683   8.848  -3.601  0.00  0.00    +0.012 A 
ATOM     13  C   UNL     1       5.329   9.429  -2.522  0.00  0.00    +0.004 A 
ATOM     14  C   UNL     1       5.078   8.993  -1.237  0.00  0.00    +0.046 A 
ATOM     15  C   UNL     1       4.171   7.963  -1.008  0.00  0.00    +0.132 A 
ATOM     16  C   UNL     1       3.511   7.368  -2.087  0.00  0.00    +0.075 A 
ATOM     17  C   UNL     1       2.546   6.277  -1.859  0.00  0.00    +0.202 C 
ATOM     18  O   UNL     1       2.320   5.891  -0.728  0.00  0.00    -0.286 OA
ATOM     19  C   UNL     1      -0.678   2.912  -3.592  0.00  0.00    +0.158 C 
ATOM     20  C   UNL     1      -1.610   2.675  -4.778  0.00  0.00    +0.079 C 
ENDROOT
BRANCH   1  22
ATOM     21  C   UNL     1       0.073   0.045  -5.979  0.00  0.00    +0.089 C 
ATOM     22  C   UNL     1       0.342   1.516  -5.792  0.00  0.00    +0.162 C 
ATOM     23  O   UNL     1       1.436   1.890  -5.443  0.00  0.00    -0.295 OA
ENDBRANCH   1  22
BRANCH   8  24
ATOM     24  O   UNL     1       1.705   5.927  -6.649  0.00  0.00    -0.506 OA
ATOM     25  H   UNL     1       2.423   6.741  -6.826  0.00  0.00    +0.292 HD
ENDBRANCH   8  24
BRANCH  15  26
ATOM     26  O   UNL     1       3.928   7.539   0.257  0.00  0.00    -0.494 OA
ATOM     27  C   UNL     1       4.639   8.194   1.309  0.00  0.00    +0.277 C 
ENDBRANCH  15  26
BRANCH   5  28
ATOM     28  O   UNL     1       0.689   4.184  -1.545  0.00  0.00    -0.506 OA
ATOM     29  H   UNL     1       1.200   4.646  -0.688  0.00  0.00    +0.292 HD
ENDBRANCH   5  28
BRANCH   1  30
ATOM     30  O   UNL     1      -1.572   2.080  -7.127  0.00  0.00    -0.381 OA
ATOM     31  H   UNL     1      -2.428   2.690  -7.453  0.00  0.00    +0.211 HD
ENDBRANCH   1  30
BRANCH  19  32
ATOM     32  O   UNL     1      -1.455   3.257  -2.444  0.00  0.00    -0.343 OA
BRANCH  32  33
ATOM     33  C   UNL     1      -1.791   2.145  -1.613  0.00  0.00    +0.251 C 
ATOM     34  C   UNL     1      -2.394   2.651  -0.300  0.00  0.00    +0.061 C 
ATOM     35  C   UNL     1      -2.807   1.453   0.559  0.00  0.00    +0.007 C 
ATOM     36  C   UNL     1      -3.788   0.583  -0.233  0.00  0.00    +0.028 C 
ATOM     37  C   UNL     1      -3.131   0.156  -1.549  0.00  0.00    +0.163 C 
ATOM     38  O   UNL     1      -2.744   1.318  -2.285  0.00  0.00    -0.351 OA
ENDBRANCH  32  33
ENDBRANCH  19  32
TORSDOF 7
