REMARK  Name = ZINC39583661
REMARK  7 active torsions:
REMARK  status: ('A' for Active; 'I' for Inactive)
REMARK    1  A    between atoms: C_1  and  C_2
REMARK    2  A    between atoms: C_2  and  N_3
REMARK    3  A    between atoms: C_4  and  C_20
REMARK    4  A    between atoms: C_8  and  S_9
REMARK    5  A    between atoms: S_9  and  C_10
REMARK    6  A    between atoms: C_10  and  C_11
REMARK    7  A    between atoms: C_24  and  C_26
REMARK                            x       y       z     vdW  Elec       q    Type
REMARK                         _______ _______ _______ _____ _____    ______ ____
ROOT
ATOM      1  N   UNL     1      -1.351  -0.514   0.141  0.00  0.00    -0.285 N 
ATOM      2  C   UNL     1      -2.112  -0.720   1.385  0.00  0.00    +0.208 C 
ATOM      3  N   UNL     1      -3.415  -1.229   0.924  0.00  0.00    -0.242 N 
ATOM      4  N   UNL     1      -3.339  -1.286  -0.473  0.00  0.00    -0.162 NA
ATOM      5  C   UNL     1      -2.191  -0.881  -0.900  0.00  0.00    +0.176 C 
ATOM      6  H   UNL     1      -4.173  -1.475   1.477  0.00  0.00    +0.170 HD
ENDROOT
BRANCH   2   7
ATOM      7  C   UNL     1      -2.281   0.584   2.123  0.00  0.00    -0.008 A 
ATOM      8  C   UNL     1      -1.674   0.767   3.351  0.00  0.00    +0.007 A 
ATOM      9  C   UNL     1      -1.829   1.962   4.027  0.00  0.00    +0.001 A 
ATOM     10  C   UNL     1      -2.591   2.975   3.475  0.00  0.00    +0.003 A 
ATOM     11  C   UNL     1      -3.197   2.792   2.247  0.00  0.00    -0.050 A 
ATOM     12  C   UNL     1      -3.038   1.598   1.568  0.00  0.00    +0.010 A 
ATOM     13  C   UNL     1      -4.028   3.896   1.645  0.00  0.00    +0.044 C 
ENDBRANCH   2   7
BRANCH   1  15
ATOM     14  C   UNL     1      -0.004   1.499  -0.193  0.00  0.00    +0.024 C 
ATOM     15  C   UNL     1       0.021  -0.015   0.025  0.00  0.00    +0.106 C 
ENDBRANCH   1  15
BRANCH   5  16
ATOM     16  S   UNL     1      -1.741  -0.808  -2.603  0.00  0.00    -0.081 S 
BRANCH  16  17
ATOM     17  C   UNL     1      -3.219  -1.401  -3.473  0.00  0.00    +0.151 C 
BRANCH  17  18
ATOM     18  C   UNL     1      -2.966  -1.389  -4.958  0.00  0.00    +0.118 A 
ATOM     19  N   UNL     1      -2.472  -2.382  -5.638  0.00  0.00    -0.232 NA
ATOM     20  C   UNL     1      -2.376  -2.035  -6.948  0.00  0.00    +0.089 A 
ATOM     21  C   UNL     1      -1.927  -2.701  -8.090  0.00  0.00    +0.030 A 
ATOM     22  C   UNL     1      -1.956  -2.071  -9.302  0.00  0.00    +0.002 A 
ATOM     23  C   UNL     1      -2.428  -0.771  -9.412  0.00  0.00    +0.002 A 
ATOM     24  C   UNL     1      -2.877  -0.094  -8.298  0.00  0.00    +0.028 A 
ATOM     25  C   UNL     1      -2.855  -0.719  -7.059  0.00  0.00    +0.066 A 
ATOM     26  N   UNL     1      -3.226  -0.339  -5.784  0.00  0.00    -0.341 N 
ATOM     27  H   UNL     1      -3.600   0.517  -5.525  0.00  0.00    +0.167 HD
ENDBRANCH  17  18
ENDBRANCH  16  17
ENDBRANCH   5  16
TORSDOF 5
