REMARK  Name = ZINC39609610
REMARK  10 active torsions:
REMARK  status: ('A' for Active; 'I' for Inactive)
REMARK    1  A    between atoms: C_1  and  C_2
REMARK    2  A    between atoms: C_2  and  O_3
REMARK    3  A    between atoms: O_3  and  C_4
REMARK    4  A    between atoms: C_8  and  C_10
REMARK    5  A    between atoms: C_10  and  C_11
REMARK    6  A    between atoms: C_11  and  N_12
REMARK    7  A    between atoms: C_13  and  C_15
REMARK    8  A    between atoms: C_26  and  C_28
REMARK    9  A    between atoms: C_28  and  C_29
REMARK   10  A    between atoms: C_34  and  C_35
REMARK                            x       y       z     vdW  Elec       q    Type
REMARK                         _______ _______ _______ _____ _____    ______ ____
ROOT
ATOM      1  C   UNL     1      -8.120  -6.024   2.628  0.00  0.00    +0.100 C 
ATOM      2  C   UNL     1      -9.148  -5.002   2.094  0.00  0.00    +0.121 C 
ATOM      3  N   UNL     1     -10.357  -5.219   2.923  0.00  0.00    -0.300 N 
ATOM      4  C   UNL     1      -9.830  -5.461   4.287  0.00  0.00    +0.115 C 
ATOM      5  C   UNL     1      -8.570  -6.322   4.068  0.00  0.00    -0.004 C 
ATOM      6  C   UNL     1      -7.480  -5.921   5.057  0.00  0.00    -0.010 C 
ATOM      7  C   UNL     1      -7.927  -6.281   6.476  0.00  0.00    -0.082 C 
ATOM      8  N   UNL     1      -8.185  -7.724   6.560  0.00  0.00    +0.379 N 
ATOM      9  C   UNL     1      -9.298  -8.085   5.674  0.00  0.00    -0.082 C 
ATOM     10  C   UNL     1      -8.909  -7.802   4.220  0.00  0.00    -0.010 C 
ATOM     11  C   UNL     1     -11.645  -5.202   2.525  0.00  0.00    +0.220 C 
ATOM     12  O   UNL     1     -12.530  -5.399   3.330  0.00  0.00    -0.275 OA
ATOM     13  H   UNL     1      -7.357  -8.229   6.281  0.00  0.00    -0.086 HD
ATOM     14  H   UNL     1      -8.421  -7.968   7.510  0.00  0.00    -0.086 HD
ENDROOT
BRANCH   1  16
ATOM     15  N   UNL     1      -5.658  -6.224   2.484  0.00  0.00    -0.315 N 
ATOM     16  C   UNL     1      -6.736  -5.427   2.624  0.00  0.00    +0.218 C 
ATOM     17  O   UNL     1      -6.592  -4.229   2.748  0.00  0.00    -0.275 OA
ATOM     18  H   UNL     1      -5.774  -7.183   2.386  0.00  0.00    +0.149 HD
BRANCH  15  19
ATOM     19  C   UNL     1      -4.313  -5.644   2.481  0.00  0.00    +0.109 C 
BRANCH  19  20
ATOM     20  C   UNL     1      -3.278  -6.758   2.308  0.00  0.00    +0.054 C 
BRANCH  20  25
ATOM     21  C   UNL     1      -0.046  -5.209   1.112  0.00  0.00    +0.121 A 
ATOM     22  C   UNL     1       0.648  -5.065   2.305  0.00  0.00    +0.045 A 
ATOM     23  C   UNL     1       0.069  -5.469   3.492  0.00  0.00    +0.004 A 
ATOM     24  C   UNL     1      -1.201  -6.016   3.492  0.00  0.00    +0.004 A 
ATOM     25  C   UNL     1      -1.894  -6.161   2.305  0.00  0.00    -0.042 A 
ATOM     26  C   UNL     1      -1.322  -5.753   1.115  0.00  0.00    +0.049 A 
BRANCH  21  27
ATOM     27  O   UNL     1       0.522  -4.812  -0.058  0.00  0.00    -0.492 OA
BRANCH  27  29
ATOM     28  C   UNL     1       2.307  -3.874  -1.390  0.00  0.00    +0.048 C 
ATOM     29  C   UNL     1       1.838  -4.260   0.015  0.00  0.00    +0.225 C 
ENDBRANCH  27  29
ENDBRANCH  21  27
ENDBRANCH  20  25
ENDBRANCH  19  20
ENDBRANCH  15  19
ENDBRANCH   1  16
BRANCH  11  30
ATOM     30  C   UNL     1     -11.984  -4.937   1.081  0.00  0.00    +0.131 C 
BRANCH  30  31
ATOM     31  C   UNL     1     -13.480  -4.971   0.902  0.00  0.00    -0.036 A 
ATOM     32  C   UNL     1     -14.101  -6.138   0.497  0.00  0.00    +0.004 A 
ATOM     33  C   UNL     1     -15.473  -6.170   0.333  0.00  0.00    +0.000 A 
ATOM     34  C   UNL     1     -16.225  -5.035   0.575  0.00  0.00    +0.000 A 
ATOM     35  C   UNL     1     -15.604  -3.868   0.981  0.00  0.00    +0.003 A 
ATOM     36  C   UNL     1     -14.232  -3.838   1.149  0.00  0.00    -0.047 A 
ATOM     37  C   UNL     1     -13.556  -2.568   1.597  0.00  0.00    +0.044 C 
ENDBRANCH  30  31
ENDBRANCH  11  30
TORSDOF 8
