REMARK  Name = ZINC13678409
REMARK  5 active torsions:
REMARK  status: ('A' for Active; 'I' for Inactive)
REMARK    1  A    between atoms: C_1  and  C_2
REMARK    2  A    between atoms: C_4  and  C_18
REMARK    3  A    between atoms: C_7  and  N_8
REMARK    4  A    between atoms: N_8  and  S_9
REMARK    5  A    between atoms: S_9  and  C_12
REMARK                            x       y       z     vdW  Elec       q    Type
REMARK                         _______ _______ _______ _____ _____    ______ ____
ROOT
ATOM      1  C   UNL     1       3.178  -1.156  -4.165  0.00  0.00    +0.046 C 
ATOM      2  C   UNL     1       3.996   0.029  -3.719  0.00  0.00    -0.027 A 
ATOM      3  C   UNL     1       4.141   1.117  -4.549  0.00  0.00    +0.018 A 
ATOM      4  C   UNL     1       4.905   2.212  -4.137  0.00  0.00    +0.038 A 
ATOM      5  C   UNL     1       5.515   2.201  -2.878  0.00  0.00    +0.015 A 
ATOM      6  C   UNL     1       5.362   1.113  -2.051  0.00  0.00    +0.025 A 
ATOM      7  C   UNL     1       4.600   0.023  -2.465  0.00  0.00    +0.051 A 
ENDROOT
BRANCH   4   8
ATOM      8  C   UNL     1       5.067   3.377  -5.027  0.00  0.00    +0.251 C 
ATOM      9  O   UNL     1       5.076   3.225  -6.233  0.00  0.00    -0.270 OA
ATOM     10  N   UNL     1       5.205   4.611  -4.503  0.00  0.00    -0.257 N 
ATOM     11  C   UNL     1       5.064   4.842  -3.057  0.00  0.00    +0.210 C 
ATOM     12  C   UNL     1       4.272   6.106  -2.836  0.00  0.00    +0.235 C 
ATOM     13  O   UNL     1       3.597   6.222  -1.835  0.00  0.00    -0.274 OA
ATOM     14  N   UNL     1       4.305   7.106  -3.737  0.00  0.00    -0.283 N 
ATOM     15  C   UNL     1       5.034   6.976  -4.924  0.00  0.00    +0.055 A 
ATOM     16  C   UNL     1       5.495   5.716  -5.318  0.00  0.00    +0.058 A 
ATOM     17  C   UNL     1       6.206   5.572  -6.492  0.00  0.00    +0.025 A 
ATOM     18  C   UNL     1       6.473   6.683  -7.274  0.00  0.00    +0.002 A 
ATOM     19  C   UNL     1       6.027   7.932  -6.883  0.00  0.00    +0.002 A 
ATOM     20  C   UNL     1       5.309   8.082  -5.711  0.00  0.00    +0.025 A 
ATOM     21  H   UNL     1       3.817   7.926  -3.560  0.00  0.00    +0.155 HD
ENDBRANCH   4   8
BRANCH   7  22
ATOM     22  N   UNL     1       4.447  -1.075  -1.626  0.00  0.00    -0.216 N 
ATOM     23  H   UNL     1       4.410  -1.969  -1.999  0.00  0.00    +0.174 HD
BRANCH  22  24
ATOM     24  S   UNL     1       4.328  -0.856   0.012  0.00  0.00    +0.072 S 
ATOM     25  O   UNL     1       5.455  -0.083   0.401  0.00  0.00    -0.150 OA
ATOM     26  O   UNL     1       4.049  -2.131   0.573  0.00  0.00    -0.150 OA
BRANCH  24  27
ATOM     27  C   UNL     1       2.907   0.144   0.302  0.00  0.00    +0.108 A 
ATOM     28  C   UNL     1       1.673  -0.449   0.498  0.00  0.00    +0.029 A 
ATOM     29  C   UNL     1       0.558   0.336   0.726  0.00  0.00    +0.002 A 
ATOM     30  C   UNL     1       0.676   1.712   0.757  0.00  0.00    +0.000 A 
ATOM     31  C   UNL     1       1.909   2.305   0.561  0.00  0.00    +0.002 A 
ATOM     32  C   UNL     1       3.025   1.521   0.333  0.00  0.00    +0.029 A 
ENDBRANCH  24  27
ENDBRANCH  22  24
ENDBRANCH   7  22
TORSDOF 4
