REMARK  Name = ZINC59460121
REMARK  6 active torsions:
REMARK  status: ('A' for Active; 'I' for Inactive)
REMARK    1  A    between atoms: C_1  and  C_2
REMARK    2  A    between atoms: C_3  and  C_12
REMARK    3  A    between atoms: N_13  and  C_14
REMARK    4  A    between atoms: C_15  and  C_23
REMARK    5  A    between atoms: C_23  and  O_25
REMARK    6  A    between atoms: O_25  and  C_26
REMARK                            x       y       z     vdW  Elec       q    Type
REMARK                         _______ _______ _______ _____ _____    ______ ____
ROOT
ATOM      1  C   UNL     1      -0.006  -0.325  -2.508  0.00  0.00    +0.122 C 
ATOM      2  N   UNL     1      -0.024   0.960  -2.772  0.00  0.00    -0.247 NA
ENDROOT
BRANCH   1   5
ATOM      3  C   UNL     1      -0.018   1.503   0.010  0.00  0.00    +0.064 C 
ATOM      4  C   UNL     1       0.002  -0.004   0.002  0.00  0.00    +0.023 A 
ATOM      5  C   UNL     1       0.007  -0.785  -1.120  0.00  0.00    +0.021 A 
ATOM      6  C   UNL     1       0.029  -2.185  -0.654  0.00  0.00    +0.009 A 
ATOM      7  C   UNL     1       0.043  -3.418  -1.299  0.00  0.00    +0.010 A 
ATOM      8  C   UNL     1       0.062  -4.578  -0.555  0.00  0.00    +0.001 A 
ATOM      9  C   UNL     1       0.067  -4.519   0.832  0.00  0.00    +0.002 A 
ATOM     10  C   UNL     1       0.054  -3.305   1.483  0.00  0.00    +0.026 A 
ATOM     11  C   UNL     1       0.034  -2.123   0.749  0.00  0.00    +0.047 A 
ATOM     12  N   UNL     1       0.024  -0.791   1.106  0.00  0.00    -0.358 N 
ATOM     13  H   UNL     1       0.028  -0.463   2.019  0.00  0.00    +0.166 HD
ENDBRANCH   1   5
BRANCH   2  14
ATOM     14  C   UNL     1      -0.036   1.385  -4.053  0.00  0.00    +0.116 A 
ATOM     15  C   UNL     1      -0.051   2.696  -4.544  0.00  0.00    +0.095 A 
ATOM     16  C   UNL     1      -0.061   2.875  -5.984  0.00  0.00    -0.021 A 
ATOM     17  C   UNL     1      -0.057   1.745  -6.729  0.00  0.00    -0.004 A 
ATOM     18  S   UNL     1      -0.030   0.420  -5.553  0.00  0.00    -0.073 S 
ATOM     19  C   UNL     1      -0.066   1.646  -8.224  0.00  0.00    +0.043 C 
ATOM     20  C   UNL     1      -0.458   3.014  -8.798  0.00  0.00    +0.005 C 
ATOM     21  C   UNL     1       0.376   4.095  -8.104  0.00  0.00    +0.005 C 
ATOM     22  C   UNL     1      -0.077   4.247  -6.651  0.00  0.00    +0.037 C 
BRANCH  15  23
ATOM     23  C   UNL     1      -0.055   3.845  -3.637  0.00  0.00    +0.342 C 
ATOM     24  O   UNL     1       0.997   4.332  -3.267  0.00  0.00    -0.245 OA
BRANCH  23  25
ATOM     25  O   UNL     1      -1.226   4.364  -3.212  0.00  0.00    -0.464 OA
ATOM     26  C   UNL     1      -1.155   5.484  -2.328  0.00  0.00    +0.280 C 
ENDBRANCH  23  25
ENDBRANCH  15  23
ENDBRANCH   2  14
TORSDOF 4
