REMARK  Name = ZINC29720557
REMARK  12 active torsions:
REMARK  status: ('A' for Active; 'I' for Inactive)
REMARK    1  A    between atoms: C_1  and  C_2
REMARK    2  A    between atoms: C_2  and  C_3
REMARK    3  A    between atoms: C_3  and  C_4
REMARK    4  A    between atoms: C_3  and  C_5
REMARK    5  A    between atoms: C_3  and  N_6
REMARK    6  A    between atoms: C_7  and  C_9
REMARK    7  A    between atoms: C_9  and  C_11
REMARK    8  A    between atoms: C_9  and  N_12
REMARK    9  A    between atoms: N_12  and  C_13
REMARK   10  A    between atoms: C_16  and  N_19
REMARK   11  A    between atoms: N_22  and  C_23
REMARK   12  A    between atoms: C_23  and  C_24
REMARK                            x       y       z     vdW  Elec       q    Type
REMARK                         _______ _______ _______ _____ _____    ______ ____
ROOT
ATOM      1  C   UNL     1      -4.859   1.397  -0.461  0.00  0.00    +0.028 A 
ATOM      2  C   UNL     1      -4.977   0.191  -1.140  0.00  0.00    +0.025 A 
ATOM      3  C   UNL     1      -6.202  -0.202  -1.642  0.00  0.00    +0.025 A 
ATOM      4  C   UNL     1      -7.313   0.616  -1.480  0.00  0.00    +0.035 A 
ATOM      5  C   UNL     1      -7.194   1.824  -0.806  0.00  0.00    +0.025 A 
ATOM      6  C   UNL     1      -5.970   2.214  -0.299  0.00  0.00    +0.025 A 
ENDROOT
BRANCH   4   7
ATOM      7  N   UNL     1      -8.555   0.220  -1.995  0.00  0.00    -0.269 N 
ATOM      8  C   UNL     1      -9.419   1.146  -2.456  0.00  0.00    +0.304 C 
ATOM      9  O   UNL     1      -9.085   2.313  -2.515  0.00  0.00    -0.252 OA
ATOM     10  N   UNL     1     -10.654   0.778  -2.852  0.00  0.00    -0.292 N 
ATOM     11  H   UNL     1      -8.825  -0.846  -2.023  0.00  0.00    +0.156 HD
ATOM     12  H   UNL     1     -10.956  -0.279  -2.798  0.00  0.00    +0.151 HD
BRANCH  10  13
ATOM     13  C   UNL     1     -11.593   1.784  -3.353  0.00  0.00    +0.180 C 
BRANCH  13  14
ATOM     14  C   UNL     1     -12.892   1.117  -3.726  0.00  0.00    +0.122 A 
ATOM     15  C   UNL     1     -13.942   0.927  -2.907  0.00  0.00    +0.046 A 
ATOM     16  C   UNL     1     -14.938   0.269  -3.664  0.00  0.00    +0.041 A 
ATOM     17  C   UNL     1     -14.437   0.097  -4.901  0.00  0.00    +0.195 A 
ATOM     18  O   UNL     1     -13.200   0.618  -4.934  0.00  0.00    -0.466 OA
ENDBRANCH  13  14
ENDBRANCH  10  13
ENDBRANCH   4   7
BRANCH   1  19
ATOM     19  N   UNL     1      -3.619   1.792   0.053  0.00  0.00    -0.333 N 
ATOM     20  H   UNL     1      -3.524   2.749   0.586  0.00  0.00    +0.147 HD
BRANCH  19  21
ATOM     21  C   UNL     1      -2.447   0.930  -0.118  0.00  0.00    +0.154 C 
ATOM     22  C   UNL     1      -2.413  -0.114   0.999  0.00  0.00    +0.038 C 
BRANCH  21  24
ATOM     23  N   UNL     1       0.012   1.184  -0.197  0.00  0.00    -0.309 N 
ATOM     24  C   UNL     1      -1.195   1.767  -0.061  0.00  0.00    +0.233 C 
ATOM     25  O   UNL     1      -1.274   2.966   0.106  0.00  0.00    -0.274 OA
ATOM     26  H   UNL     1       0.085   0.096  -0.344  0.00  0.00    +0.149 HD
BRANCH  23  27
ATOM     27  C   UNL     1       1.229   1.999  -0.147  0.00  0.00    +0.029 C 
ATOM     28  C   UNL     1       1.190   3.042  -1.265  0.00  0.00    +0.031 C 
ATOM     29  C   UNL     1       1.315   2.705   1.207  0.00  0.00    +0.031 C 
BRANCH  27  31
ATOM     30  C   UNL     1       3.723   1.950  -0.280  0.00  0.00    +0.006 C 
ATOM     31  C   UNL     1       2.453   1.099  -0.332  0.00  0.00    +0.022 C 
ENDBRANCH  27  31
ENDBRANCH  23  27
ENDBRANCH  21  24
ENDBRANCH  19  21
ENDBRANCH   1  19
TORSDOF 8
