REMARK  Name = ZINC14244858
REMARK  5 active torsions:
REMARK  status: ('A' for Active; 'I' for Inactive)
REMARK    1  A    between atoms: C_1  and  C_2
REMARK    2  A    between atoms: C_10  and  C_11
REMARK    3  A    between atoms: N_13  and  N_14
REMARK    4  A    between atoms: C_15  and  C_17
REMARK    5  A    between atoms: C_17  and  N_18
REMARK                            x       y       z     vdW  Elec       q    Type
REMARK                         _______ _______ _______ _____ _____    ______ ____
ROOT
ATOM      1  C   UNL     1      -0.014   1.212   0.009  0.00  0.00    +0.296 C 
ATOM      2  O   UNL     1       0.002  -0.004   0.002  0.00  0.00    -0.265 OA
ATOM      3  N   UNL     1       1.143   1.902   0.001  0.00  0.00    -0.228 N 
ATOM      4  H   UNL     1       1.130   2.872   0.007  0.00  0.00    +0.173 HD
ENDROOT
BRANCH   1  14
ATOM      5  C   UNL     1      -2.817  -0.136   0.003  0.00  0.00    +0.048 C 
ATOM      6  C   UNL     1      -2.521   1.342   0.016  0.00  0.00    +0.008 A 
ATOM      7  C   UNL     1      -3.495   2.433   0.031  0.00  0.00    +0.025 A 
ATOM      8  C   UNL     1      -4.891   2.493   0.037  0.00  0.00    +0.027 A 
ATOM      9  C   UNL     1      -5.516   3.708   0.047  0.00  0.00    +0.019 A 
ATOM     10  C   UNL     1      -4.774   4.882   0.050  0.00  0.00    +0.019 A 
ATOM     11  C   UNL     1      -3.396   4.844   0.043  0.00  0.00    +0.048 A 
ATOM     12  C   UNL     1      -2.738   3.620   0.034  0.00  0.00    +0.136 A 
ATOM     13  O   UNL     1      -1.436   3.272   0.026  0.00  0.00    -0.450 OA
ATOM     14  C   UNL     1      -1.297   1.930   0.019  0.00  0.00    +0.195 A 
ATOM     15 BR   UNL     1      -7.406   3.792   0.055  0.00  0.00    -0.050 Br
ENDBRANCH   1  14
BRANCH   3  16
ATOM     16  N   UNL     1       2.366   1.218  -0.014  0.00  0.00    -0.233 N 
ATOM     17  C   UNL     1       3.524   1.908  -0.021  0.00  0.00    +0.246 C 
ATOM     18  O   UNL     1       3.508   3.120  -0.015  0.00  0.00    -0.273 OA
ATOM     19  H   UNL     1       2.379   0.248  -0.019  0.00  0.00    +0.173 HD
BRANCH  17  20
ATOM     20  C   UNL     1       4.839   1.172  -0.038  0.00  0.00    +0.204 C 
BRANCH  20  21
ATOM     21  N   UNL     1       5.940   2.139  -0.043  0.00  0.00    -0.293 N 
ATOM     22  C   UNL     1       6.501   2.615   1.232  0.00  0.00    +0.108 C 
ATOM     23  C   UNL     1       6.069   4.067   1.446  0.00  0.00    +0.019 C 
ATOM     24  C   UNL     1       7.033   5.024   0.768  0.00  0.00    +0.002 C 
ATOM     25  C   UNL     1       7.017   4.938  -0.748  0.00  0.00    +0.009 C 
ATOM     26  C   UNL     1       7.559   3.587  -1.220  0.00  0.00    +0.096 C 
ATOM     27  C   UNL     1       6.430   2.579  -1.203  0.00  0.00    +0.216 C 
ATOM     28  O   UNL     1       5.967   2.172  -2.248  0.00  0.00    -0.276 OA
ENDBRANCH  20  21
ENDBRANCH  17  20
ENDBRANCH   3  16
TORSDOF 4
