REMARK  Name = ZINC63372997
REMARK  11 active torsions:
REMARK  status: ('A' for Active; 'I' for Inactive)
REMARK    1  A    between atoms: C_1  and  C_2
REMARK    2  A    between atoms: C_2  and  C_3
REMARK    3  A    between atoms: C_2  and  C_4
REMARK    4  A    between atoms: C_4  and  C_5
REMARK    5  A    between atoms: C_5  and  C_7
REMARK    6  A    between atoms: C_5  and  N_19
REMARK    7  A    between atoms: N_9  and  C_10
REMARK    8  A    between atoms: C_10  and  C_11
REMARK    9  A    between atoms: C_15  and  O_17
REMARK   10  A    between atoms: O_17  and  C_18
REMARK   11  A    between atoms: C_22  and  C_38
REMARK                            x       y       z     vdW  Elec       q    Type
REMARK                         _______ _______ _______ _____ _____    ______ ____
ROOT
ATOM      1  N   UNL     1      -0.876  -2.426  -1.433  0.00  0.00    -0.212 N 
ATOM      2  C   UNL     1       0.225  -3.184  -1.613  0.00  0.00    +0.249 C 
ATOM      3  O   UNL     1       0.944  -3.646  -0.753  0.00  0.00    -0.273 OA
ATOM      4  C   UNL     1       0.377  -3.338  -3.111  0.00  0.00    +0.136 C 
ATOM      5  C   UNL     1       1.702  -2.720  -3.572  0.00  0.00    +0.139 C 
ATOM      6  C   UNL     1       1.543  -2.417  -5.057  0.00  0.00    -0.034 C 
ATOM      7  C   UNL     1       2.520  -3.071  -5.679  0.00  0.00    -0.001 A 
ATOM      8  C   UNL     1       2.916  -3.119  -7.095  0.00  0.00    +0.010 A 
ATOM      9  C   UNL     1       3.977  -3.914  -7.393  0.00  0.00    +0.001 A 
ATOM     10  C   UNL     1       4.675  -4.657  -6.436  0.00  0.00    +0.002 A 
ATOM     11  C   UNL     1       4.382  -4.669  -5.111  0.00  0.00    +0.026 A 
ATOM     12  C   UNL     1       3.287  -3.868  -4.674  0.00  0.00    +0.043 A 
ATOM     13  N   UNL     1       2.804  -3.681  -3.469  0.00  0.00    -0.375 N 
ATOM     14  C   UNL     1       0.418  -1.580  -5.615  0.00  0.00    +0.052 C 
ATOM     15  C   UNL     1      -0.899  -2.166  -5.067  0.00  0.00    +0.115 C 
ATOM     16  N   UNL     1      -0.705  -2.483  -3.650  0.00  0.00    -0.269 N 
ATOM     17  C   UNL     1      -1.420  -2.058  -2.600  0.00  0.00    +0.313 C 
ATOM     18  O   UNL     1      -2.442  -1.408  -2.696  0.00  0.00    -0.252 OA
ATOM     19  C   UNL     1       0.231  -4.795  -3.553  0.00  0.00    +0.044 C 
ATOM     20  H   UNL     1       3.113  -4.102  -2.651  0.00  0.00    +0.160 HD
ENDROOT
BRANCH   1  21
ATOM     21  C   UNL     1      -1.416  -2.058  -0.121  0.00  0.00    +0.171 C 
BRANCH  21  22
ATOM     22  C   UNL     1      -2.819  -2.590   0.013  0.00  0.00    +0.234 C 
ATOM     23  O   UNL     1      -3.320  -3.216  -0.898  0.00  0.00    -0.274 OA
ATOM     24  N   UNL     1      -3.518  -2.371   1.144  0.00  0.00    -0.310 N 
ATOM     25  H   UNL     1      -3.118  -1.870   1.872  0.00  0.00    +0.149 HD
BRANCH  24  26
ATOM     26  C   UNL     1      -4.882  -2.888   1.274  0.00  0.00    +0.139 C 
BRANCH  26  27
ATOM     27  C   UNL     1      -5.437  -2.509   2.623  0.00  0.00    -0.027 A 
ATOM     28  C   UNL     1      -5.256  -3.350   3.705  0.00  0.00    +0.005 A 
ATOM     29  C   UNL     1      -5.764  -3.005   4.944  0.00  0.00    +0.004 A 
ATOM     30  C   UNL     1      -6.454  -1.819   5.103  0.00  0.00    +0.045 A 
ATOM     31  C   UNL     1      -6.636  -0.973   4.019  0.00  0.00    +0.120 A 
ATOM     32  C   UNL     1      -6.121  -1.319   2.778  0.00  0.00    +0.050 A 
BRANCH  31  33
ATOM     33  O   UNL     1      -7.314   0.194   4.173  0.00  0.00    -0.495 OA
ATOM     34  C   UNL     1      -7.812   0.488   5.480  0.00  0.00    +0.277 C 
ENDBRANCH  31  33
ENDBRANCH  26  27
ENDBRANCH  24  26
ENDBRANCH  21  22
BRANCH  21  35
ATOM     35  C   UNL     1      -1.433  -0.534   0.013  0.00  0.00    +0.035 C 
BRANCH  35  37
ATOM     36  C   UNL     1      -0.019   1.526   0.010  0.00  0.00    +0.007 C 
ATOM     37  C   UNL     1       0.002  -0.004   0.002  0.00  0.00    -0.015 C 
ATOM     38  C   UNL     1       0.742  -0.511   1.242  0.00  0.00    +0.007 C 
ENDBRANCH  35  37
ENDBRANCH  21  35
ENDBRANCH   1  21
TORSDOF 7
