REMARK  Name = ZINC03381535
REMARK  9 active torsions:
REMARK  status: ('A' for Active; 'I' for Inactive)
REMARK    1  A    between atoms: C_1  and  C_2
REMARK    2  A    between atoms: C_2  and  C_3
REMARK    3  A    between atoms: C_4  and  C_29
REMARK    4  A    between atoms: N_10  and  C_21
REMARK    5  A    between atoms: C_11  and  S_13
REMARK    6  A    between atoms: S_13  and  C_14
REMARK    7  A    between atoms: C_14  and  C_15
REMARK    8  A    between atoms: C_24  and  C_28
REMARK    9  A    between atoms: C_25  and  C_27
REMARK                            x       y       z     vdW  Elec       q    Type
REMARK                         _______ _______ _______ _____ _____    ______ ____
ROOT
ATOM      1  C   UNL     1      -0.200   1.128   1.958  0.00  0.00    -0.023 A 
ATOM      2  C   UNL     1       0.086   2.345   2.445  0.00  0.00    -0.007 A 
ATOM      3  S   UNL     1      -1.411   2.813   3.293  0.00  0.00    -0.073 S 
ATOM      4  C   UNL     1      -2.375   1.357   2.975  0.00  0.00    +0.117 A 
ATOM      5  C   UNL     1      -1.507   0.550   2.216  0.00  0.00    +0.076 A 
ATOM      6  C   UNL     1      -2.032  -0.717   1.809  0.00  0.00    +0.268 A 
ATOM      7  O   UNL     1      -1.352  -1.484   1.149  0.00  0.00    -0.267 OA
ATOM      8  N   UNL     1      -3.286  -1.052   2.165  0.00  0.00    -0.255 N 
ATOM      9  C   UNL     1      -4.062  -0.205   2.905  0.00  0.00    +0.178 A 
ATOM     10  N   UNL     1      -3.604   0.968   3.292  0.00  0.00    -0.215 NA
ATOM     11  C   UNL     1       1.365   3.129   2.308  0.00  0.00    +0.052 C 
ENDROOT
BRANCH   8  12
ATOM     12  C   UNL     1      -3.805  -2.292   1.770  0.00  0.00    +0.052 A 
ATOM     13  C   UNL     1      -3.641  -3.406   2.582  0.00  0.00    +0.026 A 
ATOM     14  C   UNL     1      -4.158  -4.626   2.192  0.00  0.00    +0.005 A 
ATOM     15  C   UNL     1      -4.830  -4.740   0.989  0.00  0.00    -0.047 A 
ATOM     16  C   UNL     1      -4.991  -3.634   0.175  0.00  0.00    -0.046 A 
ATOM     17  C   UNL     1      -4.480  -2.410   0.562  0.00  0.00    +0.030 A 
ATOM     18  C   UNL     1      -5.724  -3.764  -1.135  0.00  0.00    +0.044 C 
ATOM     19  C   UNL     1      -5.388  -6.074   0.564  0.00  0.00    +0.044 C 
ENDBRANCH   8  12
BRANCH   1  21
ATOM     20  C   UNL     1       0.669   0.709  -0.326  0.00  0.00    +0.009 C 
ATOM     21  C   UNL     1       0.826   0.368   1.157  0.00  0.00    +0.033 C 
ENDBRANCH   1  21
BRANCH   9  22
ATOM     22  S   UNL     1      -5.699  -0.688   3.347  0.00  0.00    -0.078 S 
BRANCH  22  23
ATOM     23  C   UNL     1      -6.215   0.773   4.282  0.00  0.00    +0.173 C 
BRANCH  23  24
ATOM     24  C   UNL     1      -7.627   0.582   4.774  0.00  0.00    +0.231 C 
ATOM     25  O   UNL     1      -8.224  -0.442   4.518  0.00  0.00    -0.274 OA
ATOM     26  N   UNL     1      -8.225   1.548   5.499  0.00  0.00    -0.240 N 
ATOM     27  C   UNL     1      -9.488   1.376   5.939  0.00  0.00    +0.303 C 
ATOM     28  O   UNL     1     -10.086   0.350   5.682  0.00  0.00    -0.253 OA
ATOM     29  N   UNL     1     -10.086   2.342   6.663  0.00  0.00    -0.313 N 
ATOM     30  H   UNL     1      -7.683   2.476   5.731  0.00  0.00    +0.159 HD
ATOM     31  H   UNL     1     -11.116   2.202   7.022  0.00  0.00    +0.146 HD
ATOM     32  H   UNL     1      -9.544   3.271   6.896  0.00  0.00    +0.146 HD
ENDBRANCH  23  24
ENDBRANCH  22  23
ENDBRANCH   9  22
TORSDOF 5
