REMARK  Name = ZINC09406769
REMARK  8 active torsions:
REMARK  status: ('A' for Active; 'I' for Inactive)
REMARK    1  A    between atoms: C_1  and  C_2
REMARK    2  A    between atoms: C_2  and  C_3
REMARK    3  A    between atoms: C_3  and  C_5
REMARK    4  A    between atoms: C_3  and  N_6
REMARK    5  A    between atoms: C_7  and  C_9
REMARK    6  A    between atoms: N_14  and  S_15
REMARK    7  A    between atoms: S_15  and  C_18
REMARK    8  A    between atoms: C_25  and  C_28
REMARK                            x       y       z     vdW  Elec       q    Type
REMARK                         _______ _______ _______ _____ _____    ______ ____
ROOT
ATOM      1  S   UNL     1       8.396   5.557  -0.048  0.00  0.00    +0.062 S 
ATOM      2  O   UNL     1       8.816   6.797   0.506  0.00  0.00    -0.153 OA
ATOM      3  O   UNL     1       8.800   4.306   0.492  0.00  0.00    -0.153 OA
ENDROOT
BRANCH   1   4
ATOM      4  C   UNL     1       6.634   5.568  -0.030  0.00  0.00    +0.108 A 
ATOM      5  C   UNL     1       5.955   6.778  -0.018  0.00  0.00    +0.030 A 
ATOM      6  C   UNL     1       4.577   6.806  -0.004  0.00  0.00    +0.030 A 
ATOM      7  C   UNL     1       3.864   5.615  -0.003  0.00  0.00    +0.067 A 
ATOM      8  C   UNL     1       4.552   4.389  -0.017  0.00  0.00    +0.091 A 
ATOM      9  C   UNL     1       5.951   4.386  -0.030  0.00  0.00    +0.058 A 
ATOM     10  N   UNL     1       3.619   3.406  -0.014  0.00  0.00    -0.228 NA
ATOM     11  C   UNL     1       2.421   3.937   0.001  0.00  0.00    +0.139 A 
ATOM     12  N   UNL     1       2.519   5.302   0.002  0.00  0.00    -0.338 N 
ATOM     13  H   UNL     1       1.759   5.952   0.005  0.00  0.00    +0.167 HD
BRANCH  11  14
ATOM     14  C   UNL     1       1.153   3.176   0.008  0.00  0.00    +0.017 A 
ATOM     15  C   UNL     1       1.174   1.780   0.000  0.00  0.00    +0.011 A 
ATOM     16  C   UNL     1      -0.013   1.076   0.008  0.00  0.00    +0.001 A 
ATOM     17  C   UNL     1      -1.221   1.750   0.017  0.00  0.00    +0.000 A 
ATOM     18  C   UNL     1      -1.248   3.133   0.031  0.00  0.00    +0.001 A 
ATOM     19  C   UNL     1      -0.069   3.849   0.023  0.00  0.00    +0.011 A 
ENDBRANCH  11  14
ENDBRANCH   1   4
BRANCH   1  24
ATOM     20  C   UNL     1       9.114   4.371  -2.460  0.00  0.00    +0.165 C 
ATOM     21  C   UNL     1       9.506   4.863  -3.869  0.00  0.00    +0.031 C 
ATOM     22  C   UNL     1       8.920   6.299  -3.914  0.00  0.00    +0.019 C 
ATOM     23  C   UNL     1       9.125   6.764  -2.451  0.00  0.00    +0.110 C 
ATOM     24  N   UNL     1       8.870   5.563  -1.634  0.00  0.00    -0.165 NA
BRANCH  20  26
ATOM     25  N   UNL     1      10.629   2.416  -2.466  0.00  0.00    -0.311 N 
ATOM     26  C   UNL     1      10.236   3.558  -1.868  0.00  0.00    +0.232 C 
ATOM     27  O   UNL     1      10.785   3.930  -0.853  0.00  0.00    -0.274 OA
ATOM     28  H   UNL     1      10.190   2.117  -3.278  0.00  0.00    +0.149 HD
BRANCH  25  29
ATOM     29  C   UNL     1      11.719   1.625  -1.890  0.00  0.00    +0.070 C 
ATOM     30  C   UNL     1      13.061   2.172  -2.382  0.00  0.00    +0.028 C 
BRANCH  29  32
ATOM     31  C   UNL     1      10.292  -0.419  -1.727  0.00  0.00    +0.005 C 
ATOM     32  C   UNL     1      11.574   0.165  -2.323  0.00  0.00    +0.018 C 
ENDBRANCH  29  32
ENDBRANCH  25  29
ENDBRANCH  20  26
ENDBRANCH   1  24
TORSDOF 6
