REMARK  Name = ZINC00429307
REMARK  7 active torsions:
REMARK  status: ('A' for Active; 'I' for Inactive)
REMARK    1  A    between atoms: C_1  and  C_2
REMARK    2  A    between atoms: C_5  and  N_9
REMARK    3  A    between atoms: C_7  and  C_8
REMARK    4  A    between atoms: C_13  and  O_24
REMARK    5  A    between atoms: C_14  and  O_22
REMARK    6  A    between atoms: O_22  and  C_23
REMARK    7  A    between atoms: O_24  and  C_25
REMARK                            x       y       z     vdW  Elec       q    Type
REMARK                         _______ _______ _______ _____ _____    ______ ____
ROOT
ATOM      1  N   UNL     1      -2.606   5.215   0.053  0.00  0.00    -0.299 N 
ATOM      2  C   UNL     1      -2.531   3.845   0.032  0.00  0.00    +0.135 A 
ATOM      3  C   UNL     1      -1.252   3.160   0.252  0.00  0.00    +0.042 A 
ATOM      4  C   UNL     1      -0.070   3.866   0.489  0.00  0.00    +0.062 A 
ATOM      5  C   UNL     1       1.106   3.174   0.690  0.00  0.00    +0.162 A 
ATOM      6  C   UNL     1       1.118   1.777   0.657  0.00  0.00    +0.163 A 
ATOM      7  C   UNL     1      -0.049   1.069   0.423  0.00  0.00    +0.075 A 
ATOM      8  C   UNL     1      -1.237   1.752   0.214  0.00  0.00    +0.055 A 
ATOM      9  N   UNL     1      -2.426   1.087  -0.029  0.00  0.00    -0.333 N 
ATOM     10  H   UNL     1      -2.442   0.117  -0.056  0.00  0.00    +0.168 HD
ATOM     11  C   UNL     1      -3.561   1.781  -0.227  0.00  0.00    +0.179 A 
ATOM     12  S   UNL     1      -5.008   0.915  -0.524  0.00  0.00    -0.011 S 
ATOM     13  N   UNL     1      -3.609   3.111  -0.202  0.00  0.00    -0.207 NA
ATOM     14  H   UNL     1      -1.796   5.744   0.131  0.00  0.00    +0.154 HD
ENDROOT
BRANCH   1  19
ATOM     15  C   UNL     1      -7.648   7.787  -0.317  0.00  0.00    +0.044 C 
ATOM     16  C   UNL     1      -6.308   7.103  -0.219  0.00  0.00    -0.047 A 
ATOM     17  C   UNL     1      -5.198   7.673  -0.816  0.00  0.00    +0.005 A 
ATOM     18  C   UNL     1      -3.968   7.052  -0.723  0.00  0.00    +0.023 A 
ATOM     19  C   UNL     1      -3.849   5.849  -0.038  0.00  0.00    +0.033 A 
ATOM     20  C   UNL     1      -4.965   5.280   0.560  0.00  0.00    +0.027 A 
ATOM     21  C   UNL     1      -6.192   5.909   0.468  0.00  0.00    -0.046 A 
ATOM     22  C   UNL     1      -7.404   5.292   1.116  0.00  0.00    +0.044 C 
ENDBRANCH   1  19
BRANCH   6  23
ATOM     23  O   UNL     1       2.283   1.108   0.856  0.00  0.00    -0.491 OA
ATOM     24  C   UNL     1       2.227  -0.320   0.809  0.00  0.00    +0.277 C 
ENDBRANCH   6  23
BRANCH   5  25
ATOM     25  O   UNL     1       2.261   3.855   0.922  0.00  0.00    -0.491 OA
ATOM     26  C   UNL     1       2.180   5.282   0.943  0.00  0.00    +0.277 C 
ENDBRANCH   5  25
TORSDOF 3
