REMARK  Name = ZINC35664126
REMARK  14 active torsions:
REMARK  status: ('A' for Active; 'I' for Inactive)
REMARK    1  A    between atoms: C_1  and  C_2
REMARK    2  A    between atoms: C_2  and  O_3
REMARK    3  A    between atoms: O_3  and  C_4
REMARK    4  A    between atoms: C_4  and  C_6
REMARK    5  A    between atoms: C_7  and  C_25
REMARK    6  A    between atoms: N_8  and  C_24
REMARK    7  A    between atoms: C_12  and  C_14
REMARK    8  A    between atoms: C_18  and  O_22
REMARK    9  A    between atoms: C_19  and  O_20
REMARK   10  A    between atoms: O_20  and  C_21
REMARK   11  A    between atoms: O_22  and  C_23
REMARK   12  A    between atoms: C_25  and  N_26
REMARK   13  A    between atoms: C_30  and  C_33
REMARK   14  A    between atoms: C_34  and  C_36
REMARK                            x       y       z     vdW  Elec       q    Type
REMARK                         _______ _______ _______ _____ _____    ______ ____
ROOT
ATOM      1  C   UNL     1      -2.900  -2.200  -0.026  0.00  0.00    +0.080 C 
ATOM      2  C   UNL     1      -3.094  -3.536  -0.070  0.00  0.00    +0.041 C 
ATOM      3  N   UNL     1      -4.351  -4.064  -0.146  0.00  0.00    -0.260 N 
ATOM      4  C   UNL     1      -5.466  -3.324  -0.181  0.00  0.00    +0.307 C 
ATOM      5  O   UNL     1      -6.542  -3.885  -0.249  0.00  0.00    -0.252 OA
ATOM      6  N   UNL     1      -5.435  -1.977  -0.144  0.00  0.00    -0.288 N 
ATOM      7  C   UNL     1      -4.125  -1.309  -0.056  0.00  0.00    +0.147 C 
ATOM      8  C   UNL     1      -4.487  -5.522  -0.191  0.00  0.00    +0.139 C 
ATOM      9  H   UNL     1      -6.255  -1.460  -0.171  0.00  0.00    +0.151 HD
ENDROOT
BRANCH   7  10
ATOM     10  C   UNL     1      -3.999  -0.386  -1.241  0.00  0.00    +0.023 A 
ATOM     11  C   UNL     1      -3.151  -0.712  -2.284  0.00  0.00    +0.009 A 
ATOM     12  C   UNL     1      -3.033   0.132  -3.372  0.00  0.00    +0.004 A 
ATOM     13  C   UNL     1      -3.763   1.306  -3.423  0.00  0.00    +0.049 A 
ATOM     14  C   UNL     1      -4.614   1.638  -2.382  0.00  0.00    +0.162 A 
ATOM     15  C   UNL     1      -4.738   0.785  -1.289  0.00  0.00    +0.167 A 
BRANCH  15  16
ATOM     16  O   UNL     1      -5.577   1.104  -0.267  0.00  0.00    -0.491 OA
ATOM     17  C   UNL     1      -5.063   1.968   0.748  0.00  0.00    +0.277 C 
ENDBRANCH  15  16
BRANCH  14  18
ATOM     18  O   UNL     1      -5.332   2.792  -2.430  0.00  0.00    -0.491 OA
ATOM     19  C   UNL     1      -5.160   3.615  -3.586  0.00  0.00    +0.277 C 
ENDBRANCH  14  18
ENDBRANCH   7  10
BRANCH   1  20
ATOM     20  C   UNL     1      -1.599  -1.652   0.053  0.00  0.00    +0.339 C 
ATOM     21  O   UNL     1      -1.201  -1.178   1.101  0.00  0.00    -0.245 OA
BRANCH  20  22
ATOM     22  O   UNL     1      -0.799  -1.654  -1.034  0.00  0.00    -0.462 OA
BRANCH  22  24
ATOM     23  C   UNL     1       1.251  -1.147  -2.209  0.00  0.00    +0.048 C 
ATOM     24  C   UNL     1       0.540  -1.187  -0.855  0.00  0.00    +0.229 C 
ENDBRANCH  22  24
ENDBRANCH  20  22
ENDBRANCH   1  20
BRANCH   2  25
ATOM     25  C   UNL     1      -1.903  -4.459  -0.037  0.00  0.00    +0.136 C 
BRANCH  25  26
ATOM     26  N   UNL     1      -1.940  -5.262   1.192  0.00  0.00    -0.294 NA
ATOM     27  C   UNL     1      -1.768  -4.414   2.380  0.00  0.00    +0.104 C 
ATOM     28  C   UNL     1      -1.992  -5.256   3.641  0.00  0.00    +0.123 C 
ATOM     29  N   UNL     1      -1.109  -6.431   3.582  0.00  0.00    -0.296 N 
ATOM     30  C   UNL     1      -1.126  -7.253   2.362  0.00  0.00    +0.087 C 
ATOM     31  C   UNL     1      -0.935  -6.333   1.152  0.00  0.00    +0.107 C 
ATOM     32  C   UNL     1       0.009  -8.277   2.418  0.00  0.00    +0.029 C 
ATOM     33  C   UNL     1      -0.307  -6.746   4.618  0.00  0.00    +0.219 C 
ATOM     34  O   UNL     1       0.481  -7.662   4.518  0.00  0.00    -0.275 OA
BRANCH  33  35
ATOM     35  C   UNL     1      -0.388  -5.959   5.900  0.00  0.00    +0.075 C 
ATOM     36  C   UNL     1       0.805  -5.072   6.262  0.00  0.00    +0.013 C 
ATOM     37  C   UNL     1       0.549  -6.365   7.039  0.00  0.00    +0.013 C 
ENDBRANCH  33  35
ENDBRANCH  25  26
ENDBRANCH   2  25
TORSDOF 9
