REMARK  Name = ZINC12884487
REMARK  7 active torsions:
REMARK  status: ('A' for Active; 'I' for Inactive)
REMARK    1  A    between atoms: C_1  and  C_2
REMARK    2  A    between atoms: C_2  and  C_4
REMARK    3  A    between atoms: C_2  and  O_19
REMARK    4  A    between atoms: N_6  and  C_7
REMARK    5  A    between atoms: C_7  and  C_8
REMARK    6  A    between atoms: C_8  and  C_9
REMARK    7  A    between atoms: O_19  and  C_20
REMARK                            x       y       z     vdW  Elec       q    Type
REMARK                         _______ _______ _______ _____ _____    ______ ____
ROOT
ATOM      1  C   UNL     1       3.543  -2.668  -1.321  0.00  0.00    +0.062 C 
ATOM      2  C   UNL     1       3.512  -2.051   0.079  0.00  0.00    +0.255 C 
ENDROOT
BRANCH   2   3
ATOM      3  C   UNL     1       4.691  -2.549   0.874  0.00  0.00    +0.254 C 
ATOM      4  O   UNL     1       5.506  -1.762   1.307  0.00  0.00    -0.272 OA
ATOM      5  N   UNL     1       4.841  -3.869   1.103  0.00  0.00    -0.312 N 
ATOM      6  H   UNL     1       4.189  -4.498   0.756  0.00  0.00    +0.149 HD
BRANCH   5   7
ATOM      7  C   UNL     1       5.987  -4.353   1.875  0.00  0.00    +0.109 C 
BRANCH   7   8
ATOM      8  C   UNL     1       5.919  -5.878   1.988  0.00  0.00    +0.056 C 
BRANCH   8   9
ATOM      9  C   UNL     1       7.099  -6.376   2.782  0.00  0.00    -0.021 A 
ATOM     10  C   UNL     1       8.262  -6.826   2.287  0.00  0.00    +0.087 A 
ATOM     11  N   UNL     1       9.095  -7.190   3.310  0.00  0.00    -0.360 N 
ATOM     12  H   UNL     1       9.992  -7.543   3.200  0.00  0.00    +0.165 HD
ATOM     13  C   UNL     1       8.469  -6.985   4.519  0.00  0.00    +0.047 A 
ATOM     14  C   UNL     1       7.191  -6.466   4.242  0.00  0.00    +0.003 A 
ATOM     15  C   UNL     1       6.322  -6.159   5.290  0.00  0.00    +0.010 A 
ATOM     16  C   UNL     1       6.717  -6.363   6.582  0.00  0.00    +0.001 A 
ATOM     17  C   UNL     1       7.977  -6.875   6.860  0.00  0.00    +0.002 A 
ATOM     18  C   UNL     1       8.851  -7.186   5.841  0.00  0.00    +0.026 A 
ENDBRANCH   8   9
ENDBRANCH   7   8
ENDBRANCH   5   7
ENDBRANCH   2   3
BRANCH   2  19
ATOM     19  O   UNL     1       3.575  -0.627  -0.026  0.00  0.00    -0.480 OA
BRANCH  19  20
ATOM     20  C   UNL     1       2.405   0.028  -0.232  0.00  0.00    +0.125 A 
ATOM     21  C   UNL     1       2.384   1.422  -0.232  0.00  0.00    +0.046 A 
ATOM     22  C   UNL     1       1.215   2.096  -0.439  0.00  0.00    +0.015 A 
ATOM     23  C   UNL     1       0.030   1.382  -0.653  0.00  0.00    +0.021 A 
ATOM     24  C   UNL     1       0.045  -0.023  -0.652  0.00  0.00    +0.143 A 
ATOM     25  C   UNL     1       1.241  -0.693  -0.441  0.00  0.00    +0.092 A 
ATOM     26  O   UNL     1      -1.103  -0.703  -0.856  0.00  0.00    -0.422 OA
ATOM     27  C   UNL     1      -2.263  -0.065  -1.066  0.00  0.00    +0.341 A 
ATOM     28  O   UNL     1      -3.273  -0.721  -1.243  0.00  0.00    -0.245 OA
ATOM     29  C   UNL     1      -2.351   1.349  -1.088  0.00  0.00    +0.041 A 
ATOM     30  C   UNL     1      -1.237   2.086  -0.887  0.00  0.00    -0.027 A 
ATOM     31  C   UNL     1      -1.236   3.590  -0.878  0.00  0.00    +0.036 C 
ATOM     32  C   UNL     1      -2.495   4.133  -1.552  0.00  0.00    +0.005 C 
ATOM     33  C   UNL     1      -3.711   3.434  -0.934  0.00  0.00    +0.005 C 
ATOM     34  C   UNL     1      -3.698   1.969  -1.352  0.00  0.00    +0.042 C 
ENDBRANCH  19  20
ENDBRANCH   2  19
TORSDOF 6
