REMARK  Name = ZINC11790310
REMARK  9 active torsions:
REMARK  status: ('A' for Active; 'I' for Inactive)
REMARK    1  A    between atoms: C_4  and  C_7
REMARK    2  A    between atoms: C_7  and  C_8
REMARK    3  A    between atoms: C_8  and  C_9
REMARK    4  A    between atoms: C_9  and  C_10
REMARK    5  A    between atoms: N_12  and  C_13
REMARK    6  A    between atoms: C_17  and  N_19
REMARK    7  A    between atoms: C_22  and  N_65
REMARK    8  A    between atoms: C_25  and  N_65
REMARK    9  A    between atoms: C_32  and  O_34
REMARK                            x       y       z     vdW  Elec       q    Type
REMARK                         _______ _______ _______ _____ _____    ______ ____
ROOT
ATOM      1  C   UNL     1       0.267   1.257   4.756  0.00  0.00    +0.035 A 
ATOM      2  C   UNL     1       1.471   0.573   4.645  0.00  0.00    +0.023 A 
ATOM      3  C   UNL     1       1.955   0.220   3.400  0.00  0.00    +0.004 A 
ATOM      4  C   UNL     1       1.243   0.546   2.261  0.00  0.00    +0.023 A 
ATOM      5  C   UNL     1       0.037   1.229   2.366  0.00  0.00    +0.031 A 
ATOM      6  C   UNL     1      -0.448   1.589   3.615  0.00  0.00    +0.046 A 
ENDROOT
BRANCH   5   7
ATOM      7  N   UNL     1      -0.682   1.558   1.215  0.00  0.00    -0.330 N 
ATOM      8  C   UNL     1       0.013   1.090   0.009  0.00  0.00    +0.103 C 
ATOM      9  C   UNL     1      -0.726   1.592  -1.234  0.00  0.00    +0.003 C 
ATOM     10  C   UNL     1      -2.164   1.067  -1.214  0.00  0.00    -0.068 C 
ATOM     11  C   UNL     1      -2.850   1.528   0.075  0.00  0.00    +0.003 C 
ATOM     12  C   UNL     1      -2.050   1.028   1.280  0.00  0.00    +0.103 C 
BRANCH  10  13
ATOM     13  N   UNL     1      -2.893   1.603  -2.379  0.00  0.00    +0.386 N 
ATOM     14  H   UNL     1      -2.250   1.675  -3.177  0.00  0.00    -0.085 HD
ATOM     15  H   UNL     1      -3.260   2.534  -2.151  0.00  0.00    -0.085 HD
BRANCH  13  16
ATOM     16  C   UNL     1      -4.013   0.712  -2.737  0.00  0.00    -0.020 C 
ATOM     17  C   UNL     1      -3.460  -0.470  -3.564  0.00  0.00    +0.153 C 
ATOM     18  S   UNL     1      -4.825  -0.728  -4.780  0.00  0.00    -0.030 S 
ATOM     19  O   UNL     1      -5.851  -1.506  -4.179  0.00  0.00    -0.174 OA
ATOM     20  O   UNL     1      -4.274  -1.128  -6.028  0.00  0.00    -0.174 OA
ATOM     21  C   UNL     1      -5.377   1.030  -4.892  0.00  0.00    +0.195 C 
ATOM     22  C   UNL     1      -5.065   1.535  -3.465  0.00  0.00    +0.123 C 
BRANCH  22  23
ATOM     23  O   UNL     1      -6.271   1.514  -2.700  0.00  0.00    -0.392 OA
ATOM     24  H   UNL     1      -6.996   2.017  -3.095  0.00  0.00    +0.210 HD
ENDBRANCH  22  23
ENDBRANCH  13  16
ENDBRANCH  10  13
ENDBRANCH   5   7
BRANCH   1  27
ATOM     25  C   UNL     1      -0.021   0.801   7.074  0.00  0.00    +0.217 C 
ATOM     26  O   UNL     1       0.653  -0.200   6.949  0.00  0.00    -0.275 OA
ATOM     27  N   UNL     1      -0.221   1.615   6.018  0.00  0.00    -0.285 N 
ATOM     28  H   UNL     1      -0.703   2.448   6.133  0.00  0.00    +0.155 HD
BRANCH  25  29
ATOM     29  C   UNL     1      -0.635   1.134   8.409  0.00  0.00    +0.096 C 
BRANCH  29  30
ATOM     30  C   UNL     1      -0.256   0.057   9.427  0.00  0.00    +0.014 C 
BRANCH  30  31
ATOM     31  C   UNL     1      -0.880   0.395  10.783  0.00  0.00    +0.035 C 
BRANCH  31  35
ATOM     32  C   UNL     1       0.177  -2.612  13.627  0.00  0.00    +0.000 A 
ATOM     33  C   UNL     1       0.985  -1.503  13.461  0.00  0.00    +0.000 A 
ATOM     34  C   UNL     1       0.643  -0.530  12.541  0.00  0.00    +0.003 A 
ATOM     35  C   UNL     1      -0.507  -0.666  11.786  0.00  0.00    -0.047 A 
ATOM     36  C   UNL     1      -1.318  -1.773  11.955  0.00  0.00    +0.003 A 
ATOM     37  C   UNL     1      -0.973  -2.748  12.872  0.00  0.00    +0.000 A 
ENDBRANCH  31  35
ENDBRANCH  30  31
ENDBRANCH  29  30
ENDBRANCH  25  29
ENDBRANCH   1  27
TORSDOF 9
