REMARK  Name = ZINC03374693
REMARK  15 active torsions:
REMARK  status: ('A' for Active; 'I' for Inactive)
REMARK    1  A    between atoms: C_1  and  N_2
REMARK    2  A    between atoms: N_9  and  C_37
REMARK    3  A    between atoms: C_11  and  C_12
REMARK    4  A    between atoms: C_11  and  C_14
REMARK    5  A    between atoms: C_14  and  C_16
REMARK    6  A    between atoms: C_16  and  O_17
REMARK    7  A    between atoms: O_17  and  C_18
REMARK    8  A    between atoms: C_18  and  C_20
REMARK    9  A    between atoms: C_20  and  C_22
REMARK   10  A    between atoms: C_20  and  N_26
REMARK   11  A    between atoms: C_22  and  C_23
REMARK   12  A    between atoms: C_23  and  S_24
REMARK   13  A    between atoms: S_24  and  C_25
REMARK   14  A    between atoms: N_26  and  S_27
REMARK   15  A    between atoms: S_27  and  C_30
REMARK                            x       y       z     vdW  Elec       q    Type
REMARK                         _______ _______ _______ _____ _____    ______ ____
ROOT
ATOM      1  C   UNL     1       3.392  -2.390  -3.693  0.00  0.00    +0.326 C 
ATOM      2  O   UNL     1       2.211  -2.548  -3.892  0.00  0.00    -0.249 OA
ENDROOT
BRANCH   1   3
ATOM      3  O   UNL     1       4.127  -1.665  -4.551  0.00  0.00    -0.455 OA
BRANCH   3   4
ATOM      4  C   UNL     1       3.436  -1.100  -5.696  0.00  0.00    +0.312 C 
BRANCH   4   5
ATOM      5  C   UNL     1       4.413  -0.325  -6.541  0.00  0.00    +0.214 C 
ATOM      6  O   UNL     1       5.581  -0.255  -6.209  0.00  0.00    -0.288 OA
BRANCH   5  17
ATOM      7  C   UNL     1       4.579   2.166  -5.386  0.00  0.00    +0.137 C 
ATOM      8  N   UNL     1       4.253   2.564  -6.757  0.00  0.00    -0.289 N 
ATOM      9  C   UNL     1       4.169   3.870  -7.228  0.00  0.00    +0.056 A 
ATOM     10  C   UNL     1       4.344   5.108  -6.625  0.00  0.00    +0.025 A 
ATOM     11  C   UNL     1       4.184   6.262  -7.365  0.00  0.00    +0.002 A 
ATOM     12  C   UNL     1       3.848   6.190  -8.707  0.00  0.00    +0.002 A 
ATOM     13  C   UNL     1       3.671   4.965  -9.316  0.00  0.00    +0.025 A 
ATOM     14  C   UNL     1       3.830   3.798  -8.581  0.00  0.00    +0.056 A 
ATOM     15  N   UNL     1       3.722   2.450  -8.904  0.00  0.00    -0.289 N 
ATOM     16  C   UNL     1       3.985   1.722  -7.788  0.00  0.00    +0.118 C 
ATOM     17  C   UNL     1       3.976   0.318  -7.711  0.00  0.00    +0.134 C 
ATOM     18  C   UNL     1       3.383   1.908 -10.222  0.00  0.00    +0.137 C 
BRANCH  17  19
ATOM     19  C   UNL     1       3.520  -0.458  -8.826  0.00  0.00    +0.106 C 
ATOM     20  N   UNL     1       3.159  -1.073  -9.710  0.00  0.00    -0.191 NA
ENDBRANCH  17  19
ENDBRANCH   5  17
ENDBRANCH   4   5
ENDBRANCH   3   4
ENDBRANCH   1   3
BRANCH   1  21
ATOM     21  C   UNL     1       4.041  -3.008  -2.481  0.00  0.00    +0.186 C 
BRANCH  21  22
ATOM     22  N   UNL     1       3.035  -3.743  -1.710  0.00  0.00    -0.176 NA
ATOM     23  H   UNL     1       2.329  -4.224  -2.168  0.00  0.00    +0.149 HD
BRANCH  22  24
ATOM     24  S   UNL     1       3.105  -3.753  -0.055  0.00  0.00    +0.059 S 
ATOM     25  O   UNL     1       4.437  -4.106   0.293  0.00  0.00    -0.153 OA
ATOM     26  O   UNL     1       1.979  -4.494   0.394  0.00  0.00    -0.153 OA
BRANCH  24  27
ATOM     27  C   UNL     1       2.866  -2.094   0.486  0.00  0.00    +0.105 A 
ATOM     28  C   UNL     1       1.590  -1.629   0.748  0.00  0.00    +0.030 A 
ATOM     29  C   UNL     1       1.402  -0.328   1.173  0.00  0.00    +0.022 A 
ATOM     30  C   UNL     1       2.490   0.511   1.337  0.00  0.00    +0.041 A 
ATOM     31  C   UNL     1       3.766   0.046   1.075  0.00  0.00    +0.022 A 
ATOM     32  C   UNL     1       3.954  -1.256   0.650  0.00  0.00    +0.030 A 
ATOM     33 CL   UNL     1       2.254   2.146   1.871  0.00  0.00    -0.084 Cl
ENDBRANCH  24  27
ENDBRANCH  22  24
ENDBRANCH  21  22
BRANCH  21  34
ATOM     34  C   UNL     1       5.144  -3.969  -2.927  0.00  0.00    +0.042 C 
BRANCH  34  35
ATOM     35  C   UNL     1       4.525  -5.126  -3.715  0.00  0.00    +0.071 C 
BRANCH  35  36
ATOM     36  S   UNL     1       5.811  -6.340  -4.118  0.00  0.00    -0.164 S 
ATOM     37  C   UNL     1       4.926  -7.628  -5.038  0.00  0.00    +0.084 C 
ENDBRANCH  35  36
ENDBRANCH  34  35
ENDBRANCH  21  34
ENDBRANCH   1  21
TORSDOF 12
