REMARK  Name = ZINC16208844
REMARK  9 active torsions:
REMARK  status: ('A' for Active; 'I' for Inactive)
REMARK    1  A    between atoms: C_1  and  C_2
REMARK    2  A    between atoms: C_2  and  C_3
REMARK    3  A    between atoms: C_3  and  N_4
REMARK    4  A    between atoms: C_5  and  N_30
REMARK    5  A    between atoms: C_6  and  C_13
REMARK    6  A    between atoms: C_13  and  C_15
REMARK    7  A    between atoms: C_15  and  O_16
REMARK    8  A    between atoms: O_16  and  C_17
REMARK    9  A    between atoms: C_24  and  C_27
REMARK                            x       y       z     vdW  Elec       q    Type
REMARK                         _______ _______ _______ _____ _____    ______ ____
ROOT
ATOM      1  C   UNL     1      -0.426  -2.820  -2.344  0.00  0.00    +0.209 C 
ATOM      2  O   UNL     1      -0.544  -2.245  -3.408  0.00  0.00    -0.288 OA
ENDROOT
BRANCH   1   5
ATOM      3  N   UNL     1      -0.002  -0.004  -0.003  0.00  0.00    -0.281 N 
ATOM      4  C   UNL     1      -0.231  -0.675  -1.171  0.00  0.00    +0.116 A 
ATOM      5  C   UNL     1      -0.200  -2.081  -1.164  0.00  0.00    +0.123 A 
ATOM      6  C   UNL     1       0.070  -2.755   0.113  0.00  0.00    +0.266 A 
ATOM      7  O   UNL     1       0.105  -3.970   0.178  0.00  0.00    -0.267 OA
ATOM      8  N   UNL     1       0.279  -2.000   1.211  0.00  0.00    -0.274 N 
ATOM      9  H   UNL     1       0.464  -2.444   2.087  0.00  0.00    +0.173 HD
ATOM     10  C   UNL     1       0.240  -0.659   1.142  0.00  0.00    +0.331 A 
ATOM     11  O   UNL     1       0.433  -0.016   2.155  0.00  0.00    -0.246 OA
BRANCH   4  12
ATOM     12  N   UNL     1      -0.481   0.005  -2.322  0.00  0.00    -0.344 N 
ATOM     13  H   UNL     1      -0.162   0.915  -2.427  0.00  0.00    +0.144 HD
ATOM     14  H   UNL     1      -0.979  -0.420  -3.038  0.00  0.00    +0.144 HD
ENDBRANCH   4  12
BRANCH   3  15
ATOM     15  C   UNL     1      -0.028   1.461  -0.001  0.00  0.00    +0.128 C 
BRANCH  15  17
ATOM     16  C   UNL     1       1.350   3.526  -0.283  0.00  0.00    +0.005 C 
ATOM     17  C   UNL     1       1.377   1.996  -0.285  0.00  0.00    +0.018 C 
ENDBRANCH  15  17
ENDBRANCH   3  15
ENDBRANCH   1   5
BRANCH   1  18
ATOM     18  C   UNL     1      -0.519  -4.323  -2.286  0.00  0.00    +0.308 C 
BRANCH  18  19
ATOM     19  O   UNL     1      -0.749  -4.837  -3.599  0.00  0.00    -0.481 OA
BRANCH  19  20
ATOM     20  C   UNL     1      -0.860  -6.186  -3.723  0.00  0.00    +0.165 A 
ATOM     21  C   UNL     1      -2.090  -6.794  -3.612  0.00  0.00    +0.086 A 
ATOM     22  C   UNL     1      -2.218  -8.175  -3.738  0.00  0.00    +0.044 A 
ATOM     23  C   UNL     1      -1.130  -8.961  -3.973  0.00  0.00    +0.052 A 
ATOM     24  C   UNL     1       0.142  -8.376  -4.093  0.00  0.00    +0.022 A 
ATOM     25  C   UNL     1       0.284  -6.972  -3.972  0.00  0.00    +0.116 A 
ATOM     26  N   UNL     1       1.493  -6.413  -4.080  0.00  0.00    -0.248 NA
ATOM     27  C   UNL     1       2.561  -7.139  -4.306  0.00  0.00    +0.039 A 
ATOM     28  C   UNL     1       2.491  -8.524  -4.440  0.00  0.00    +0.024 A 
ATOM     29  C   UNL     1       1.287  -9.159  -4.336  0.00  0.00    +0.013 A 
ATOM     30  C   UNL     1       3.900  -6.457  -4.425  0.00  0.00    +0.065 C 
ATOM     31 CL   UNL     1      -1.315 -10.680  -4.126  0.00  0.00    -0.083 Cl
ATOM     32 CL   UNL     1      -3.500  -5.826  -3.313  0.00  0.00    -0.080 Cl
ENDBRANCH  19  20
ENDBRANCH  18  19
ENDBRANCH   1  18
TORSDOF 7
