REMARK  Name = ZINC34747543
REMARK  8 active torsions:
REMARK  status: ('A' for Active; 'I' for Inactive)
REMARK    1  A    between atoms: C_1  and  C_2
REMARK    2  A    between atoms: C_2  and  N_3
REMARK    3  A    between atoms: N_3  and  C_4
REMARK    4  A    between atoms: C_4  and  C_5
REMARK    5  A    between atoms: C_6  and  C_8
REMARK    6  A    between atoms: C_8  and  N_9
REMARK    7  A    between atoms: N_22  and  C_25
REMARK    8  A    between atoms: C_25  and  C_26
REMARK                            x       y       z     vdW  Elec       q    Type
REMARK                         _______ _______ _______ _____ _____    ______ ____
ROOT
ATOM      1  N   UNL     1      -3.949  -1.472   2.550  0.00  0.00    -0.271 N 
ATOM      2  C   UNL     1      -3.834  -2.680   3.131  0.00  0.00    +0.264 A 
ATOM      3  O   UNL     1      -3.448  -3.641   2.487  0.00  0.00    -0.267 OA
ATOM      4  C   UNL     1      -4.170  -2.822   4.514  0.00  0.00    +0.076 A 
ATOM      5  C   UNL     1      -4.122  -4.029   5.341  0.00  0.00    -0.023 A 
ATOM      6  C   UNL     1      -4.493  -3.902   6.631  0.00  0.00    -0.004 A 
ATOM      7  S   UNL     1      -4.922  -2.193   6.821  0.00  0.00    -0.073 S 
ATOM      8  C   UNL     1      -4.603  -1.652   5.161  0.00  0.00    +0.117 A 
ATOM      9  N   UNL     1      -4.694  -0.488   4.528  0.00  0.00    -0.208 NA
ATOM     10  C   UNL     1      -4.373  -0.385   3.255  0.00  0.00    +0.202 A 
ATOM     11  N   UNL     1      -4.472   0.832   2.628  0.00  0.00    -0.304 N 
ATOM     12  C   UNL     1      -5.719   1.243   1.966  0.00  0.00    +0.089 C 
ATOM     13  C   UNL     1      -6.093   2.644   2.461  0.00  0.00    -0.059 C 
ATOM     14  N   UNL     1      -4.963   3.557   2.244  0.00  0.00    +0.387 N 
ATOM     15  C   UNL     1      -3.820   3.140   3.065  0.00  0.00    -0.059 C 
ATOM     16  C   UNL     1      -3.335   1.766   2.605  0.00  0.00    +0.089 C 
ATOM     17  C   UNL     1      -4.533  -4.977   7.675  0.00  0.00    +0.043 C 
ATOM     18  C   UNL     1      -4.443  -6.338   6.971  0.00  0.00    +0.005 C 
ATOM     19  C   UNL     1      -3.297  -6.291   5.955  0.00  0.00    +0.005 C 
ATOM     20  C   UNL     1      -3.676  -5.380   4.787  0.00  0.00    +0.037 C 
ATOM     21  H   UNL     1      -4.701   3.539   1.270  0.00  0.00    -0.081 HD
ENDROOT
BRANCH   1  22
ATOM     22  C   UNL     1      -3.606  -1.320   1.133  0.00  0.00    +0.224 C 
BRANCH  22  24
ATOM     23  N   UNL     1      -1.577  -0.921  -0.223  0.00  0.00    -0.301 N 
ATOM     24  C   UNL     1      -2.123  -1.089   0.997  0.00  0.00    +0.236 C 
ATOM     25  O   UNL     1      -1.422  -1.055   1.986  0.00  0.00    -0.274 OA
BRANCH  23  27
ATOM     26  C   UNL     1       0.155   0.804  -0.300  0.00  0.00    +0.024 C 
ATOM     27  C   UNL     1      -0.135  -0.697  -0.356  0.00  0.00    +0.104 C 
ENDBRANCH  23  27
BRANCH  23  28
ATOM     28  C   UNL     1      -2.424  -0.963  -1.417  0.00  0.00    +0.104 C 
ATOM     29  C   UNL     1      -2.507  -2.400  -1.934  0.00  0.00    +0.024 C 
ENDBRANCH  23  28
ENDBRANCH  22  24
ENDBRANCH   1  22
BRANCH  14  30
ATOM     30  C   UNL     1      -5.360   4.921   2.616  0.00  0.00    +0.019 C 
BRANCH  30  31
ATOM     31  C   UNL     1      -4.245   5.878   2.280  0.00  0.00    +0.199 C 
ATOM     32  O   UNL     1      -3.221   5.463   1.779  0.00  0.00    -0.278 OA
ATOM     33  N   UNL     1      -4.386   7.194   2.535  0.00  0.00    -0.303 N 
ATOM     34  C   UNL     1      -5.565   7.827   3.142  0.00  0.00    +0.108 C 
ATOM     35  C   UNL     1      -5.285   9.343   3.214  0.00  0.00    +0.020 C 
ATOM     36  C   UNL     1      -4.196   9.547   2.128  0.00  0.00    +0.020 C 
ATOM     37  C   UNL     1      -3.380   8.235   2.258  0.00  0.00    +0.108 C 
ENDBRANCH  30  31
ENDBRANCH  14  30
TORSDOF 6
