REMARK  Name = ZINC63187734
REMARK  6 active torsions:
REMARK  status: ('A' for Active; 'I' for Inactive)
REMARK    1  A    between atoms: C_7  and  C_10
REMARK    2  A    between atoms: C_10  and  C_11
REMARK    3  A    between atoms: N_15  and  C_19
REMARK    4  A    between atoms: C_19  and  C_20
REMARK    5  A    between atoms: C_20  and  C_22
REMARK    6  A    between atoms: C_25  and  C_28
REMARK                            x       y       z     vdW  Elec       q    Type
REMARK                         _______ _______ _______ _____ _____    ______ ____
ROOT
ATOM      1  C   UNL     1       0.457  -3.653  -1.462  0.00  0.00    +0.165 C 
ATOM      2  C   UNL     1      -0.432  -4.881  -1.485  0.00  0.00    +0.244 C 
ATOM      3  O   UNL     1      -0.201  -5.962  -0.985  0.00  0.00    -0.273 OA
ATOM      4  N   UNL     1      -1.531  -4.523  -2.176  0.00  0.00    -0.217 N 
ATOM      5  C   UNL     1      -1.462  -3.252  -2.589  0.00  0.00    +0.310 C 
ATOM      6  O   UNL     1      -2.335  -2.702  -3.231  0.00  0.00    -0.252 OA
ATOM      7  N   UNL     1      -0.315  -2.649  -2.214  0.00  0.00    -0.287 N 
ATOM      8  H   UNL     1      -0.050  -1.735  -2.401  0.00  0.00    +0.151 HD
ENDROOT
BRANCH   1   9
ATOM      9  C   UNL     1       0.691  -3.186  -0.024  0.00  0.00    +0.065 C 
BRANCH   9  16
ATOM     10  C   UNL     1      -0.016   1.348   0.009  0.00  0.00    +0.001 A 
ATOM     11  C   UNL     1       1.166   2.101   0.002  0.00  0.00    +0.002 A 
ATOM     12  C   UNL     1       2.391   1.535  -0.013  0.00  0.00    +0.026 A 
ATOM     13  C   UNL     1       2.529   0.120  -0.022  0.00  0.00    +0.043 A 
ATOM     14  N   UNL     1       3.587  -0.654  -0.037  0.00  0.00    -0.380 N 
ATOM     15  C   UNL     1       3.143  -2.053  -0.041  0.00  0.00    +0.144 C 
ATOM     16  C   UNL     1       1.631  -2.008  -0.025  0.00  0.00    -0.039 C 
ATOM     17  C   UNL     1       1.295  -0.698  -0.014  0.00  0.00    -0.001 A 
ATOM     18  C   UNL     1       0.002  -0.004   0.002  0.00  0.00    +0.010 A 
ATOM     19  H   UNL     1       4.509  -0.353  -0.045  0.00  0.00    +0.160 HD
ENDBRANCH   9  16
ENDBRANCH   1   9
BRANCH   4  20
ATOM     20  C   UNL     1      -2.663  -5.415  -2.444  0.00  0.00    +0.197 C 
BRANCH  20  21
ATOM     21  C   UNL     1      -3.670  -5.296  -1.330  0.00  0.00    +0.181 C 
ATOM     22  O   UNL     1      -3.464  -4.541  -0.403  0.00  0.00    -0.290 OA
BRANCH  21  23
ATOM     23  C   UNL     1      -4.905  -6.096  -1.366  0.00  0.00    +0.019 A 
ATOM     24  C   UNL     1      -5.144  -6.972  -2.429  0.00  0.00    +0.012 A 
ATOM     25  C   UNL     1      -6.302  -7.719  -2.456  0.00  0.00    +0.004 A 
ATOM     26  C   UNL     1      -7.228  -7.604  -1.433  0.00  0.00    -0.044 A 
ATOM     27  C   UNL     1      -6.999  -6.739  -0.377  0.00  0.00    +0.004 A 
ATOM     28  C   UNL     1      -5.842  -5.989  -0.334  0.00  0.00    +0.012 A 
BRANCH  26  29
ATOM     29  C   UNL     1      -8.492  -8.424  -1.470  0.00  0.00    +0.019 C 
ATOM     30  C   UNL     1      -9.704  -7.491  -1.482  0.00  0.00    +0.008 C 
ATOM     31  C   UNL     1     -10.988  -8.324  -1.520  0.00  0.00    +0.001 C 
ATOM     32  C   UNL     1     -11.048  -9.223  -0.283  0.00  0.00    +0.000 C 
ATOM     33  C   UNL     1      -9.835 -10.155  -0.270  0.00  0.00    +0.001 C 
ATOM     34  C   UNL     1      -8.552  -9.323  -0.233  0.00  0.00    +0.008 C 
ENDBRANCH  26  29
ENDBRANCH  21  23
ENDBRANCH  20  21
ENDBRANCH   4  20
TORSDOF 6
