REMARK  Name = ZINC45810408
REMARK  7 active torsions:
REMARK  status: ('A' for Active; 'I' for Inactive)
REMARK    1  A    between atoms: C_7  and  C_11
REMARK    2  A    between atoms: C_11  and  C_13
REMARK    3  A    between atoms: C_11  and  C_31
REMARK    4  A    between atoms: C_13  and  N_14
REMARK    5  A    between atoms: C_15  and  C_17
REMARK    6  A    between atoms: C_20  and  C_23
REMARK    7  A    between atoms: C_23  and  N_24
REMARK                            x       y       z     vdW  Elec       q    Type
REMARK                         _______ _______ _______ _____ _____    ______ ____
ROOT
ATOM      1  C   UNL     1       0.927  -4.130   1.221  0.00  0.00    +0.117 C 
ENDROOT
BRANCH   1   2
ATOM      2  N   UNL     1      -0.061  -5.209   1.287  0.00  0.00    -0.310 N 
ATOM      3  C   UNL     1      -0.027  -6.093   2.304  0.00  0.00    +0.244 C 
ATOM      4  O   UNL     1       0.824  -5.995   3.167  0.00  0.00    -0.270 OA
ATOM      5  H   UNL     1      -0.741  -5.288   0.599  0.00  0.00    +0.149 HD
BRANCH   3   6
ATOM      6  C   UNL     1      -1.024  -7.183   2.371  0.00  0.00    +0.037 A 
ATOM      7  C   UNL     1      -1.999  -7.302   1.379  0.00  0.00    +0.013 A 
ATOM      8  C   UNL     1      -2.927  -8.321   1.448  0.00  0.00    +0.006 A 
ATOM      9  C   UNL     1      -2.892  -9.223   2.496  0.00  0.00    -0.030 A 
ATOM     10  C   UNL     1      -1.928  -9.110   3.482  0.00  0.00    +0.006 A 
ATOM     11  C   UNL     1      -0.991  -8.099   3.423  0.00  0.00    +0.013 A 
BRANCH   9  12
ATOM     12  C   UNL     1      -3.909 -10.334   2.564  0.00  0.00    +0.153 C 
BRANCH  12  13
ATOM     13  N   UNL     1      -3.396 -11.509   1.856  0.00  0.00    -0.220 N 
ATOM     14  C   UNL     1      -3.590 -11.747   0.544  0.00  0.00    +0.240 C 
ATOM     15  O   UNL     1      -4.199 -11.055  -0.243  0.00  0.00    -0.273 OA
ATOM     16  C   UNL     1      -2.888 -13.060   0.257  0.00  0.00    +0.202 C 
ATOM     17  N   UNL     1      -2.327 -13.445   1.563  0.00  0.00    -0.290 N 
ATOM     18  C   UNL     1      -2.672 -12.476   2.431  0.00  0.00    +0.309 C 
ATOM     19  O   UNL     1      -2.363 -12.481   3.607  0.00  0.00    -0.252 OA
ATOM     20  H   UNL     1      -1.808 -14.240   1.759  0.00  0.00    +0.151 HD
ENDBRANCH  12  13
ENDBRANCH   9  12
ENDBRANCH   3   6
ENDBRANCH   1   2
BRANCH   1  21
ATOM     21  C   UNL     1       0.666  -3.275  -0.021  0.00  0.00    +0.069 C 
BRANCH  21  28
ATOM     22  C   UNL     1      -0.017   1.362   0.009  0.00  0.00    +0.001 A 
ATOM     23  C   UNL     1       1.170   2.083   0.002  0.00  0.00    +0.002 A 
ATOM     24  C   UNL     1       2.386   1.436  -0.013  0.00  0.00    +0.026 A 
ATOM     25  C   UNL     1       2.428   0.046  -0.021  0.00  0.00    +0.047 A 
ATOM     26  C   UNL     1       1.223  -0.681  -0.013  0.00  0.00    +0.003 A 
ATOM     27  C   UNL     1       0.002  -0.004   0.002  0.00  0.00    +0.010 A 
ATOM     28  C   UNL     1       1.604  -2.095  -0.025  0.00  0.00    -0.013 A 
ATOM     29  C   UNL     1       2.945  -2.141  -0.038  0.00  0.00    +0.088 A 
ATOM     30  N   UNL     1       3.455  -0.871  -0.036  0.00  0.00    -0.360 N 
ATOM     31  H   UNL     1       4.399  -0.650  -0.044  0.00  0.00    +0.165 HD
ENDBRANCH  21  28
BRANCH  21  32
ATOM     32  C   UNL     1       0.898  -4.104  -1.258  0.00  0.00    -0.020 A 
ATOM     33  C   UNL     1       2.138  -4.669  -1.490  0.00  0.00    +0.006 A 
ATOM     34  C   UNL     1       2.350  -5.429  -2.625  0.00  0.00    +0.000 A 
ATOM     35  C   UNL     1       1.322  -5.625  -3.529  0.00  0.00    +0.001 A 
ATOM     36  C   UNL     1       0.082  -5.061  -3.298  0.00  0.00    +0.020 A 
ATOM     37  C   UNL     1      -0.133  -4.304  -2.159  0.00  0.00    +0.045 A 
ATOM     38 CL   UNL     1      -1.692  -3.600  -1.866  0.00  0.00    -0.083 Cl
ENDBRANCH  21  32
ENDBRANCH   1  21
TORSDOF 7
