REMARK  Name = ZINC43221434
REMARK  11 active torsions:
REMARK  status: ('A' for Active; 'I' for Inactive)
REMARK    1  A    between atoms: C_1  and  C_2
REMARK    2  A    between atoms: C_2  and  C_3
REMARK    3  A    between atoms: C_7  and  C_35
REMARK    4  A    between atoms: C_8  and  N_9
REMARK    5  A    between atoms: C_14  and  C_26
REMARK    6  A    between atoms: C_17  and  C_22
REMARK    7  A    between atoms: C_17  and  C_23
REMARK    8  A    between atoms: C_29  and  O_34
REMARK    9  A    between atoms: C_30  and  O_32
REMARK   10  A    between atoms: O_32  and  C_33
REMARK   11  A    between atoms: C_35  and  C_36
REMARK                            x       y       z     vdW  Elec       q    Type
REMARK                         _______ _______ _______ _____ _____    ______ ____
ROOT
ATOM      1  N   UNL     1      -1.312  -0.338   2.505  0.00  0.00    -0.209 N 
ATOM      2  C   UNL     1      -1.788   0.909   2.825  0.00  0.00    +0.229 C 
ATOM      3  O   UNL     1      -1.167   1.950   2.866  0.00  0.00    -0.275 OA
ATOM      4  C   UNL     1      -3.189   0.709   3.101  0.00  0.00    +0.077 C 
ATOM      5  C   UNL     1      -4.454   1.461   3.166  0.00  0.00    -0.027 C 
ATOM      6  N   UNL     1      -5.469   0.359   3.287  0.00  0.00    +0.395 N 
ATOM      7  C   UNL     1      -4.861  -0.886   2.732  0.00  0.00    +0.045 C 
ATOM      8  C   UNL     1      -3.558  -0.424   2.062  0.00  0.00    +0.086 C 
ATOM      9  C   UNL     1      -2.311  -1.239   2.267  0.00  0.00    +0.229 C 
ATOM     10  O   UNL     1      -2.213  -2.447   2.231  0.00  0.00    -0.275 OA
ATOM     11  C   UNL     1      -4.582  -1.886   3.856  0.00  0.00    +0.002 C 
ATOM     12  H   UNL     1      -5.708   0.220   4.258  0.00  0.00    -0.083 HD
ATOM     13  H   UNL     1      -6.297   0.598   2.762  0.00  0.00    -0.083 HD
ENDROOT
BRANCH   1  19
ATOM     14  C   UNL     1       0.731  -0.503   1.223  0.00  0.00    -0.026 A 
ATOM     15  C   UNL     1       2.076  -0.808   1.149  0.00  0.00    +0.005 A 
ATOM     16  C   UNL     1       2.746  -1.266   2.268  0.00  0.00    +0.001 A 
ATOM     17  C   UNL     1       2.071  -1.420   3.466  0.00  0.00    +0.005 A 
ATOM     18  C   UNL     1       0.726  -1.117   3.546  0.00  0.00    -0.026 A 
ATOM     19  C   UNL     1       0.052  -0.652   2.425  0.00  0.00    +0.050 A 
BRANCH  14  21
ATOM     20  C   UNL     1      -0.019   1.526   0.010  0.00  0.00    +0.009 C 
ATOM     21  C   UNL     1       0.002  -0.004   0.002  0.00  0.00    +0.033 C 
ENDBRANCH  14  21
BRANCH  18  22
ATOM     22  C   UNL     1      -0.008  -1.285   4.851  0.00  0.00    +0.033 C 
ATOM     23  C   UNL     1      -0.689  -2.655   4.881  0.00  0.00    +0.009 C 
ENDBRANCH  18  22
ENDBRANCH   1  19
BRANCH   5  24
ATOM     24  C   UNL     1      -4.484   2.358   4.377  0.00  0.00    -0.057 A 
ATOM     25  C   UNL     1      -4.788   1.830   5.618  0.00  0.00    +0.006 A 
ATOM     26  C   UNL     1      -4.817   2.648   6.732  0.00  0.00    +0.049 A 
ATOM     27  C   UNL     1      -4.542   4.000   6.607  0.00  0.00    +0.158 A 
ATOM     28  C   UNL     1      -4.236   4.531   5.357  0.00  0.00    +0.161 A 
ATOM     29  C   UNL     1      -4.203   3.705   4.246  0.00  0.00    +0.051 A 
BRANCH  28  30
ATOM     30  O   UNL     1      -3.964   5.857   5.229  0.00  0.00    -0.491 OA
ATOM     31  C   UNL     1      -3.658   6.333   3.916  0.00  0.00    +0.277 C 
ENDBRANCH  28  30
BRANCH  27  32
ATOM     32  O   UNL     1      -4.571   4.806   7.701  0.00  0.00    -0.503 OA
ATOM     33  H   UNL     1      -3.722   4.878   8.160  0.00  0.00    +0.292 HD
ENDBRANCH  27  32
ENDBRANCH   5  24
BRANCH   7  34
ATOM     34  C   UNL     1      -5.774  -1.499   1.702  0.00  0.00    +0.346 C 
ATOM     35  O   UNL     1      -6.850  -0.981   1.456  0.00  0.00    -0.248 OA
ATOM     36  O   UNL     1      -5.436  -2.513   1.114  0.00  0.00    -0.248 OA
ENDBRANCH   7  34
TORSDOF 7
