REMARK  Name = ZINC63140620
REMARK  9 active torsions:
REMARK  status: ('A' for Active; 'I' for Inactive)
REMARK    1  A    between atoms: C_1  and  C_2
REMARK    2  A    between atoms: C_2  and  O_3
REMARK    3  A    between atoms: O_3  and  C_4
REMARK    4  A    between atoms: C_9  and  C_10
REMARK    5  A    between atoms: N_29  and  C_32
REMARK    6  A    between atoms: C_32  and  C_33
REMARK    7  A    between atoms: C_33  and  C_34
REMARK    8  A    between atoms: C_37  and  O_40
REMARK    9  A    between atoms: O_40  and  C_41
REMARK                            x       y       z     vdW  Elec       q    Type
REMARK                         _______ _______ _______ _____ _____    ______ ____
ROOT
ATOM      1  C   UNL     1      -3.981  -1.497   0.032  0.00  0.00    +0.137 C 
ATOM      2  C   UNL     1      -4.300  -1.068  -1.400  0.00  0.00    +0.131 C 
ATOM      3  C   UNL     1      -4.948  -2.281  -2.064  0.00  0.00    -0.034 C 
ATOM      4  C   UNL     1      -4.170  -2.620  -3.083  0.00  0.00    -0.001 A 
ATOM      5  C   UNL     1      -4.290  -3.681  -4.096  0.00  0.00    +0.010 A 
ATOM      6  C   UNL     1      -3.289  -3.751  -5.014  0.00  0.00    +0.001 A 
ATOM      7  C   UNL     1      -2.194  -2.881  -5.024  0.00  0.00    +0.002 A 
ATOM      8  C   UNL     1      -2.003  -1.877  -4.131  0.00  0.00    +0.026 A 
ATOM      9  C   UNL     1      -2.991  -1.703  -3.118  0.00  0.00    +0.043 A 
ATOM     10  N   UNL     1      -3.062  -0.813  -2.149  0.00  0.00    -0.375 N 
ATOM     11  C   UNL     1      -6.218  -2.880  -1.524  0.00  0.00    +0.065 C 
ATOM     12  C   UNL     1      -6.168  -2.911  -0.018  0.00  0.00    +0.167 C 
ATOM     13  N   UNL     1      -5.093  -2.208   0.646  0.00  0.00    -0.279 N 
ATOM     14  C   UNL     1      -5.112  -2.269   2.018  0.00  0.00    +0.234 C 
ATOM     15  O   UNL     1      -4.304  -1.665   2.692  0.00  0.00    -0.274 OA
ATOM     16  C   UNL     1      -6.189  -3.124   2.650  0.00  0.00    +0.203 C 
ATOM     17  N   UNL     1      -6.275  -4.394   1.905  0.00  0.00    -0.291 N 
ATOM     18  C   UNL     1      -6.287  -4.304   0.547  0.00  0.00    +0.237 C 
ATOM     19  O   UNL     1      -6.388  -5.283  -0.163  0.00  0.00    -0.274 OA
ATOM     20  H   UNL     1      -2.418  -0.114  -1.954  0.00  0.00    +0.160 HD
ENDROOT
BRANCH   1  26
ATOM     21  C   UNL     1      -1.498  -1.848   0.006  0.00  0.00    +0.125 A 
ATOM     22  C   UNL     1      -0.387  -2.679  -0.003  0.00  0.00    +0.046 A 
ATOM     23  C   UNL     1      -0.552  -4.051  -0.008  0.00  0.00    +0.004 A 
ATOM     24  C   UNL     1      -1.823  -4.596  -0.004  0.00  0.00    +0.001 A 
ATOM     25  C   UNL     1      -2.932  -3.769   0.004  0.00  0.00    +0.009 A 
ATOM     26  C   UNL     1      -2.772  -2.397   0.016  0.00  0.00    +0.017 A 
BRANCH  21  27
ATOM     27  O   UNL     1      -1.339  -0.499   0.012  0.00  0.00    -0.492 OA
BRANCH  27  29
ATOM     28  C   UNL     1      -0.019   1.526   0.010  0.00  0.00    +0.048 C 
ATOM     29  C   UNL     1       0.002  -0.004   0.002  0.00  0.00    +0.225 C 
ENDBRANCH  27  29
ENDBRANCH  21  27
ENDBRANCH   1  26
BRANCH  17  30
ATOM     30  C   UNL     1      -6.343  -5.686   2.592  0.00  0.00    +0.113 C 
BRANCH  30  31
ATOM     31  C   UNL     1      -7.807  -6.050   2.850  0.00  0.00    +0.054 C 
BRANCH  31  32
ATOM     32  C   UNL     1      -7.877  -7.379   3.556  0.00  0.00    -0.046 A 
ATOM     33  C   UNL     1      -7.951  -8.548   2.822  0.00  0.00    +0.007 A 
ATOM     34  C   UNL     1      -8.016  -9.768   3.467  0.00  0.00    +0.046 A 
ATOM     35  C   UNL     1      -8.007  -9.819   4.854  0.00  0.00    +0.120 A 
ATOM     36  C   UNL     1      -7.933  -8.644   5.588  0.00  0.00    +0.046 A 
ATOM     37  C   UNL     1      -7.862  -7.428   4.938  0.00  0.00    +0.007 A 
BRANCH  35  38
ATOM     38  O   UNL     1      -8.071 -11.017   5.491  0.00  0.00    -0.495 OA
ATOM     39  C   UNL     1      -8.057 -10.994   6.920  0.00  0.00    +0.277 C 
ENDBRANCH  35  38
ENDBRANCH  31  32
ENDBRANCH  30  31
ENDBRANCH  17  30
TORSDOF 7
