REMARK  Name = ZINC39252885
REMARK  6 active torsions:
REMARK  status: ('A' for Active; 'I' for Inactive)
REMARK    1  A    between atoms: C_4  and  N_7
REMARK    2  A    between atoms: N_7  and  C_8
REMARK    3  A    between atoms: C_8  and  C_9
REMARK    4  A    between atoms: C_11  and  C_22
REMARK    5  A    between atoms: N_24  and  N_25
REMARK    6  A    between atoms: C_26  and  C_27
REMARK                            x       y       z     vdW  Elec       q    Type
REMARK                         _______ _______ _______ _____ _____    ______ ____
ROOT
ATOM      1  C   UNL     1       5.114  -2.493  -0.014  0.00  0.00    +0.154 C 
ATOM      2  C   UNL     1       5.306  -4.002  -0.276  0.00  0.00    +0.240 C 
ATOM      3  N   UNL     1       6.116  -4.048  -1.500  0.00  0.00    -0.156 NA
ATOM      4  N   UNL     1       6.372  -2.920  -1.909  0.00  0.00    -0.077 NA
ATOM      5  N   UNL     1       5.850  -1.877  -1.134  0.00  0.00    -0.176 N 
ATOM      6  C   UNL     1       5.995  -0.513  -1.375  0.00  0.00    +0.228 A 
ATOM      7  C   UNL     1       6.626   0.089  -2.554  0.00  0.00    +0.204 A 
ATOM      8  N   UNL     1       6.577   1.386  -2.428  0.00  0.00    -0.032 NA
ATOM      9  O   UNL     1       5.933   1.680  -1.201  0.00  0.00    -0.239 OA
ATOM     10  N   UNL     1       5.588   0.448  -0.592  0.00  0.00    -0.030 NA
ATOM     11  N   UNL     1       7.182  -0.605  -3.623  0.00  0.00    -0.338 N 
ATOM     12  H   UNL     1       7.173  -1.575  -3.629  0.00  0.00    +0.144 HD
ATOM     13  H   UNL     1       7.579  -0.119  -4.363  0.00  0.00    +0.144 HD
ENDROOT
BRANCH   2  14
ATOM     14  C   UNL     1       6.038  -4.648   0.871  0.00  0.00    +0.261 C 
ATOM     15  O   UNL     1       7.226  -4.874   0.782  0.00  0.00    -0.272 OA
ATOM     16  N   UNL     1       5.373  -4.976   1.996  0.00  0.00    -0.205 N 
ATOM     17  H   UNL     1       4.423  -4.796   2.068  0.00  0.00    +0.177 HD
BRANCH  16  18
ATOM     18  N   UNL     1       6.054  -5.577   3.063  0.00  0.00    -0.188 NA
ATOM     19  C   UNL     1       5.408  -5.896   4.156  0.00  0.00    +0.136 C 
BRANCH  19  20
ATOM     20  C   UNL     1       6.089  -6.498   5.223  0.00  0.00    +0.000 C 
ATOM     21  C   UNL     1       5.554  -6.901   6.444  0.00  0.00    +0.004 A 
ATOM     22  C   UNL     1       4.247  -6.845   6.979  0.00  0.00    +0.010 A 
ATOM     23  C   UNL     1       4.009  -7.323   8.226  0.00  0.00    +0.001 A 
ATOM     24  C   UNL     1       5.029  -7.876   9.006  0.00  0.00    +0.002 A 
ATOM     25  C   UNL     1       6.305  -7.962   8.558  0.00  0.00    +0.026 A 
ATOM     26  C   UNL     1       6.633  -7.482   7.262  0.00  0.00    +0.043 A 
ATOM     27  N   UNL     1       7.774  -7.451   6.607  0.00  0.00    -0.380 N 
ATOM     28  C   UNL     1       7.559  -6.851   5.287  0.00  0.00    +0.150 C 
ATOM     29  H   UNL     1       8.623  -7.778   6.944  0.00  0.00    +0.160 HD
ENDBRANCH  19  20
ENDBRANCH  16  18
ENDBRANCH   2  14
BRANCH   1  30
ATOM     30  C   UNL     1       3.632  -2.116  -0.065  0.00  0.00    +0.128 C 
BRANCH  30  31
ATOM     31  N   UNL     1       2.957  -2.626   1.132  0.00  0.00    -0.342 N 
ATOM     32  H   UNL     1       3.446  -3.171   1.769  0.00  0.00    +0.146 HD
BRANCH  31  36
ATOM     33  C   UNL     1      -1.056  -1.738   1.796  0.00  0.00    +0.000 A 
ATOM     34  C   UNL     1      -0.362  -2.515   2.706  0.00  0.00    +0.002 A 
ATOM     35  C   UNL     1       0.970  -2.811   2.488  0.00  0.00    +0.023 A 
ATOM     36  C   UNL     1       1.611  -2.329   1.354  0.00  0.00    +0.027 A 
ATOM     37  C   UNL     1       0.910  -1.549   0.443  0.00  0.00    +0.023 A 
ATOM     38  C   UNL     1      -0.421  -1.256   0.666  0.00  0.00    +0.002 A 
ENDBRANCH  31  36
ENDBRANCH  30  31
ENDBRANCH   1  30
TORSDOF 6
