REMARK  Name = ZINC02128806
REMARK  5 active torsions:
REMARK  status: ('A' for Active; 'I' for Inactive)
REMARK    1  A    between atoms: C_12  and  C_14
REMARK    2  A    between atoms: C_14  and  C_15
REMARK    3  A    between atoms: C_18  and  O_22
REMARK    4  A    between atoms: C_19  and  O_21
REMARK    5  A    between atoms: N_25  and  C_28
REMARK                            x       y       z     vdW  Elec       q    Type
REMARK                         _______ _______ _______ _____ _____    ______ ____
ROOT
ATOM      1  C   UNL     1       2.186   8.270  -1.678  0.00  0.00    +0.000 A 
ATOM      2  C   UNL     1       0.875   8.685  -1.824  0.00  0.00    +0.002 A 
ATOM      3  C   UNL     1      -0.004   7.958  -2.600  0.00  0.00    +0.023 A 
ATOM      4  C   UNL     1       0.423   6.799  -3.243  0.00  0.00    +0.036 A 
ATOM      5  C   UNL     1       1.744   6.390  -3.089  0.00  0.00    -0.028 A 
ATOM      6  C   UNL     1       2.618   7.120  -2.314  0.00  0.00    +0.004 A 
ATOM      7  C   UNL     1       1.881   5.129  -3.894  0.00  0.00    +0.050 C 
ATOM      8  C   UNL     1       2.957   5.268  -4.978  0.00  0.00    +0.088 C 
ATOM      9  C   UNL     1       4.219   4.604  -4.362  0.00  0.00    +0.074 C 
ATOM     10  C   UNL     1       3.778   4.136  -2.959  0.00  0.00    -0.053 C 
ATOM     11  C   UNL     1       4.444   3.396  -5.243  0.00  0.00    +0.228 C 
ATOM     12  O   UNL     1       5.335   2.586  -5.106  0.00  0.00    -0.275 OA
ATOM     13  N   UNL     1       3.506   3.361  -6.197  0.00  0.00    -0.210 N 
ATOM     14  C   UNL     1       2.622   4.364  -6.144  0.00  0.00    +0.229 C 
ATOM     15  O   UNL     1       1.697   4.523  -6.911  0.00  0.00    -0.275 OA
ATOM     16  C   UNL     1       0.521   4.898  -4.493  0.00  0.00    +0.211 C 
ATOM     17  O   UNL     1       0.195   3.981  -5.218  0.00  0.00    -0.277 OA
ATOM     18  N   UNL     1      -0.265   5.906  -4.068  0.00  0.00    -0.286 N 
ATOM     19  H   UNL     1      -1.200   6.001  -4.307  0.00  0.00    +0.155 HD
ATOM     20  N   UNL     1       2.322   4.019  -3.067  0.00  0.00    +0.394 N 
ATOM     21  H   UNL     1       2.069   3.127  -3.507  0.00  0.00    -0.083 HD
ATOM     22  H   UNL     1       1.891   4.077  -2.137  0.00  0.00    -0.083 HD
ENDROOT
BRANCH  13  23
ATOM     23  C   UNL     1       3.454   2.354  -7.171  0.00  0.00    +0.044 A 
ATOM     24  C   UNL     1       3.158   1.048  -6.807  0.00  0.00    +0.025 A 
ATOM     25  C   UNL     1       3.102   0.059  -7.769  0.00  0.00    +0.022 A 
ATOM     26  C   UNL     1       3.350   0.368  -9.095  0.00  0.00    +0.041 A 
ATOM     27  C   UNL     1       3.650   1.668  -9.461  0.00  0.00    +0.022 A 
ATOM     28  C   UNL     1       3.702   2.661  -8.502  0.00  0.00    +0.025 A 
ATOM     29 CL   UNL     1       3.285  -0.878 -10.302  0.00  0.00    -0.084 Cl
ENDBRANCH  13  23
BRANCH  10  30
ATOM     30  C   UNL     1       4.422   2.791  -2.618  0.00  0.00    +0.020 C 
BRANCH  30  31
ATOM     31  C   UNL     1       4.015   2.377  -1.228  0.00  0.00    -0.045 A 
ATOM     32  C   UNL     1       4.782   2.757  -0.142  0.00  0.00    +0.007 A 
ATOM     33  C   UNL     1       4.413   2.379   1.135  0.00  0.00    +0.049 A 
ATOM     34  C   UNL     1       3.269   1.622   1.331  0.00  0.00    +0.158 A 
ATOM     35  C   UNL     1       2.501   1.235   0.238  0.00  0.00    +0.158 A 
ATOM     36  C   UNL     1       2.876   1.617  -1.040  0.00  0.00    +0.052 A 
BRANCH  35  37
ATOM     37  O   UNL     1       1.380   0.487   0.424  0.00  0.00    -0.503 OA
ATOM     38  H   UNL     1       1.535  -0.467   0.398  0.00  0.00    +0.292 HD
ENDBRANCH  35  37
BRANCH  34  39
ATOM     39  O   UNL     1       2.902   1.254   2.587  0.00  0.00    -0.503 OA
ATOM     40  H   UNL     1       3.276   0.410   2.875  0.00  0.00    +0.292 HD
ENDBRANCH  34  39
ENDBRANCH  30  31
ENDBRANCH  10  30
TORSDOF 5
