REMARK  Name = ZINC20609742
REMARK  6 active torsions:
REMARK  status: ('A' for Active; 'I' for Inactive)
REMARK    1  A    between atoms: C_1  and  C_2
REMARK    2  A    between atoms: C_19  and  C_21
REMARK    3  A    between atoms: C_21  and  N_22
REMARK    4  A    between atoms: N_25  and  C_28
REMARK    5  A    between atoms: C_28  and  C_30
REMARK    6  A    between atoms: C_28  and  C_36
REMARK                            x       y       z     vdW  Elec       q    Type
REMARK                         _______ _______ _______ _____ _____    ______ ____
ROOT
ATOM      1  N   UNL     1      -4.436   4.725  -5.123  0.00  0.00    +0.382 N 
ATOM      2  C   UNL     1      -5.422   4.193  -6.074  0.00  0.00    -0.063 C 
ATOM      3  C   UNL     1      -6.064   5.353  -6.840  0.00  0.00    +0.067 C 
ATOM      4  N   UNL     1      -5.019   6.114  -7.539  0.00  0.00    -0.295 NA
ATOM      5  C   UNL     1      -4.034   6.645  -6.588  0.00  0.00    +0.067 C 
ATOM      6  C   UNL     1      -3.391   5.486  -5.822  0.00  0.00    -0.063 C 
ATOM      7  H   UNL     1      -4.958   5.412  -4.441  0.00  0.00    -0.082 HD
ENDROOT
BRANCH   1   8
ATOM      8  C   UNL     1      -3.851   3.647  -4.314  0.00  0.00    -0.064 C 
BRANCH   8  24
ATOM      9  C   UNL     1      -2.704   3.371   0.109  0.00  0.00    +0.012 C 
ATOM     10  C   UNL     1      -2.883   1.855   0.004  0.00  0.00    -0.022 C 
ATOM     11  C   UNL     1      -2.213   1.175   1.197  0.00  0.00    +0.007 C 
ATOM     12  C   UNL     1      -0.736   1.583   1.264  0.00  0.00    +0.005 C 
ATOM     13  C   UNL     1      -0.013   1.086   0.008  0.00  0.00    +0.030 C 
ATOM     14  C   UNL     1      -0.751   1.590  -1.213  0.00  0.00    -0.073 C 
ATOM     15  C   UNL     1      -0.117   2.219  -2.172  0.00  0.00    +0.008 C 
ATOM     16  C   UNL     1      -2.240   1.347  -1.294  0.00  0.00    +0.021 C 
ATOM     17  C   UNL     1      -2.837   2.134  -2.458  0.00  0.00    +0.016 C 
ATOM     18  C   UNL     1      -4.341   1.874  -2.567  0.00  0.00    +0.042 C 
ATOM     19  C   UNL     1      -5.049   2.142  -1.226  0.00  0.00    +0.181 C 
ATOM     20  C   UNL     1      -4.369   1.501  -0.040  0.00  0.00    +0.052 C 
ATOM     21  O   UNL     1      -5.090   3.596  -1.147  0.00  0.00    -0.461 OA
ATOM     22  C   UNL     1      -5.391   4.053  -2.383  0.00  0.00    +0.309 C 
ATOM     23  O   UNL     1      -5.941   5.101  -2.627  0.00  0.00    -0.251 OA
ATOM     24  C   UNL     1      -4.930   3.041  -3.415  0.00  0.00    +0.088 C 
ENDBRANCH   8  24
ENDBRANCH   1   8
BRANCH   4  25
ATOM     25  C   UNL     1      -5.605   7.191  -8.348  0.00  0.00    +0.117 C 
BRANCH  25  26
ATOM     26  C   UNL     1      -6.774   6.653  -9.131  0.00  0.00    -0.026 A 
ATOM     27  C   UNL     1      -6.700   5.399  -9.709  0.00  0.00    +0.007 A 
ATOM     28  C   UNL     1      -7.775   4.903 -10.422  0.00  0.00    +0.020 A 
ATOM     29  C   UNL     1      -8.920   5.665 -10.568  0.00  0.00    +0.041 A 
ATOM     30  C   UNL     1      -8.991   6.922  -9.994  0.00  0.00    +0.020 A 
ATOM     31  C   UNL     1      -7.918   7.415  -9.276  0.00  0.00    +0.007 A 
ATOM     32 CL   UNL     1     -10.268   5.045 -11.470  0.00  0.00    -0.084 Cl
ENDBRANCH  25  26
BRANCH  25  33
ATOM     33  C   UNL     1      -4.566   7.726  -9.300  0.00  0.00    -0.026 A 
ATOM     34  C   UNL     1      -3.694   6.858  -9.930  0.00  0.00    +0.005 A 
ATOM     35  C   UNL     1      -2.744   7.348 -10.806  0.00  0.00    +0.000 A 
ATOM     36  C   UNL     1      -2.660   8.707 -11.046  0.00  0.00    +0.000 A 
ATOM     37  C   UNL     1      -3.529   9.575 -10.412  0.00  0.00    +0.000 A 
ATOM     38  C   UNL     1      -4.482   9.085  -9.539  0.00  0.00    +0.005 A 
ENDBRANCH  25  33
ENDBRANCH   4  25
TORSDOF 5
