REMARK  Name = ZINC27563738
REMARK  8 active torsions:
REMARK  status: ('A' for Active; 'I' for Inactive)
REMARK    1  A    between atoms: C_1  and  C_2
REMARK    2  A    between atoms: C_3  and  C_30
REMARK    3  A    between atoms: C_4  and  C_12
REMARK    4  A    between atoms: C_15  and  O_20
REMARK    5  A    between atoms: C_16  and  O_18
REMARK    6  A    between atoms: O_18  and  C_19
REMARK    7  A    between atoms: O_20  and  C_21
REMARK    8  A    between atoms: C_21  and  C_22
REMARK                            x       y       z     vdW  Elec       q    Type
REMARK                         _______ _______ _______ _____ _____    ______ ____
ROOT
ATOM      1  C   UNL     1      -1.967  -2.518   1.245  0.00  0.00    -0.017 A 
ATOM      2  C   UNL     1      -1.432  -2.367   2.511  0.00  0.00    +0.009 A 
ATOM      3  C   UNL     1      -2.179  -2.705   3.625  0.00  0.00    +0.050 A 
ATOM      4  C   UNL     1      -3.466  -3.195   3.473  0.00  0.00    +0.162 A 
ATOM      5  C   UNL     1      -4.004  -3.346   2.199  0.00  0.00    +0.162 A 
ATOM      6  C   UNL     1      -3.252  -3.002   1.087  0.00  0.00    +0.055 A 
ENDROOT
BRANCH   1  10
ATOM      7  C   UNL     1       0.464   1.360  -0.002  0.00  0.00    +0.066 C 
ATOM      8  C   UNL     1       0.269  -0.134   0.025  0.00  0.00    +0.052 C 
ATOM      9  C   UNL     1      -1.001  -0.637   0.006  0.00  0.00    +0.061 C 
ATOM     10  C   UNL     1      -1.148  -2.149   0.035  0.00  0.00    +0.164 C 
ATOM     11  N   UNL     1       0.100  -2.917   0.080  0.00  0.00    -0.208 N 
ATOM     12  C   UNL     1       1.297  -2.242   0.093  0.00  0.00    +0.237 C 
ATOM     13  N   UNL     1       1.335  -0.921   0.061  0.00  0.00    -0.218 NA
ATOM     14  N   UNL     1       2.272  -3.170   0.135  0.00  0.00    -0.205 NA
ATOM     15  C   UNL     1       1.755  -4.371   0.148  0.00  0.00    +0.203 C 
ATOM     16  N   UNL     1       0.405  -4.280   0.115  0.00  0.00    -0.251 N 
ATOM     17  H   UNL     1      -0.227  -5.016   0.117  0.00  0.00    +0.171 HD
BRANCH   9  18
ATOM     18  C   UNL     1      -2.124   0.209  -0.037  0.00  0.00    +0.241 C 
ATOM     19  O   UNL     1      -1.982   1.416   0.057  0.00  0.00    -0.271 OA
ATOM     20  N   UNL     1      -3.357  -0.315  -0.183  0.00  0.00    -0.325 N 
ATOM     21  H   UNL     1      -3.478  -1.277  -0.189  0.00  0.00    +0.145 HD
ATOM     22  H   UNL     1      -4.125   0.270  -0.282  0.00  0.00    +0.145 HD
ENDBRANCH   9  18
ENDBRANCH   1  10
BRANCH   5  23
ATOM     23  O   UNL     1      -5.267  -3.827   2.045  0.00  0.00    -0.491 OA
ATOM     24  C   UNL     1      -5.754  -3.955   0.708  0.00  0.00    +0.277 C 
ENDBRANCH   5  23
BRANCH   4  25
ATOM     25  O   UNL     1      -4.202  -3.528   4.567  0.00  0.00    -0.484 OA
BRANCH  25  26
ATOM     26  C   UNL     1      -3.585  -3.346   5.843  0.00  0.00    +0.266 C 
BRANCH  26  27
ATOM     27  C   UNL     1      -4.543  -3.765   6.929  0.00  0.00    +0.008 A 
ATOM     28  C   UNL     1      -5.798  -4.241   6.597  0.00  0.00    +0.010 A 
ATOM     29  C   UNL     1      -6.677  -4.624   7.592  0.00  0.00    +0.020 A 
ATOM     30  C   UNL     1      -6.302  -4.533   8.921  0.00  0.00    +0.042 A 
ATOM     31  C   UNL     1      -5.046  -4.058   9.253  0.00  0.00    +0.040 A 
ATOM     32  C   UNL     1      -4.165  -3.678   8.257  0.00  0.00    +0.049 A 
ATOM     33 CL   UNL     1      -2.586  -3.087   8.673  0.00  0.00    -0.083 Cl
ATOM     34 CL   UNL     1      -7.407  -5.015  10.170  0.00  0.00    -0.083 Cl
ENDBRANCH  26  27
ENDBRANCH  25  26
ENDBRANCH   4  25
TORSDOF 6
