REMARK  Name = ZINC06077739
REMARK  13 active torsions:
REMARK  status: ('A' for Active; 'I' for Inactive)
REMARK    1  A    between atoms: C_1  and  C_2
REMARK    2  A    between atoms: C_2  and  C_3
REMARK    3  A    between atoms: C_3  and  C_4
REMARK    4  A    between atoms: C_3  and  C_5
REMARK    5  A    between atoms: C_3  and  N_6
REMARK    6  A    between atoms: C_7  and  C_11
REMARK    7  A    between atoms: C_11  and  C_13
REMARK    8  A    between atoms: C_11  and  N_75
REMARK    9  A    between atoms: C_17  and  O_25
REMARK   10  A    between atoms: O_25  and  C_26
REMARK   11  A    between atoms: N_29  and  C_32
REMARK   12  A    between atoms: C_34  and  C_39
REMARK   13  A    between atoms: C_37  and  C_38
REMARK                            x       y       z     vdW  Elec       q    Type
REMARK                         _______ _______ _______ _____ _____    ______ ____
ROOT
ATOM      1  C   UNL     1       5.743   7.341  -0.529  0.00  0.00    +0.039 C 
ENDROOT
BRANCH   1   2
ATOM      2  C   UNL     1       5.940   8.534  -1.428  0.00  0.00    +0.011 A 
ATOM      3  C   UNL     1       7.092   8.666  -2.132  0.00  0.00    +0.017 A 
ATOM      4  C   UNL     1       7.251   9.834  -3.000  0.00  0.00    +0.002 A 
ATOM      5  C   UNL     1       8.415  10.020  -3.754  0.00  0.00    +0.055 A 
ATOM      6  C   UNL     1       8.535  11.135  -4.558  0.00  0.00    +0.121 A 
ATOM      7  C   UNL     1       7.504  12.070  -4.622  0.00  0.00    +0.047 A 
ATOM      8  C   UNL     1       6.354  11.898  -3.885  0.00  0.00    +0.030 A 
ATOM      9  C   UNL     1       6.213  10.781  -3.067  0.00  0.00    +0.049 A 
ATOM     10  N   UNL     1       5.067  10.591  -2.321  0.00  0.00    -0.322 N 
ATOM     11  H   UNL     1       4.330  11.264  -2.370  0.00  0.00    +0.169 HD
ATOM     12  C   UNL     1       4.929   9.512  -1.530  0.00  0.00    +0.251 A 
ATOM     13  O   UNL     1       3.903   9.376  -0.886  0.00  0.00    -0.268 OA
BRANCH   6  14
ATOM     14  O   UNL     1       9.664  11.321  -5.293  0.00  0.00    -0.495 OA
ATOM     15  C   UNL     1       9.723  12.496  -6.104  0.00  0.00    +0.277 C 
ENDBRANCH   6  14
ENDBRANCH   1   2
BRANCH   1  21
ATOM     16  C   UNL     1       4.622   5.988  -2.195  0.00  0.00    -0.058 C 
ATOM     17  C   UNL     1       3.280   5.355  -2.573  0.00  0.00    +0.086 C 
ATOM     18  N   UNL     1       2.883   4.397  -1.531  0.00  0.00    -0.333 N 
ATOM     19  C   UNL     1       2.757   5.064  -0.228  0.00  0.00    +0.086 C 
ATOM     20  C   UNL     1       4.098   5.697   0.150  0.00  0.00    -0.058 C 
ATOM     21  N   UNL     1       4.475   6.674  -0.894  0.00  0.00    +0.391 N 
ATOM     22  H   UNL     1       3.736   7.382  -0.971  0.00  0.00    -0.080 HD
BRANCH  18  23
ATOM     23  C   UNL     1       1.698   3.745  -1.877  0.00  0.00    +0.033 A 
ATOM     24  C   UNL     1       0.536   4.477  -2.086  0.00  0.00    +0.026 A 
ATOM     25  C   UNL     1      -0.635   3.829  -2.426  0.00  0.00    -0.049 A 
ATOM     26  C   UNL     1      -0.651   2.454  -2.565  0.00  0.00    +0.004 A 
ATOM     27  C   UNL     1       0.503   1.721  -2.353  0.00  0.00    +0.005 A 
ATOM     28  C   UNL     1       1.677   2.363  -2.011  0.00  0.00    -0.029 A 
ATOM     29  C   UNL     1       2.935   1.564  -1.786  0.00  0.00    +0.045 C 
ATOM     30  C   UNL     1      -1.896   4.623  -2.653  0.00  0.00    +0.044 C 
ENDBRANCH  18  23
ENDBRANCH   1  21
BRANCH   1  32
ATOM     31  N   UNL     1       6.566   7.561   1.875  0.00  0.00    -0.225 N 
ATOM     32  C   UNL     1       5.665   7.800   0.905  0.00  0.00    +0.143 A 
ATOM     33  N   UNL     1       4.703   8.504   1.449  0.00  0.00    -0.115 NA
ATOM     34  N   UNL     1       5.001   8.693   2.689  0.00  0.00    -0.023 NA
ATOM     35  N   UNL     1       6.128   8.127   2.949  0.00  0.00    -0.043 NA
BRANCH  31  36
ATOM     36  C   UNL     1       7.813   6.804   1.738  0.00  0.00    +0.061 C 
ATOM     37  C   UNL     1       7.491   5.351   1.386  0.00  0.00    +0.036 C 
ATOM     38  C   UNL     1       8.665   7.421   0.627  0.00  0.00    +0.036 C 
BRANCH  36  40
ATOM     39  C   UNL     1       9.887   6.059   2.914  0.00  0.00    +0.006 C 
ATOM     40  C   UNL     1       8.585   6.850   3.058  0.00  0.00    +0.026 C 
ENDBRANCH  36  40
ENDBRANCH  31  36
ENDBRANCH   1  32
TORSDOF 7
