REMARK  Name = ZINC36354979
REMARK  3 active torsions:
REMARK  status: ('A' for Active; 'I' for Inactive)
REMARK    1  A    between atoms: C_3  and  C_6
REMARK    2  A    between atoms: C_9  and  O_23
REMARK    3  A    between atoms: N_15  and  C_16
REMARK                            x       y       z     vdW  Elec       q    Type
REMARK                         _______ _______ _______ _____ _____    ______ ____
ROOT
ATOM      1  C   UNL     1       3.761   1.845  -0.024  0.00  0.00    +0.087 C 
ATOM      2  C   UNL     1       4.511   1.320   1.204  0.00  0.00    +0.110 C 
ATOM      3  C   UNL     1       4.922  -0.113   1.027  0.00  0.00    +0.190 C 
ATOM      4  N   UNL     1       5.240  -0.627  -0.124  0.00  0.00    -0.197 NA
ATOM      5  C   UNL     1       5.169   0.155  -1.239  0.00  0.00    +0.165 A 
ATOM      6  C   UNL     1       4.476   1.340  -1.253  0.00  0.00    +0.094 A 
ATOM      7  N   UNL     1       4.579   1.868  -2.466  0.00  0.00    -0.237 NA
ATOM      8  C   UNL     1       5.304   1.083  -3.223  0.00  0.00    +0.206 A 
ATOM      9  N   UNL     1       5.696  -0.004  -2.487  0.00  0.00    -0.283 N 
ENDROOT
BRANCH   9  10
ATOM     10  C   UNL     1       6.487  -1.075  -2.931  0.00  0.00    +0.050 A 
ATOM     11  C   UNL     1       7.585  -1.483  -2.187  0.00  0.00    +0.029 A 
ATOM     12  C   UNL     1       8.362  -2.538  -2.625  0.00  0.00    +0.040 A 
ATOM     13  C   UNL     1       8.046  -3.187  -3.807  0.00  0.00    +0.124 A 
ATOM     14  C   UNL     1       6.952  -2.780  -4.551  0.00  0.00    +0.040 A 
ATOM     15  C   UNL     1       6.169  -1.730  -4.113  0.00  0.00    +0.029 A 
ATOM     16  F   UNL     1       8.808  -4.217  -4.235  0.00  0.00    -0.205 F 
ENDBRANCH   9  10
BRANCH   1  19
ATOM     17  C   UNL     1      -0.016   1.351   0.009  0.00  0.00    +0.008 A 
ATOM     18  C   UNL     1       1.183   2.038   0.002  0.00  0.00    +0.012 A 
ATOM     19  C   UNL     1       2.343   1.336  -0.013  0.00  0.00    -0.001 A 
ATOM     20  S   UNL     1       1.754  -0.349  -0.017  0.00  0.00    -0.101 S 
ATOM     21  C   UNL     1       0.002  -0.004   0.002  0.00  0.00    +0.045 A 
ENDBRANCH   1  19
BRANCH   3  22
ATOM     22  O   UNL     1       4.964  -0.907   2.118  0.00  0.00    -0.495 OA
ATOM     23  H   UNL     1       5.236  -1.816   1.932  0.00  0.00    +0.293 HD
ENDBRANCH   3  22
TORSDOF 3
