REMARK  Name = ZINC06841218
REMARK  4 active torsions:
REMARK  status: ('A' for Active; 'I' for Inactive)
REMARK    1  A    between atoms: C_4  and  C_7
REMARK    2  A    between atoms: C_18  and  C_20
REMARK    3  A    between atoms: C_20  and  S_21
REMARK    4  A    between atoms: S_21  and  C_22
REMARK                            x       y       z     vdW  Elec       q    Type
REMARK                         _______ _______ _______ _____ _____    ______ ____
ROOT
ATOM      1  C   UNL     1       3.001  -1.065   0.595  0.00  0.00    +0.122 C 
ATOM      2  C   UNL     1       2.826  -1.723   1.972  0.00  0.00    +0.102 C 
ATOM      3  S   UNL     1       4.402  -2.518   2.408  0.00  0.00    -0.121 S 
ATOM      4  C   UNL     1       4.848  -3.370   0.928  0.00  0.00    +0.029 A 
ATOM      5  C   UNL     1       5.830  -4.353   0.985  0.00  0.00    +0.016 A 
ATOM      6  C   UNL     1       6.201  -5.031  -0.160  0.00  0.00    +0.001 A 
ATOM      7  C   UNL     1       5.595  -4.731  -1.366  0.00  0.00    +0.002 A 
ATOM      8  C   UNL     1       4.619  -3.758  -1.430  0.00  0.00    +0.024 A 
ATOM      9  C   UNL     1       4.231  -3.070  -0.282  0.00  0.00    +0.050 A 
ATOM     10  N   UNL     1       3.225  -2.108  -0.401  0.00  0.00    -0.261 N 
ATOM     11  C   UNL     1       2.422  -2.147  -1.483  0.00  0.00    +0.231 C 
ATOM     12  O   UNL     1       1.875  -1.136  -1.869  0.00  0.00    -0.274 OA
ENDROOT
BRANCH   1  16
ATOM     13  C   UNL     1      -0.524   1.131  -0.402  0.00  0.00    +0.000 A 
ATOM     14  C   UNL     1       0.720   1.640  -0.722  0.00  0.00    +0.000 A 
ATOM     15  C   UNL     1       1.861   0.929  -0.399  0.00  0.00    +0.005 A 
ATOM     16  C   UNL     1       1.757  -0.290   0.244  0.00  0.00    -0.026 A 
ATOM     17  C   UNL     1       0.512  -0.798   0.565  0.00  0.00    +0.005 A 
ATOM     18  C   UNL     1      -0.629  -0.088   0.241  0.00  0.00    +0.000 A 
ENDBRANCH   1  16
BRANCH  11  19
ATOM     19  C   UNL     1       2.205  -3.447  -2.214  0.00  0.00    +0.173 C 
BRANCH  19  20
ATOM     20  S   UNL     1       0.631  -3.379  -3.114  0.00  0.00    -0.075 S 
BRANCH  20  21
ATOM     21  C   UNL     1       0.524  -4.950  -3.905  0.00  0.00    +0.210 A 
ATOM     22  N   UNL     1      -0.477  -5.357  -4.692  0.00  0.00    -0.188 NA
ATOM     23  C   UNL     1      -0.238  -6.580  -5.116  0.00  0.00    +0.209 A 
ATOM     24  N   UNL     1       0.941  -6.979  -4.595  0.00  0.00    -0.246 N 
ATOM     25  H   UNL     1       1.376  -7.835  -4.731  0.00  0.00    +0.192 HD
ATOM     26  N   UNL     1       1.416  -5.908  -3.821  0.00  0.00    -0.144 NA
ATOM     27  N   UNL     1      -1.053  -7.326  -5.948  0.00  0.00    -0.328 N 
ATOM     28  H   UNL     1      -1.886  -6.952  -6.273  0.00  0.00    +0.145 HD
ATOM     29  H   UNL     1      -0.790  -8.224  -6.206  0.00  0.00    +0.145 HD
ENDBRANCH  20  21
ENDBRANCH  19  20
ENDBRANCH  11  19
TORSDOF 4
