REMARK  Name = ZINC09466635
REMARK  10 active torsions:
REMARK  status: ('A' for Active; 'I' for Inactive)
REMARK    1  A    between atoms: C_1  and  C_2
REMARK    2  A    between atoms: C_5  and  C_7
REMARK    3  A    between atoms: C_10  and  C_13
REMARK    4  A    between atoms: C_18  and  C_20
REMARK    5  A    between atoms: C_20  and  N_55
REMARK    6  A    between atoms: C_21  and  C_23
REMARK    7  A    between atoms: C_21  and  C_24
REMARK    8  A    between atoms: C_21  and  N_55
REMARK    9  A    between atoms: C_27  and  S_30
REMARK   10  A    between atoms: S_30  and  N_33
REMARK                            x       y       z     vdW  Elec       q    Type
REMARK                         _______ _______ _______ _____ _____    ______ ____
ROOT
ATOM      1  C   UNL     1       4.433   2.689   4.664  0.00  0.00    +0.104 C 
ATOM      2  N   UNL     1       3.568   2.466   3.731  0.00  0.00    -0.178 NA
ATOM      3  N   UNL     1       4.026   2.766   2.449  0.00  0.00    -0.186 N 
ATOM      4  C   UNL     1       5.409   3.259   2.541  0.00  0.00    +0.143 C 
ATOM      5  C   UNL     1       5.709   3.222   4.053  0.00  0.00    +0.090 C 
ATOM      6  C   UNL     1       3.320   2.622   1.311  0.00  0.00    +0.218 C 
ATOM      7  O   UNL     1       3.820   2.915   0.245  0.00  0.00    -0.276 OA
ENDROOT
BRANCH   1  12
ATOM      8  C   UNL     1       5.227   2.474   9.605  0.00  0.00    +0.086 C 
ATOM      9  C   UNL     1       4.552   2.363   8.262  0.00  0.00    +0.103 A 
ATOM     10  C   UNL     1       3.295   1.922   8.049  0.00  0.00    +0.045 A 
ATOM     11  C   UNL     1       3.064   1.985   6.663  0.00  0.00    +0.051 A 
ATOM     12  C   UNL     1       4.211   2.460   6.095  0.00  0.00    +0.151 A 
ATOM     13  O   UNL     1       5.102   2.687   7.081  0.00  0.00    -0.459 OA
ENDBRANCH   1  12
BRANCH   4  14
ATOM     14  C   UNL     1       5.505   4.670   2.020  0.00  0.00    +0.013 A 
ATOM     15  C   UNL     1       6.488   5.244   1.284  0.00  0.00    +0.013 A 
ATOM     16  C   UNL     1       6.361   6.569   0.913  0.00  0.00    +0.008 A 
ATOM     17  C   UNL     1       5.257   7.256   1.296  0.00  0.00    +0.045 A 
ATOM     18  S   UNL     1       4.347   6.017   2.203  0.00  0.00    -0.100 S 
ENDBRANCH   4  14
BRANCH   6  19
ATOM     19  C   UNL     1       1.908   2.097   1.361  0.00  0.00    +0.018 C 
BRANCH  19  20
ATOM     20  N   UNL     1       1.365   2.037  -0.009  0.00  0.00    +0.389 N 
ATOM     21  H   UNL     1       1.949   1.413  -0.578  0.00  0.00    -0.084 HD
ATOM     22  H   UNL     1       1.372   2.979  -0.418  0.00  0.00    -0.084 HD
BRANCH  20  23
ATOM     23  C   UNL     1      -0.019   1.526   0.010  0.00  0.00    -0.043 C 
ATOM     24  C   UNL     1       0.002  -0.004   0.002  0.00  0.00    -0.009 C 
BRANCH  23  25
ATOM     25  C   UNL     1      -0.748   2.025  -1.210  0.00  0.00    -0.062 A 
ATOM     26  C   UNL     1      -0.097   2.080  -2.429  0.00  0.00    +0.004 A 
ATOM     27  C   UNL     1      -0.767   2.534  -3.550  0.00  0.00    +0.029 A 
ATOM     28  C   UNL     1      -2.085   2.941  -3.450  0.00  0.00    +0.105 A 
ATOM     29  C   UNL     1      -2.733   2.891  -2.230  0.00  0.00    +0.029 A 
ATOM     30  C   UNL     1      -2.064   2.433  -1.111  0.00  0.00    +0.004 A 
BRANCH  28  31
ATOM     31  S   UNL     1      -2.937   3.525  -4.878  0.00  0.00    +0.056 S 
ATOM     32  O   UNL     1      -2.278   2.960  -6.003  0.00  0.00    -0.153 OA
ATOM     33  O   UNL     1      -4.323   3.333  -4.630  0.00  0.00    -0.153 OA
BRANCH  31  34
ATOM     34  N   UNL     1      -2.693   5.161  -4.959  0.00  0.00    -0.204 NA
ATOM     35  H   UNL     1      -2.678   5.607  -5.820  0.00  0.00    +0.144 HD
ATOM     36  H   UNL     1      -2.565   5.673  -4.145  0.00  0.00    +0.144 HD
ENDBRANCH  31  34
ENDBRANCH  28  31
ENDBRANCH  23  25
ENDBRANCH  20  23
ENDBRANCH  19  20
ENDBRANCH   6  19
TORSDOF 8
