REMARK  Name = ZINC16953151
REMARK  18 active torsions:
REMARK  status: ('A' for Active; 'I' for Inactive)
REMARK    1  A    between atoms: C_1  and  C_2
REMARK    2  A    between atoms: C_3  and  C_38
REMARK    3  A    between atoms: C_4  and  C_31
REMARK    4  A    between atoms: C_7  and  C_8
REMARK    5  A    between atoms: C_13  and  C_14
REMARK    6  A    between atoms: C_15  and  C_28
REMARK    7  A    between atoms: C_16  and  C_27
REMARK    8  A    between atoms: C_17  and  C_20
REMARK    9  A    between atoms: C_20  and  O_22
REMARK   10  A    between atoms: O_22  and  C_23
REMARK   11  A    between atoms: C_23  and  C_24
REMARK   12  A    between atoms: C_23  and  C_25
REMARK   13  A    between atoms: C_23  and  C_26
REMARK   14  A    between atoms: C_31  and  O_33
REMARK   15  A    between atoms: O_33  and  C_34
REMARK   16  A    between atoms: C_34  and  C_35
REMARK   17  A    between atoms: C_34  and  C_36
REMARK   18  A    between atoms: C_34  and  C_37
REMARK                            x       y       z     vdW  Elec       q    Type
REMARK                         _______ _______ _______ _____ _____    ______ ____
ROOT
ATOM      1  C   UNL     1      -0.801   1.031   0.894  0.00  0.00    +0.033 C 
ATOM      2  C   UNL     1      -1.655   1.035   1.945  0.00  0.00    +0.002 C 
ATOM      3  C   UNL     1      -2.802   0.077   2.152  0.00  0.00    +0.044 C 
ATOM      4  C   UNL     1      -3.471   0.477   3.474  0.00  0.00    +0.044 C 
ATOM      5  C   UNL     1      -2.698   1.658   4.005  0.00  0.00    +0.002 C 
ATOM      6  C   UNL     1      -2.959   2.321   5.156  0.00  0.00    +0.033 C 
ATOM      7  C   UNL     1      -1.616   1.962   3.072  0.00  0.00    +0.185 C 
ATOM      8  O   UNL     1      -0.802   2.860   3.212  0.00  0.00    -0.287 OA
ENDROOT
BRANCH   1  15
ATOM      9  C   UNL     1      -1.904   3.817  -0.029  0.00  0.00    +0.046 C 
ATOM     10  C   UNL     1      -0.461   3.449   0.202  0.00  0.00    -0.022 A 
ATOM     11  C   UNL     1       0.638   4.287   0.043  0.00  0.00    -0.015 A 
ATOM     12  C   UNL     1       1.769   3.556   0.355  0.00  0.00    +0.128 A 
ATOM     13  N   UNL     1       1.377   2.289   0.707  0.00  0.00    -0.349 N 
ATOM     14  H   UNL     1       1.967   1.569   0.977  0.00  0.00    +0.166 HD
ATOM     15  C   UNL     1       0.014   2.212   0.610  0.00  0.00    +0.043 A 
ATOM     16  C   UNL     1       0.601   5.730  -0.390  0.00  0.00    +0.046 C 
BRANCH  12  17
ATOM     17  C   UNL     1       3.151   4.052   0.323  0.00  0.00    +0.356 C 
ATOM     18  O   UNL     1       3.370   5.226   0.096  0.00  0.00    -0.243 OA
BRANCH  17  19
ATOM     19  O   UNL     1       4.176   3.205   0.544  0.00  0.00    -0.454 OA
BRANCH  19  20
ATOM     20  C   UNL     1       5.513   3.773   0.541  0.00  0.00    +0.106 C 
ATOM     21  C   UNL     1       5.585   4.913   1.559  0.00  0.00    +0.055 C 
ATOM     22  C   UNL     1       6.528   2.691   0.915  0.00  0.00    +0.055 C 
ATOM     23  C   UNL     1       5.834   4.313  -0.854  0.00  0.00    +0.055 C 
ENDBRANCH  19  20
ENDBRANCH  17  19
ENDBRANCH  12  17
ENDBRANCH   1  15
BRANCH   6  24
ATOM     24  C   UNL     1      -1.967   3.242   5.712  0.00  0.00    +0.043 A 
ATOM     25  C   UNL     1      -1.454   3.205   6.998  0.00  0.00    -0.022 A 
ATOM     26  C   UNL     1      -0.544   4.251   7.117  0.00  0.00    -0.015 A 
ATOM     27  C   UNL     1      -0.510   4.913   5.904  0.00  0.00    +0.128 A 
ATOM     28  N   UNL     1      -1.380   4.285   5.048  0.00  0.00    -0.349 N 
ATOM     29  H   UNL     1      -1.552   4.540   4.128  0.00  0.00    +0.166 HD
ATOM     30  C   UNL     1       0.260   4.597   8.343  0.00  0.00    +0.046 C 
ATOM     31  C   UNL     1      -1.816   2.214   8.074  0.00  0.00    +0.046 C 
BRANCH  27  32
ATOM     32  C   UNL     1       0.318   6.083   5.584  0.00  0.00    +0.356 C 
ATOM     33  O   UNL     1       1.008   6.593   6.446  0.00  0.00    -0.243 OA
BRANCH  32  34
ATOM     34  O   UNL     1       0.314   6.591   4.335  0.00  0.00    -0.454 OA
BRANCH  34  35
ATOM     35  C   UNL     1       1.039   7.832   4.126  0.00  0.00    +0.106 C 
ATOM     36  C   UNL     1       2.490   7.658   4.580  0.00  0.00    +0.055 C 
ATOM     37  C   UNL     1       1.010   8.195   2.640  0.00  0.00    +0.055 C 
ATOM     38  C   UNL     1       0.381   8.950   4.937  0.00  0.00    +0.055 C 
ENDBRANCH  34  35
ENDBRANCH  32  34
ENDBRANCH  27  32
ENDBRANCH   6  24
TORSDOF 8
