REMARK  Name = ZINC41394179
REMARK  6 active torsions:
REMARK  status: ('A' for Active; 'I' for Inactive)
REMARK    1  A    between atoms: C_1  and  C_2
REMARK    2  A    between atoms: C_5  and  C_8
REMARK    3  A    between atoms: C_8  and  N_9
REMARK    4  A    between atoms: N_23  and  C_24
REMARK    5  A    between atoms: C_24  and  C_25
REMARK    6  A    between atoms: C_24  and  C_26
REMARK                            x       y       z     vdW  Elec       q    Type
REMARK                         _______ _______ _______ _____ _____    ______ ____
ROOT
ATOM      1  N   UNL     1       1.476  -4.752   0.204  0.00  0.00    -0.311 N 
ATOM      2  C   UNL     1       1.730  -6.095   0.078  0.00  0.00    +0.200 A 
ATOM      3  N   UNL     1       0.738  -6.955   0.177  0.00  0.00    -0.208 NA
ATOM      4  C   UNL     1       0.954  -8.260   0.059  0.00  0.00    +0.117 A 
ATOM      5  C   UNL     1       2.236  -8.787  -0.175  0.00  0.00    +0.076 A 
ATOM      6  C   UNL     1       2.318 -10.244  -0.281  0.00  0.00    -0.023 A 
ATOM      7  C   UNL     1       1.168 -10.934  -0.146  0.00  0.00    -0.004 A 
ATOM      8  S   UNL     1      -0.078  -9.703   0.126  0.00  0.00    -0.073 S 
ATOM      9  C   UNL     1       0.987 -12.420  -0.213  0.00  0.00    +0.043 C 
ATOM     10  C   UNL     1       2.252 -13.035  -0.828  0.00  0.00    +0.005 C 
ATOM     11  C   UNL     1       3.478 -12.437  -0.131  0.00  0.00    +0.005 C 
ATOM     12  C   UNL     1       3.638 -10.970  -0.532  0.00  0.00    +0.037 C 
ATOM     13  C   UNL     1       3.294  -7.828  -0.278  0.00  0.00    +0.264 A 
ATOM     14  O   UNL     1       4.439  -8.192  -0.480  0.00  0.00    -0.267 OA
ATOM     15  N   UNL     1       3.005  -6.520  -0.153  0.00  0.00    -0.278 N 
ATOM     16  H   UNL     1       2.211  -4.118   0.211  0.00  0.00    +0.149 HD
ENDROOT
BRANCH  15  17
ATOM     17  C   UNL     1       4.082  -5.533  -0.263  0.00  0.00    +0.087 C 
ATOM     18  C   UNL     1       5.120  -5.787   0.832  0.00  0.00    +0.031 C 
ATOM     19  C   UNL     1       4.748  -5.655  -1.635  0.00  0.00    +0.031 C 
ENDBRANCH  15  17
BRANCH   1  20
ATOM     20  C   UNL     1       0.097  -4.275   0.329  0.00  0.00    +0.139 C 
BRANCH  20  25
ATOM     21  C   UNL     1       0.080   1.484   0.804  0.00  0.00    +0.044 C 
ATOM     22  C   UNL     1       0.085  -0.018   0.680  0.00  0.00    -0.050 A 
ATOM     23  C   UNL     1       0.013  -0.609  -0.568  0.00  0.00    +0.003 A 
ATOM     24  C   UNL     1       0.018  -1.987  -0.681  0.00  0.00    +0.005 A 
ATOM     25  C   UNL     1       0.093  -2.773   0.453  0.00  0.00    -0.030 A 
ATOM     26  C   UNL     1       0.165  -2.183   1.700  0.00  0.00    +0.005 A 
ATOM     27  C   UNL     1       0.166  -0.805   1.814  0.00  0.00    +0.003 A 
ENDBRANCH  20  25
ENDBRANCH   1  20
TORSDOF 3
