REMARK  Name = ZINC11664845
REMARK  10 active torsions:
REMARK  status: ('A' for Active; 'I' for Inactive)
REMARK    1  A    between atoms: C_1  and  C_2
REMARK    2  A    between atoms: C_2  and  C_3
REMARK    3  A    between atoms: C_3  and  C_4
REMARK    4  A    between atoms: C_4  and  C_5
REMARK    5  A    between atoms: C_9  and  C_11
REMARK    6  A    between atoms: C_11  and  N_63
REMARK    7  A    between atoms: C_15  and  C_18
REMARK    8  A    between atoms: C_18  and  N_19
REMARK    9  A    between atoms: C_20  and  C_22
REMARK   10  A    between atoms: C_22  and  C_25
REMARK                            x       y       z     vdW  Elec       q    Type
REMARK                         _______ _______ _______ _____ _____    ______ ____
ROOT
ATOM      1  C   UNL     1      -1.181  -5.483  -0.887  0.00  0.00    -0.078 C 
ATOM      2  C   UNL     1      -1.360  -4.200  -0.072  0.00  0.00    -0.018 C 
ATOM      3  C   UNL     1      -0.044  -3.417  -0.067  0.00  0.00    +0.001 C 
ATOM      4  C   UNL     1       0.366  -3.115  -1.511  0.00  0.00    -0.011 C 
ATOM      5  C   UNL     1       0.494  -4.429  -2.285  0.00  0.00    -0.073 C 
ATOM      6  N   UNL     1      -0.811  -5.124  -2.272  0.00  0.00    +0.384 N 
ATOM      7  H   UNL     1      -1.526  -4.495  -2.656  0.00  0.00    -0.081 HD
ENDROOT
BRANCH   6   8
ATOM      8  C   UNL     1      -0.744  -6.340  -3.108  0.00  0.00    -0.021 C 
BRANCH   8  13
ATOM      9  C   UNL     1       2.324  -8.111  -2.387  0.00  0.00    +0.107 A 
ATOM     10  N   UNL     1       1.471  -8.833  -1.630  0.00  0.00    -0.348 N 
ATOM     11  H   UNL     1       1.704  -9.621  -1.060  0.00  0.00    +0.166 HD
ATOM     12  C   UNL     1       0.227  -8.286  -1.788  0.00  0.00    +0.105 A 
ATOM     13  C   UNL     1       0.362  -7.248  -2.635  0.00  0.00    +0.043 A 
ATOM     14  N   UNL     1       1.653  -7.167  -2.989  0.00  0.00    -0.239 NA
BRANCH   9  15
ATOM     15  C   UNL     1       3.805  -8.357  -2.519  0.00  0.00    +0.074 C 
BRANCH  15  16
ATOM     16  C   UNL     1       4.166  -8.519  -3.997  0.00  0.00    +0.007 C 
BRANCH  16  18
ATOM     17  C   UNL     1       6.029  -8.931  -5.609  0.00  0.00    +0.004 C 
ATOM     18  C   UNL     1       5.669  -8.769  -4.131  0.00  0.00    -0.003 C 
ENDBRANCH  16  18
ENDBRANCH  15  16
ENDBRANCH   9  15
ENDBRANCH   8  13
ENDBRANCH   6   8
BRANCH   4  19
ATOM     19  C   UNL     1       1.710  -2.385  -1.519  0.00  0.00    +0.106 C 
BRANCH  19  20
ATOM     20  N   UNL     1       1.558  -1.075  -0.880  0.00  0.00    -0.314 N 
ATOM     21  C   UNL     1       2.618  -0.251  -0.772  0.00  0.00    +0.224 C 
ATOM     22  O   UNL     1       3.675  -0.551  -1.286  0.00  0.00    -0.275 OA
ATOM     23  H   UNL     1       0.694  -0.802  -0.535  0.00  0.00    +0.149 HD
BRANCH  21  24
ATOM     24  C   UNL     1       2.491   1.045  -0.013  0.00  0.00    +0.072 C 
ATOM     25  C   UNL     1       3.346   2.225  -0.481  0.00  0.00    +0.022 C 
ATOM     26  C   UNL     1       1.836   2.225  -0.734  0.00  0.00    +0.022 C 
BRANCH  24  27
ATOM     27  C   UNL     1       2.243   0.909   1.467  0.00  0.00    -0.032 A 
ATOM     28  C   UNL     1       2.736  -0.185   2.153  0.00  0.00    +0.006 A 
ATOM     29  C   UNL     1       2.503  -0.313   3.510  0.00  0.00    +0.020 A 
ATOM     30  C   UNL     1       1.786   0.660   4.183  0.00  0.00    +0.041 A 
ATOM     31  C   UNL     1       1.293   1.755   3.496  0.00  0.00    +0.020 A 
ATOM     32  C   UNL     1       1.522   1.879   2.138  0.00  0.00    +0.006 A 
ATOM     33 CL   UNL     1       1.500   0.504   5.888  0.00  0.00    -0.084 Cl
ENDBRANCH  24  27
ENDBRANCH  21  24
ENDBRANCH  19  20
ENDBRANCH   4  19
TORSDOF 9
