REMARK  Name = ZINC39534989
REMARK  8 active torsions:
REMARK  status: ('A' for Active; 'I' for Inactive)
REMARK    1  A    between atoms: C_1  and  C_2
REMARK    2  A    between atoms: C_7  and  N_12
REMARK    3  A    between atoms: C_9  and  C_11
REMARK    4  A    between atoms: C_13  and  C_15
REMARK    5  A    between atoms: C_15  and  N_16
REMARK    6  A    between atoms: C_19  and  C_23
REMARK    7  A    between atoms: C_19  and  C_30
REMARK    8  A    between atoms: C_23  and  C_24
REMARK                            x       y       z     vdW  Elec       q    Type
REMARK                         _______ _______ _______ _____ _____    ______ ____
ROOT
ATOM      1  N   UNL     1       1.473  -5.605   4.455  0.00  0.00    -0.215 N 
ATOM      2  C   UNL     1       0.434  -5.873   5.270  0.00  0.00    +0.252 C 
ATOM      3  O   UNL     1      -0.267  -5.072   5.851  0.00  0.00    -0.272 OA
ATOM      4  C   UNL     1       0.325  -7.384   5.311  0.00  0.00    +0.142 C 
ATOM      5  N   UNL     1       1.417  -7.834   4.431  0.00  0.00    -0.281 N 
ATOM      6  C   UNL     1       2.026  -6.725   3.975  0.00  0.00    +0.310 C 
ATOM      7  O   UNL     1       2.975  -6.738   3.216  0.00  0.00    -0.252 OA
ATOM      8  H   UNL     1       1.650  -8.752   4.219  0.00  0.00    +0.152 HD
ENDROOT
BRANCH   4   9
ATOM      9  C   UNL     1      -1.009  -7.834   4.773  0.00  0.00    -0.015 A 
ATOM     10  C   UNL     1      -2.084  -7.985   5.629  0.00  0.00    +0.006 A 
ATOM     11  C   UNL     1      -3.308  -8.398   5.135  0.00  0.00    +0.000 A 
ATOM     12  C   UNL     1      -3.457  -8.658   3.786  0.00  0.00    +0.000 A 
ATOM     13  C   UNL     1      -2.382  -8.506   2.930  0.00  0.00    +0.000 A 
ATOM     14  C   UNL     1      -1.159  -8.089   3.423  0.00  0.00    +0.006 A 
ENDBRANCH   4   9
BRANCH   1  15
ATOM     15  C   UNL     1       1.936  -4.254   4.128  0.00  0.00    +0.213 C 
BRANCH  15  17
ATOM     16  N   UNL     1       1.471  -2.526   2.420  0.00  0.00    -0.311 N 
ATOM     17  C   UNL     1       1.207  -3.754   2.907  0.00  0.00    +0.231 C 
ATOM     18  O   UNL     1       0.382  -4.458   2.364  0.00  0.00    -0.274 OA
ATOM     19  H   UNL     1       2.131  -1.963   2.855  0.00  0.00    +0.149 HD
BRANCH  16  25
ATOM     20  C   UNL     1      -0.019   1.526   0.010  0.00  0.00    +0.008 C 
ATOM     21  C   UNL     1       0.002  -0.004   0.002  0.00  0.00    -0.009 C 
ATOM     22  C   UNL     1       0.718  -0.497  -1.257  0.00  0.00    +0.003 C 
ATOM     23  C   UNL     1       0.739  -2.027  -1.265  0.00  0.00    +0.002 C 
ATOM     24  C   UNL     1       1.479  -2.534  -0.026  0.00  0.00    +0.022 C 
ATOM     25  C   UNL     1       0.763  -2.041   1.233  0.00  0.00    +0.076 C 
ATOM     26  C   UNL     1       0.742  -0.511   1.242  0.00  0.00    +0.009 C 
ATOM     27  C   UNL     1       0.026  -0.018   2.500  0.00  0.00    +0.009 C 
ENDBRANCH  16  25
ENDBRANCH  15  17
ENDBRANCH   1  15
BRANCH   4  28
ATOM     28  C   UNL     1       0.534  -7.901   6.736  0.00  0.00    +0.075 C 
BRANCH  28  29
ATOM     29  C   UNL     1       1.896  -7.483   7.227  0.00  0.00    -0.045 A 
ATOM     30  C   UNL     1       2.990  -8.301   7.011  0.00  0.00    +0.004 A 
ATOM     31  C   UNL     1       4.239  -7.917   7.462  0.00  0.00    +0.000 A 
ATOM     32  C   UNL     1       4.395  -6.716   8.128  0.00  0.00    +0.000 A 
ATOM     33  C   UNL     1       3.301  -5.898   8.342  0.00  0.00    +0.000 A 
ATOM     34  C   UNL     1       2.053  -6.279   7.888  0.00  0.00    +0.004 A 
ENDBRANCH  28  29
ENDBRANCH   4  28
TORSDOF 6
