REMARK  Name = ZINC39688674
REMARK  9 active torsions:
REMARK  status: ('A' for Active; 'I' for Inactive)
REMARK    1  A    between atoms: C_1  and  C_2
REMARK    2  A    between atoms: C_5  and  O_8
REMARK    3  A    between atoms: O_8  and  C_9
REMARK    4  A    between atoms: C_10  and  C_15
REMARK    5  A    between atoms: C_19  and  C_28
REMARK    6  A    between atoms: N_30  and  C_31
REMARK    7  A    between atoms: C_31  and  C_33
REMARK    8  A    between atoms: C_31  and  C_34
REMARK    9  A    between atoms: C_34  and  C_35
REMARK                            x       y       z     vdW  Elec       q    Type
REMARK                         _______ _______ _______ _____ _____    ______ ____
ROOT
ATOM      1  C   UNL     1       0.280  -6.847  -0.087  0.00  0.00    +0.252 C 
ATOM      2  O   UNL     1       0.248  -6.268  -1.156  0.00  0.00    -0.270 OA
ATOM      3  N   UNL     1       0.312  -8.194  -0.051  0.00  0.00    -0.296 N 
ATOM      4  C   UNL     1       0.420  -9.068   1.141  0.00  0.00    +0.121 C 
ATOM      5  C   UNL     1      -0.526 -10.252   0.844  0.00  0.00    +0.100 C 
ATOM      6  C   UNL     1      -0.634 -10.293  -0.690  0.00  0.00    -0.004 C 
ATOM      7  C   UNL     1       0.241  -9.136  -1.194  0.00  0.00    +0.115 C 
ATOM      8  C   UNL     1      -0.110 -11.623  -1.222  0.00  0.00    -0.010 C 
ATOM      9  C   UNL     1      -0.281 -11.663  -2.743  0.00  0.00    -0.082 C 
ATOM     10  N   UNL     1      -1.700 -11.503  -3.082  0.00  0.00    +0.379 N 
ATOM     11  C   UNL     1      -2.173 -10.182  -2.649  0.00  0.00    -0.082 C 
ATOM     12  C   UNL     1      -2.082 -10.080  -1.124  0.00  0.00    -0.010 C 
ATOM     13  H   UNL     1      -1.818 -11.590  -4.080  0.00  0.00    -0.086 HD
ATOM     14  H   UNL     1      -2.238 -12.219  -2.619  0.00  0.00    -0.086 HD
ENDROOT
BRANCH   1  16
ATOM     15  C   UNL     1      -0.455  -4.886   1.280  0.00  0.00    +0.233 A 
ATOM     16  C   UNL     1       0.282  -6.075   1.170  0.00  0.00    +0.099 A 
ATOM     17  C   UNL     1       1.020  -6.515   2.275  0.00  0.00    +0.020 A 
ATOM     18  C   UNL     1       0.989  -5.755   3.431  0.00  0.00    +0.021 A 
ATOM     19  C   UNL     1       0.238  -4.594   3.462  0.00  0.00    +0.114 A 
ATOM     20  N   UNL     1      -0.445  -4.194   2.407  0.00  0.00    -0.220 NA
BRANCH  15  21
ATOM     21  O   UNL     1      -1.175  -4.441   0.223  0.00  0.00    -0.437 OA
BRANCH  21  26
ATOM     22  C   UNL     1      -3.709   0.570   0.671  0.00  0.00    +0.044 C 
ATOM     23  C   UNL     1      -3.031  -0.771   0.551  0.00  0.00    -0.050 A 
ATOM     24  C   UNL     1      -1.651  -0.848   0.551  0.00  0.00    +0.007 A 
ATOM     25  C   UNL     1      -1.027  -2.076   0.441  0.00  0.00    +0.046 A 
ATOM     26  C   UNL     1      -1.787  -3.232   0.331  0.00  0.00    +0.130 A 
ATOM     27  C   UNL     1      -3.172  -3.151   0.332  0.00  0.00    +0.046 A 
ATOM     28  C   UNL     1      -3.791  -1.921   0.447  0.00  0.00    +0.007 A 
ENDBRANCH  21  26
ENDBRANCH  15  21
ENDBRANCH   1  16
BRANCH   5  29
ATOM     29  C   UNL     1       0.062 -11.538   1.365  0.00  0.00    +0.218 C 
ATOM     30  O   UNL     1       1.264 -11.648   1.489  0.00  0.00    -0.275 OA
ATOM     31  N   UNL     1      -0.746 -12.566   1.692  0.00  0.00    -0.312 N 
ATOM     32  H   UNL     1      -1.707 -12.477   1.592  0.00  0.00    +0.149 HD
BRANCH  31  33
ATOM     33  C   UNL     1      -0.174 -13.815   2.198  0.00  0.00    +0.074 C 
ATOM     34  C   UNL     1       0.047 -13.700   3.708  0.00  0.00    +0.028 C 
BRANCH  33  35
ATOM     35  C   UNL     1      -1.135 -14.970   1.911  0.00  0.00    +0.057 C 
BRANCH  35  36
ATOM     36  C   UNL     1      -1.258 -15.162   0.421  0.00  0.00    -0.045 A 
ATOM     37  C   UNL     1      -2.227 -14.477  -0.287  0.00  0.00    +0.006 A 
ATOM     38  C   UNL     1      -2.340 -14.652  -1.653  0.00  0.00    +0.038 A 
ATOM     39  C   UNL     1      -1.481 -15.515  -2.313  0.00  0.00    +0.123 A 
ATOM     40  C   UNL     1      -0.511 -16.201  -1.603  0.00  0.00    +0.038 A 
ATOM     41  C   UNL     1      -0.397 -16.020  -0.238  0.00  0.00    +0.006 A 
ATOM     42  F   UNL     1      -1.591 -15.687  -3.648  0.00  0.00    -0.205 F 
ENDBRANCH  35  36
ENDBRANCH  33  35
ENDBRANCH  31  33
ENDBRANCH   5  29
TORSDOF 7
