REMARK  Name = ZINC36586995
REMARK  12 active torsions:
REMARK  status: ('A' for Active; 'I' for Inactive)
REMARK    1  A    between atoms: C_1  and  C_2
REMARK    2  A    between atoms: C_2  and  C_3
REMARK    3  A    between atoms: C_2  and  C_4
REMARK    4  A    between atoms: C_2  and  N_5
REMARK    5  A    between atoms: N_5  and  C_6
REMARK    6  A    between atoms: C_6  and  C_8
REMARK    7  A    between atoms: C_6  and  C_18
REMARK    8  A    between atoms: C_10  and  N_15
REMARK    9  A    between atoms: N_20  and  C_21
REMARK   10  A    between atoms: C_27  and  C_29
REMARK   11  A    between atoms: C_33  and  O_36
REMARK   12  A    between atoms: C_34  and  O_35
REMARK                            x       y       z     vdW  Elec       q    Type
REMARK                         _______ _______ _______ _____ _____    ______ ____
ROOT
ATOM      1  C   UNL     1       2.436  -0.548  -1.678  0.00  0.00    +0.194 C 
ENDROOT
BRANCH   1   2
ATOM      2  C   UNL     1       2.294   0.952  -1.722  0.00  0.00    +0.002 A 
ATOM      3  C   UNL     1       1.310   1.575  -0.977  0.00  0.00    +0.040 A 
ATOM      4  C   UNL     1       1.179   2.950  -1.018  0.00  0.00    +0.127 A 
ATOM      5  C   UNL     1       2.032   3.703  -1.804  0.00  0.00    +0.034 A 
ATOM      6  C   UNL     1       3.016   3.081  -2.549  0.00  0.00    +0.022 A 
ATOM      7  C   UNL     1       3.151   1.705  -2.504  0.00  0.00    +0.047 A 
ATOM      8 CL   UNL     1       4.392   0.923  -3.433  0.00  0.00    -0.083 Cl
BRANCH   4   9
ATOM      9  N   UNL     1       0.126   3.617  -0.221  0.00  0.00    +0.056 N 
ATOM     10  O   UNL     1      -0.620   2.959   0.466  0.00  0.00    -0.126 OA
ATOM     11  O   UNL     1       0.011   4.820  -0.257  0.00  0.00    -0.126 OA
ENDBRANCH   4   9
ENDBRANCH   1   2
BRANCH   1  12
ATOM     12  C   UNL     1       3.278  -0.938  -0.490  0.00  0.00    +0.238 C 
ATOM     13  O   UNL     1       2.779  -1.544   0.434  0.00  0.00    -0.273 OA
ATOM     14  N   UNL     1       4.586  -0.614  -0.456  0.00  0.00    -0.311 N 
ATOM     15  H   UNL     1       4.985  -0.129  -1.195  0.00  0.00    +0.149 HD
BRANCH  14  16
ATOM     16  C   UNL     1       5.404  -0.993   0.699  0.00  0.00    +0.073 C 
ATOM     17  C   UNL     1       5.263   0.066   1.794  0.00  0.00    +0.022 C 
ATOM     18  C   UNL     1       6.117  -0.329   3.000  0.00  0.00    +0.002 C 
ATOM     19  C   UNL     1       7.583  -0.431   2.575  0.00  0.00    +0.000 C 
ATOM     20  C   UNL     1       7.725  -1.490   1.480  0.00  0.00    +0.002 C 
ATOM     21  C   UNL     1       6.870  -1.094   0.274  0.00  0.00    +0.022 C 
ENDBRANCH  14  16
ENDBRANCH   1  12
BRANCH   1  22
ATOM     22  N   UNL     1       1.111  -1.161  -1.560  0.00  0.00    -0.277 N 
ATOM     23  C   UNL     1       0.370  -0.955  -0.453  0.00  0.00    +0.252 C 
ATOM     24  O   UNL     1      -0.795  -1.302  -0.428  0.00  0.00    -0.270 OA
BRANCH  23  25
ATOM     25  C   UNL     1       0.972  -0.309   0.729  0.00  0.00    +0.082 A 
ATOM     26  C   UNL     1       2.157   0.423   0.602  0.00  0.00    +0.017 A 
ATOM     27  C   UNL     1       2.716   1.025   1.707  0.00  0.00    +0.005 A 
ATOM     28  C   UNL     1       2.110   0.911   2.948  0.00  0.00    +0.049 A 
ATOM     29  C   UNL     1       0.937   0.190   3.090  0.00  0.00    +0.159 A 
ATOM     30  C   UNL     1       0.357  -0.419   1.981  0.00  0.00    +0.171 A 
BRANCH  30  31
ATOM     31  O   UNL     1      -0.797  -1.122   2.115  0.00  0.00    -0.503 OA
ATOM     32  H   UNL     1      -0.666  -2.059   2.317  0.00  0.00    +0.292 HD
ENDBRANCH  30  31
BRANCH  29  33
ATOM     33  O   UNL     1       0.348   0.083   4.311  0.00  0.00    -0.503 OA
ATOM     34  H   UNL     1      -0.291   0.782   4.502  0.00  0.00    +0.292 HD
ENDBRANCH  29  33
ENDBRANCH  23  25
BRANCH  22  36
ATOM     35  C   UNL     1       1.732  -2.368  -3.594  0.00  0.00    +0.031 C 
ATOM     36  C   UNL     1       0.592  -1.998  -2.644  0.00  0.00    +0.030 C 
ATOM     37  C   UNL     1      -0.483  -1.227  -3.413  0.00  0.00    +0.031 C 
ATOM     38  C   UNL     1      -0.017  -3.273  -2.058  0.00  0.00    +0.031 C 
ENDBRANCH  22  36
ENDBRANCH   1  22
TORSDOF 9
