REMARK  Name = ZINC13639883
REMARK  3 active torsions:
REMARK  status: ('A' for Active; 'I' for Inactive)
REMARK    1  A    between atoms: C_3  and  C_9
REMARK    2  A    between atoms: C_4  and  O_8
REMARK    3  A    between atoms: C_6  and  O_7
REMARK                            x       y       z     vdW  Elec       q    Type
REMARK                         _______ _______ _______ _____ _____    ______ ____
ROOT
ATOM      1  C   UNL     1      -1.234   6.472  -0.584  0.00  0.00    +0.108 C 
ATOM      2  C   UNL     1      -2.436   5.918   0.166  0.00  0.00    +0.029 C 
ATOM      3  C   UNL     1      -2.246   6.095   1.693  0.00  0.00    +0.033 C 
ATOM      4  C   UNL     1      -2.994   4.909   2.274  0.00  0.00    -0.030 C 
ATOM      5  C   UNL     1      -3.120   3.963   1.378  0.00  0.00    -0.023 C 
ATOM      6  C   UNL     1      -2.489   4.382   0.046  0.00  0.00    +0.050 C 
ATOM      7  C   UNL     1      -1.087   3.798   0.026  0.00  0.00    +0.002 A 
ATOM      8  C   UNL     1       0.055   4.575   0.001  0.00  0.00    +0.051 A 
ATOM      9  C   UNL     1       1.310   3.968  -0.039  0.00  0.00    +0.064 A 
ATOM     10  C   UNL     1       1.418   2.592  -0.053  0.00  0.00    +0.043 A 
ATOM     11  C   UNL     1       0.275   1.813  -0.027  0.00  0.00    +0.061 A 
ATOM     12  C   UNL     1      -0.969   2.413   0.007  0.00  0.00    +0.065 A 
ATOM     13 CL   UNL     1      -2.399   1.428   0.033  0.00  0.00    -0.082 Cl
ATOM     14 CL   UNL     1       0.404   0.082  -0.043  0.00  0.00    -0.082 Cl
ATOM     15 CL   UNL     1       2.743   4.947  -0.073  0.00  0.00    -0.082 Cl
ATOM     16  N   UNL     1       0.004   5.971   0.016  0.00  0.00    -0.335 N 
ATOM     17  H   UNL     1       0.812   6.368  -0.439  0.00  0.00    +0.147 HD
ENDROOT
BRANCH   1  20
ATOM     18  C   UNL     1      -2.536   5.106  -3.853  0.00  0.00    +0.046 A 
ATOM     19  C   UNL     1      -2.469   5.498  -2.530  0.00  0.00    +0.012 A 
ATOM     20  C   UNL     1      -1.302   6.039  -2.026  0.00  0.00    +0.015 A 
ATOM     21  C   UNL     1      -0.190   6.180  -2.845  0.00  0.00    +0.125 A 
ATOM     22  C   UNL     1      -0.253   5.782  -4.171  0.00  0.00    +0.091 A 
ATOM     23  C   UNL     1      -1.427   5.244  -4.676  0.00  0.00    +0.120 A 
BRANCH  23  24
ATOM     24  O   UNL     1      -1.492   4.853  -5.976  0.00  0.00    -0.507 OA
ATOM     25  H   UNL     1      -1.239   3.932  -6.123  0.00  0.00    +0.292 HD
ENDBRANCH  23  24
BRANCH  21  26
ATOM     26  O   UNL     1       0.959   6.706  -2.346  0.00  0.00    -0.506 OA
ATOM     27  H   UNL     1       1.563   6.050  -1.973  0.00  0.00    +0.292 HD
ENDBRANCH  21  26
ENDBRANCH   1  20
TORSDOF 3
