REMARK  Name = ZINC43225711
REMARK  13 active torsions:
REMARK  status: ('A' for Active; 'I' for Inactive)
REMARK    1  A    between atoms: C_1  and  C_2
REMARK    2  A    between atoms: C_2  and  C_3
REMARK    3  A    between atoms: C_3  and  C_4
REMARK    4  A    between atoms: C_5  and  C_22
REMARK    5  A    between atoms: C_6  and  C_19
REMARK    6  A    between atoms: C_7  and  C_18
REMARK    7  A    between atoms: N_8  and  C_9
REMARK    8  A    between atoms: C_9  and  C_10
REMARK    9  A    between atoms: C_10  and  C_11
REMARK   10  A    between atoms: C_14  and  O_17
REMARK   11  A    between atoms: C_23  and  C_35
REMARK   12  A    between atoms: N_24  and  C_34
REMARK   13  A    between atoms: N_25  and  C_28
REMARK                            x       y       z     vdW  Elec       q    Type
REMARK                         _______ _______ _______ _____ _____    ______ ____
ROOT
ATOM      1  C   UNL     1      -1.590  -2.359  -0.012  0.00  0.00    +0.028 A 
ATOM      2  C   UNL     1      -1.351  -3.018  -1.174  0.00  0.00    +0.022 A 
ATOM      3  C   UNL     1      -1.038  -4.408  -0.797  0.00  0.00    +0.065 A 
ATOM      4  C   UNL     1      -1.119  -4.459   0.567  0.00  0.00    +0.029 A 
ATOM      5  N   UNL     1      -1.441  -3.235   1.025  0.00  0.00    -0.346 N 
ATOM      6  C   UNL     1      -0.879  -5.680   1.416  0.00  0.00    +0.064 C 
ENDROOT
BRANCH   2   7
ATOM      7  C   UNL     1      -1.396  -2.454  -2.545  0.00  0.00    +0.071 A 
ATOM      8  C   UNL     1      -0.359  -1.893  -3.223  0.00  0.00    +0.046 A 
ATOM      9  N   UNL     1      -0.805  -1.497  -4.450  0.00  0.00    -0.283 N 
ATOM     10  N   UNL     1      -2.164  -1.808  -4.573  0.00  0.00    -0.217 N 
ATOM     11  C   UNL     1      -2.566  -2.401  -3.430  0.00  0.00    +0.280 A 
ATOM     12  O   UNL     1      -3.684  -2.811  -3.179  0.00  0.00    -0.265 OA
ATOM     13  C   UNL     1       0.011  -0.848  -5.479  0.00  0.00    +0.171 C 
ATOM     14  C   UNL     1       1.048  -1.734  -2.706  0.00  0.00    +0.066 C 
BRANCH  10  15
ATOM     15  C   UNL     1      -2.966  -1.553  -5.690  0.00  0.00    +0.067 A 
ATOM     16  C   UNL     1      -2.520  -1.897  -6.960  0.00  0.00    +0.028 A 
ATOM     17  C   UNL     1      -3.315  -1.644  -8.060  0.00  0.00    +0.002 A 
ATOM     18  C   UNL     1      -4.552  -1.048  -7.900  0.00  0.00    +0.000 A 
ATOM     19  C   UNL     1      -4.998  -0.703  -6.637  0.00  0.00    +0.002 A 
ATOM     20  C   UNL     1      -4.211  -0.959  -5.531  0.00  0.00    +0.028 A 
ENDBRANCH  10  15
ENDBRANCH   2   7
BRANCH   3  21
ATOM     21  C   UNL     1      -0.708  -5.517  -1.705  0.00  0.00    +0.244 C 
ATOM     22  O   UNL     1       0.451  -5.727  -2.012  0.00  0.00    -0.270 OA
ATOM     23  N   UNL     1      -1.688  -6.300  -2.197  0.00  0.00    -0.325 N 
ATOM     24  H   UNL     1      -2.612  -6.133  -1.953  0.00  0.00    +0.145 HD
ATOM     25  H   UNL     1      -1.470  -7.032  -2.796  0.00  0.00    +0.145 HD
ENDBRANCH   3  21
BRANCH   1  26
ATOM     26  C   UNL     1      -1.953  -0.902   0.113  0.00  0.00    +0.054 C 
BRANCH  26  28
ATOM     27  C   UNL     1      -1.045   1.411   0.370  0.00  0.00    +0.004 C 
ATOM     28  C   UNL     1      -0.677  -0.068   0.243  0.00  0.00    +0.003 C 
ENDBRANCH  26  28
ENDBRANCH   1  26
BRANCH   5  29
ATOM     29  C   UNL     1      -1.613  -2.891   2.439  0.00  0.00    +0.126 C 
BRANCH  29  30
ATOM     30  C   UNL     1      -3.071  -3.112   2.844  0.00  0.00    +0.056 C 
BRANCH  30  31
ATOM     31  C   UNL     1      -3.248  -2.759   4.299  0.00  0.00    -0.045 A 
ATOM     32  C   UNL     1      -3.067  -3.726   5.271  0.00  0.00    +0.007 A 
ATOM     33  C   UNL     1      -3.228  -3.405   6.604  0.00  0.00    +0.045 A 
ATOM     34  C   UNL     1      -3.572  -2.111   6.968  0.00  0.00    +0.117 A 
ATOM     35  C   UNL     1      -3.752  -1.142   5.991  0.00  0.00    +0.045 A 
ATOM     36  C   UNL     1      -3.584  -1.468   4.659  0.00  0.00    +0.007 A 
BRANCH  34  37
ATOM     37  O   UNL     1      -3.731  -1.792   8.280  0.00  0.00    -0.507 OA
ATOM     38  H   UNL     1      -2.922  -1.488   8.712  0.00  0.00    +0.292 HD
ENDBRANCH  34  37
ENDBRANCH  30  31
ENDBRANCH  29  30
ENDBRANCH   5  29
TORSDOF 9
