REMARK  Name = ZINC05625271
REMARK  8 active torsions:
REMARK  status: ('A' for Active; 'I' for Inactive)
REMARK    1  A    between atoms: C_1  and  C_2
REMARK    2  A    between atoms: C_2  and  C_30
REMARK    3  A    between atoms: C_4  and  N_9
REMARK    4  A    between atoms: C_12  and  O_14
REMARK    5  A    between atoms: C_15  and  C_22
REMARK    6  A    between atoms: C_19  and  O_21
REMARK    7  A    between atoms: C_27  and  O_28
REMARK    8  A    between atoms: O_28  and  C_29
REMARK                            x       y       z     vdW  Elec       q    Type
REMARK                         _______ _______ _______ _____ _____    ______ ____
ROOT
ATOM      1  N   UNL     1      -3.476  -0.649   1.361  0.00  0.00    -0.240 N 
ATOM      2  C   UNL     1      -4.650   0.071   1.423  0.00  0.00    +0.163 A 
ATOM      3  C   UNL     1      -5.670  -0.841   1.449  0.00  0.00    +0.076 A 
ATOM      4  C   UNL     1      -5.094  -2.128   1.411  0.00  0.00    +0.238 A 
ATOM      5  N   UNL     1      -3.795  -2.007   1.353  0.00  0.00    -0.131 NA
ATOM      6  C   UNL     1      -7.152  -0.623   1.499  0.00  0.00    +0.119 C 
ATOM      7  S   UNL     1      -7.609   0.839   2.438  0.00  0.00    -0.138 S 
ATOM      8  C   UNL     1      -6.980   2.239   1.501  0.00  0.00    +0.165 C 
ATOM      9  C   UNL     1      -5.505   2.326   1.506  0.00  0.00    +0.199 C 
ATOM     10  N   UNL     1      -4.646   1.415   1.453  0.00  0.00    -0.197 NA
ENDROOT
BRANCH   1  14
ATOM     11  C   UNL     1      -0.019   1.526   0.010  0.00  0.00    +0.041 C 
ATOM     12  C   UNL     1       0.002  -0.004   0.002  0.00  0.00    +0.066 C 
ATOM     13  C   UNL     1      -1.434  -0.534   0.014  0.00  0.00    +0.061 C 
ATOM     14  C   UNL     1      -2.124  -0.086   1.306  0.00  0.00    +0.114 C 
ATOM     15  C   UNL     1      -1.311  -0.582   2.506  0.00  0.00    +0.055 C 
ATOM     16  C   UNL     1       0.120  -0.050   2.397  0.00  0.00    +0.162 C 
ATOM     17  O   UNL     1       0.693  -0.478   1.160  0.00  0.00    -0.374 OA
ATOM     18  C   UNL     1       0.718  -0.498  -1.257  0.00  0.00    +0.041 C 
ENDBRANCH   1  14
BRANCH   6  19
ATOM     19  C   UNL     1      -7.799  -1.827   2.133  0.00  0.00    +0.012 A 
ATOM     20  C   UNL     1      -8.085  -1.827   3.485  0.00  0.00    +0.008 A 
ATOM     21  C   UNL     1      -8.678  -2.932   4.068  0.00  0.00    +0.001 A 
ATOM     22  C   UNL     1      -8.988  -4.039   3.299  0.00  0.00    +0.004 A 
ATOM     23  C   UNL     1      -8.705  -4.043   1.947  0.00  0.00    +0.046 A 
ATOM     24  C   UNL     1      -8.114  -2.934   1.359  0.00  0.00    +0.125 A 
BRANCH  24  25
ATOM     25  O   UNL     1      -7.840  -2.934   0.028  0.00  0.00    -0.495 OA
ATOM     26  C   UNL     1      -8.192  -4.108  -0.707  0.00  0.00    +0.277 C 
ENDBRANCH  24  25
ENDBRANCH   6  19
BRANCH   4  27
ATOM     27  O   UNL     1      -5.780  -3.302   1.426  0.00  0.00    -0.491 OA
ATOM     28  H   UNL     1      -6.015  -3.632   0.548  0.00  0.00    +0.294 HD
ENDBRANCH   4  27
BRANCH   9  29
ATOM     29  O   UNL     1      -5.006   3.577   1.578  0.00  0.00    -0.495 OA
ATOM     30  H   UNL     1      -4.040   3.616   1.580  0.00  0.00    +0.293 HD
ENDBRANCH   9  29
TORSDOF 5
