REMARK  Name = ZINC54974416
REMARK  10 active torsions:
REMARK  status: ('A' for Active; 'I' for Inactive)
REMARK    1  A    between atoms: C_1  and  C_2
REMARK    2  A    between atoms: C_2  and  C_4
REMARK    3  A    between atoms: C_2  and  N_14
REMARK    4  A    between atoms: C_8  and  S_10
REMARK    5  A    between atoms: S_10  and  N_13
REMARK    6  A    between atoms: N_17  and  C_18
REMARK    7  A    between atoms: C_18  and  C_20
REMARK    8  A    between atoms: C_18  and  C_25
REMARK    9  A    between atoms: C_25  and  C_26
REMARK   10  A    between atoms: C_25  and  C_27
REMARK                            x       y       z     vdW  Elec       q    Type
REMARK                         _______ _______ _______ _____ _____    ______ ____
ROOT
ATOM      1  N   UNL     1       0.711  -0.489   1.189  0.00  0.00    -0.293 N 
ATOM      2  C   UNL     1       0.051  -0.633   2.355  0.00  0.00    +0.301 C 
ATOM      3  O   UNL     1      -1.132  -0.361   2.423  0.00  0.00    -0.253 OA
ATOM      4  N   UNL     1       0.703  -1.080   3.447  0.00  0.00    -0.292 N 
ATOM      5  H   UNL     1       1.654  -0.707   1.135  0.00  0.00    +0.151 HD
ATOM      6  H   UNL     1       1.647  -1.298   3.394  0.00  0.00    +0.151 HD
ENDROOT
BRANCH   1   8
ATOM      7  C   UNL     1      -0.019   1.526   0.010  0.00  0.00    +0.033 C 
ATOM      8  C   UNL     1       0.002  -0.004   0.002  0.00  0.00    +0.102 C 
BRANCH   8   9
ATOM      9  C   UNL     1       0.707  -0.490  -1.238  0.00  0.00    -0.026 A 
ATOM     10  C   UNL     1       2.089  -0.511  -1.284  0.00  0.00    +0.005 A 
ATOM     11  C   UNL     1       2.736  -0.957  -2.421  0.00  0.00    +0.002 A 
ATOM     12  C   UNL     1       2.002  -1.382  -3.512  0.00  0.00    +0.028 A 
ATOM     13  C   UNL     1       0.620  -1.362  -3.466  0.00  0.00    +0.105 A 
ATOM     14  C   UNL     1      -0.027  -0.920  -2.327  0.00  0.00    +0.034 A 
BRANCH  13  15
ATOM     15  S   UNL     1      -0.316  -1.904  -4.857  0.00  0.00    +0.056 S 
ATOM     16  O   UNL     1      -1.586  -1.274  -4.762  0.00  0.00    -0.153 OA
ATOM     17  O   UNL     1       0.524  -1.758  -5.994  0.00  0.00    -0.153 OA
BRANCH  15  18
ATOM     18  N   UNL     1      -0.578  -3.528  -4.668  0.00  0.00    -0.204 NA
ATOM     19  H   UNL     1      -1.379  -3.936  -5.032  0.00  0.00    +0.144 HD
ATOM     20  H   UNL     1       0.070  -4.072  -4.194  0.00  0.00    +0.144 HD
ENDBRANCH  15  18
ENDBRANCH  13  15
ENDBRANCH   8   9
ENDBRANCH   1   8
BRANCH   4  21
ATOM     21  C   UNL     1      -0.014  -1.237   4.715  0.00  0.00    +0.114 C 
BRANCH  21  22
ATOM     22  C   UNL     1       0.962  -1.138   5.859  0.00  0.00    +0.010 A 
ATOM     23  C   UNL     1       0.811  -0.528   7.061  0.00  0.00    +0.013 A 
ATOM     24  C   UNL     1       1.853  -0.567   7.968  0.00  0.00    +0.008 A 
ATOM     25  C   UNL     1       2.995  -1.213   7.630  0.00  0.00    +0.045 A 
ATOM     26  S   UNL     1       2.615  -1.802   5.988  0.00  0.00    -0.100 S 
ENDBRANCH  21  22
BRANCH  21  27
ATOM     27  C   UNL     1      -0.701  -2.603   4.747  0.00  0.00    +0.008 C 
ATOM     28  C   UNL     1      -1.450  -2.767   6.072  0.00  0.00    +0.009 C 
ATOM     29  C   UNL     1      -1.692  -2.703   3.586  0.00  0.00    +0.009 C 
ENDBRANCH  21  27
ENDBRANCH   4  21
TORSDOF 7
