REMARK  Name = ZINC05608016
REMARK  9 active torsions:
REMARK  status: ('A' for Active; 'I' for Inactive)
REMARK    1  A    between atoms: C_1  and  C_2
REMARK    2  A    between atoms: C_2  and  O_3
REMARK    3  A    between atoms: O_3  and  C_4
REMARK    4  A    between atoms: C_6  and  C_11
REMARK    5  A    between atoms: C_9  and  O_10
REMARK    6  A    between atoms: C_12  and  N_20
REMARK    7  A    between atoms: C_21  and  C_22
REMARK    8  A    between atoms: C_25  and  S_28
REMARK    9  A    between atoms: S_28  and  C_29
REMARK                            x       y       z     vdW  Elec       q    Type
REMARK                         _______ _______ _______ _____ _____    ______ ____
ROOT
ATOM      1  C   UNL     1       0.625  -4.952  -0.019  0.00  0.00    +0.091 A 
ATOM      2  C   UNL     1       0.800  -6.075  -0.825  0.00  0.00    +0.163 A 
ATOM      3  N   UNL     1       2.034  -6.596  -0.506  0.00  0.00    -0.286 N 
ATOM      4  C   UNL     1       2.722  -7.679  -0.973  0.00  0.00    +0.094 A 
ATOM      5  C   UNL     1       3.943  -7.980  -0.484  0.00  0.00    +0.018 A 
ATOM      6  C   UNL     1       4.523  -7.181   0.514  0.00  0.00    +0.005 A 
ATOM      7  C   UNL     1       3.848  -6.098   0.988  0.00  0.00    +0.045 A 
ATOM      8  C   UNL     1       2.574  -5.795   0.468  0.00  0.00    +0.117 A 
ATOM      9  N   UNL     1       1.719  -4.817   0.741  0.00  0.00    -0.338 N 
ATOM     10  H   UNL     1       1.863  -4.114   1.393  0.00  0.00    +0.167 HD
ENDROOT
BRANCH   1  13
ATOM     11  C   UNL     1      -1.498  -1.849   0.006  0.00  0.00    +0.162 A 
ATOM     12  C   UNL     1      -0.390  -2.677  -0.003  0.00  0.00    +0.059 A 
ATOM     13  C   UNL     1      -0.558  -4.062  -0.008  0.00  0.00    +0.006 A 
ATOM     14  C   UNL     1      -1.842  -4.606  -0.004  0.00  0.00    +0.014 A 
ATOM     15  C   UNL     1      -2.944  -3.776   0.005  0.00  0.00    +0.050 A 
ATOM     16  C   UNL     1      -2.778  -2.399   0.016  0.00  0.00    +0.158 A 
BRANCH  16  17
ATOM     17  O   UNL     1      -3.867  -1.585   0.030  0.00  0.00    -0.503 OA
ATOM     18  H   UNL     1      -4.190  -1.344  -0.849  0.00  0.00    +0.292 HD
ENDBRANCH  16  17
BRANCH  11  19
ATOM     19  O   UNL     1      -1.339  -0.499   0.012  0.00  0.00    -0.489 OA
BRANCH  19  21
ATOM     20  C   UNL     1      -0.019   1.526   0.010  0.00  0.00    +0.048 C 
ATOM     21  C   UNL     1       0.002  -0.004   0.002  0.00  0.00    +0.226 C 
ENDBRANCH  19  21
ENDBRANCH  11  19
ENDBRANCH   1  13
BRANCH   2  22
ATOM     22  N   UNL     1      -0.070  -6.557  -1.738  0.00  0.00    -0.235 NA
ATOM     23  C   UNL     1      -0.969  -7.438  -1.384  0.00  0.00    +0.121 C 
BRANCH  23  24
ATOM     24  C   UNL     1      -1.916  -7.962  -2.377  0.00  0.00    -0.007 A 
ATOM     25  C   UNL     1      -1.852  -7.525  -3.706  0.00  0.00    +0.010 A 
ATOM     26  C   UNL     1      -2.740  -8.020  -4.634  0.00  0.00    +0.015 A 
ATOM     27  C   UNL     1      -3.701  -8.953  -4.253  0.00  0.00    +0.008 A 
ATOM     28  C   UNL     1      -3.768  -9.390  -2.932  0.00  0.00    +0.015 A 
ATOM     29  C   UNL     1      -2.880  -8.905  -2.000  0.00  0.00    +0.010 A 
BRANCH  27  30
ATOM     30  S   UNL     1      -4.836  -9.582  -5.445  0.00  0.00    -0.129 S 
ATOM     31  C   UNL     1      -5.867 -10.738  -4.501  0.00  0.00    +0.090 C 
ENDBRANCH  27  30
ENDBRANCH  23  24
ENDBRANCH   2  22
TORSDOF 7
