REMARK  Name = ZINC02793660
REMARK  13 active torsions:
REMARK  status: ('A' for Active; 'I' for Inactive)
REMARK    1  A    between atoms: C_1  and  C_2
REMARK    2  A    between atoms: C_2  and  C_3
REMARK    3  A    between atoms: C_2  and  C_4
REMARK    4  A    between atoms: C_4  and  N_5
REMARK    5  A    between atoms: N_5  and  C_6
REMARK    6  A    between atoms: C_6  and  N_8
REMARK    7  A    between atoms: N_8  and  N_9
REMARK    8  A    between atoms: C_10  and  C_12
REMARK    9  A    between atoms: C_17  and  C_32
REMARK   10  A    between atoms: C_20  and  C_23
REMARK   11  A    between atoms: C_26  and  C_29
REMARK   12  A    between atoms: C_29  and  C_30
REMARK   13  A    between atoms: C_29  and  C_31
REMARK                            x       y       z     vdW  Elec       q    Type
REMARK                         _______ _______ _______ _____ _____    ______ ____
ROOT
ATOM      1  C   UNL     1       1.116   1.926   0.002  0.00  0.00    +0.150 A 
ATOM      2  C   UNL     1      -0.013   1.076   0.008  0.00  0.00    +0.078 A 
ATOM      3  C   UNL     1      -1.111   1.857   0.017  0.00  0.00    +0.119 A 
ATOM      4  N   UNL     1      -0.705   3.161   0.027  0.00  0.00    -0.238 N 
ATOM      5  N   UNL     1       0.690   3.177   0.013  0.00  0.00    -0.164 NA
ATOM      6  C   UNL     1      -1.627   4.300   0.046  0.00  0.00    +0.215 C 
ATOM      7  C   UNL     1      -2.997   3.820   0.538  0.00  0.00    +0.063 C 
ATOM      8  C   UNL     1      -3.426   2.574  -0.245  0.00  0.00    +0.104 C 
ATOM      9  N   UNL     1      -2.460   1.492   0.029  0.00  0.00    -0.322 N 
ATOM     10  H   UNL     1      -2.819   0.471   0.227  0.00  0.00    +0.148 HD
ENDROOT
BRANCH   8  11
ATOM     11  C   UNL     1      -4.802   2.147   0.196  0.00  0.00    -0.027 A 
ATOM     12  C   UNL     1      -4.960   1.419   1.360  0.00  0.00    +0.006 A 
ATOM     13  C   UNL     1      -6.223   1.032   1.768  0.00  0.00    +0.004 A 
ATOM     14  C   UNL     1      -7.327   1.365   1.005  0.00  0.00    -0.045 A 
ATOM     15  C   UNL     1      -7.169   2.088  -0.162  0.00  0.00    +0.004 A 
ATOM     16  C   UNL     1      -5.906   2.480  -0.566  0.00  0.00    +0.006 A 
BRANCH  14  17
ATOM     17  C   UNL     1      -8.704   0.938   1.447  0.00  0.00    +0.013 C 
ATOM     18  C   UNL     1      -8.761  -0.588   1.534  0.00  0.00    +0.012 C 
ATOM     19  C   UNL     1      -9.008   1.540   2.820  0.00  0.00    +0.012 C 
ENDBRANCH  14  17
ENDBRANCH   8  11
BRANCH   1  21
ATOM     20  N   UNL     1       3.515   2.410  -0.019  0.00  0.00    -0.230 N 
ATOM     21  C   UNL     1       2.528   1.492  -0.014  0.00  0.00    +0.280 C 
ATOM     22  O   UNL     1       2.800   0.307  -0.023  0.00  0.00    -0.267 OA
ATOM     23  H   UNL     1       3.269   3.482  -0.010  0.00  0.00    +0.173 HD
BRANCH  20  24
ATOM     24  N   UNL     1       4.854   1.998  -0.034  0.00  0.00    -0.246 N 
ATOM     25  H   UNL     1       5.100   0.926  -0.042  0.00  0.00    +0.172 HD
BRANCH  24  26
ATOM     26  C   UNL     1       5.841   2.916  -0.038  0.00  0.00    +0.147 C 
ATOM     27  S   UNL     1       7.478   2.413  -0.057  0.00  0.00    -0.017 S 
BRANCH  26  28
ATOM     28  N   UNL     1       5.540   4.230  -0.028  0.00  0.00    -0.325 N 
ATOM     29  H   UNL     1       4.489   4.553  -0.016  0.00  0.00    +0.148 HD
BRANCH  28  30
ATOM     30  C   UNL     1       6.613   5.227  -0.033  0.00  0.00    +0.106 C 
BRANCH  30  32
ATOM     31  C   UNL     1       5.255   6.849   1.296  0.00  0.00    +0.009 C 
ATOM     32  C   UNL     1       6.004   6.631  -0.020  0.00  0.00    -0.000 C 
ATOM     33  C   UNL     1       7.119   7.671  -0.150  0.00  0.00    +0.009 C 
ENDBRANCH  30  32
ENDBRANCH  28  30
ENDBRANCH  26  28
ENDBRANCH  24  26
ENDBRANCH  20  24
ENDBRANCH   1  21
BRANCH   6  34
ATOM     34  C   UNL     1      -1.092   5.378   0.991  0.00  0.00    +0.412 C 
ATOM     35  F   UNL     1       0.164   5.804   0.548  0.00  0.00    -0.168 F 
ATOM     36  F   UNL     1      -1.974   6.463   1.007  0.00  0.00    -0.168 F 
ATOM     37  F   UNL     1      -0.977   4.851   2.282  0.00  0.00    -0.168 F 
ENDBRANCH   6  34
TORSDOF 9
