REMARK  Name = ZINC11087552
REMARK  9 active torsions:
REMARK  status: ('A' for Active; 'I' for Inactive)
REMARK    1  A    between atoms: C_4  and  N_27
REMARK    2  A    between atoms: C_5  and  C_7
REMARK    3  A    between atoms: C_7  and  O_9
REMARK    4  A    between atoms: O_9  and  C_10
REMARK    5  A    between atoms: C_10  and  C_11
REMARK    6  A    between atoms: C_15  and  C_24
REMARK    7  A    between atoms: N_27  and  C_28
REMARK    8  A    between atoms: C_31  and  O_34
REMARK    9  A    between atoms: O_34  and  C_35
REMARK                            x       y       z     vdW  Elec       q    Type
REMARK                         _______ _______ _______ _____ _____    ______ ____
ROOT
ATOM      1  C   UNL     1       0.127   1.090  -2.932  0.00  0.00    +0.341 C 
ATOM      2  O   UNL     1       1.133   0.464  -3.201  0.00  0.00    -0.245 OA
ENDROOT
BRANCH   1   7
ATOM      3  C   UNL     1      -2.523   3.055  -4.717  0.00  0.00    +0.001 A 
ATOM      4  C   UNL     1      -2.207   2.800  -6.043  0.00  0.00    +0.002 A 
ATOM      5  C   UNL     1      -1.136   1.993  -6.363  0.00  0.00    +0.024 A 
ATOM      6  C   UNL     1      -0.361   1.431  -5.355  0.00  0.00    +0.045 A 
ATOM      7  C   UNL     1      -0.682   1.683  -4.011  0.00  0.00    +0.080 A 
ATOM      8  C   UNL     1      -1.771   2.504  -3.704  0.00  0.00    +0.017 A 
BRANCH   6   9
ATOM      9  N   UNL     1       0.721   0.623  -5.674  0.00  0.00    -0.314 N 
ATOM     10  H   UNL     1       1.549   1.021  -5.986  0.00  0.00    +0.152 HD
BRANCH   9  11
ATOM     11  C   UNL     1       0.618  -0.767  -5.547  0.00  0.00    +0.032 A 
ATOM     12  C   UNL     1      -0.531  -1.332  -5.008  0.00  0.00    +0.027 A 
ATOM     13  C   UNL     1      -0.634  -2.704  -4.887  0.00  0.00    +0.047 A 
ATOM     14  C   UNL     1       0.414  -3.517  -5.295  0.00  0.00    +0.127 A 
ATOM     15  C   UNL     1       1.563  -2.954  -5.828  0.00  0.00    +0.047 A 
ATOM     16  C   UNL     1       1.666  -1.582  -5.954  0.00  0.00    +0.027 A 
BRANCH  14  17
ATOM     17  O   UNL     1       0.313  -4.868  -5.171  0.00  0.00    -0.434 OA
BRANCH  17  18
ATOM     18  C   UNL     1      -0.899  -5.380  -4.614  0.00  0.00    +0.541 C 
ATOM     19  F   UNL     1      -1.070  -4.870  -3.322  0.00  0.00    -0.166 F 
ATOM     20  F   UNL     1      -1.979  -4.995  -5.414  0.00  0.00    -0.166 F 
ENDBRANCH  17  18
ENDBRANCH  14  17
ENDBRANCH   9  11
ENDBRANCH   6   9
ENDBRANCH   1   7
BRANCH   1  21
ATOM     21  O   UNL     1      -0.249   1.242  -1.647  0.00  0.00    -0.452 OA
BRANCH  21  22
ATOM     22  C   UNL     1       0.595   0.630  -0.636  0.00  0.00    +0.328 C 
BRANCH  22  23
ATOM     23  C   UNL     1       0.022   0.903   0.730  0.00  0.00    +0.258 C 
ATOM     24  O   UNL     1      -0.947   1.623   0.849  0.00  0.00    -0.272 OA
ATOM     25  N   UNL     1       0.585   0.347   1.821  0.00  0.00    -0.261 N 
ATOM     26  C   UNL     1       1.806  -0.471   1.715  0.00  0.00    +0.168 C 
ATOM     27  C   UNL     1       1.629  -1.689   2.633  0.00  0.00    +0.276 C 
ATOM     28  O   UNL     1       1.400  -1.231   3.968  0.00  0.00    -0.476 OA
ATOM     29  C   UNL     1       0.450  -0.277   4.155  0.00  0.00    +0.143 A 
ATOM     30  C   UNL     1       0.031   0.531   3.099  0.00  0.00    +0.078 A 
ATOM     31  C   UNL     1      -0.937   1.498   3.305  0.00  0.00    +0.027 A 
ATOM     32  C   UNL     1      -1.485   1.668   4.564  0.00  0.00    +0.002 A 
ATOM     33  C   UNL     1      -1.069   0.871   5.614  0.00  0.00    +0.004 A 
ATOM     34  C   UNL     1      -0.105  -0.099   5.413  0.00  0.00    +0.047 A 
BRANCH  27  35
ATOM     35  C   UNL     1       2.876  -2.534   2.596  0.00  0.00    +0.253 C 
ATOM     36  O   UNL     1       3.551  -2.662   3.596  0.00  0.00    -0.272 OA
ATOM     37  N   UNL     1       3.241  -3.147   1.453  0.00  0.00    -0.326 N 
ATOM     38  H   UNL     1       2.701  -3.045   0.654  0.00  0.00    +0.145 HD
ATOM     39  H   UNL     1       4.044  -3.692   1.430  0.00  0.00    +0.145 HD
ENDBRANCH  27  35
ENDBRANCH  22  23
ENDBRANCH  21  22
ENDBRANCH   1  21
TORSDOF 9
