REMARK  Name = ZINC43554133
REMARK  14 active torsions:
REMARK  status: ('A' for Active; 'I' for Inactive)
REMARK    1  A    between atoms: C_1  and  C_2
REMARK    2  A    between atoms: C_2  and  C_4
REMARK    3  A    between atoms: C_2  and  N_8
REMARK    4  A    between atoms: C_4  and  C_5
REMARK    5  A    between atoms: C_4  and  C_6
REMARK    6  A    between atoms: C_4  and  C_7
REMARK    7  A    between atoms: C_9  and  C_11
REMARK    8  A    between atoms: C_11  and  C_12
REMARK    9  A    between atoms: C_14  and  O_31
REMARK   10  A    between atoms: C_20  and  C_30
REMARK   11  A    between atoms: C_23  and  O_29
REMARK   12  A    between atoms: C_25  and  C_26
REMARK   13  A    between atoms: C_25  and  C_27
REMARK   14  A    between atoms: C_27  and  O_28
REMARK                            x       y       z     vdW  Elec       q    Type
REMARK                         _______ _______ _______ _____ _____    ______ ____
ROOT
ATOM      1  C   UNL     1      -0.334  -1.032  -4.553  0.00  0.00    +0.032 C 
ATOM      2  C   UNL     1      -1.508  -1.830  -3.992  0.00  0.00    +0.119 C 
ATOM      3  C   UNL     1      -1.141  -3.296  -3.778  0.00  0.00    +0.032 C 
ATOM      4  C   UNL     1      -0.632  -3.915  -5.085  0.00  0.00    +0.007 C 
ATOM      5  C   UNL     1       0.595  -3.128  -5.548  0.00  0.00    +0.006 C 
ATOM      6  C   UNL     1       0.214  -1.685  -5.828  0.00  0.00    -0.023 C 
ATOM      7  C   UNL     1       1.430  -0.902  -6.328  0.00  0.00    +0.010 C 
ATOM      8  C   UNL     1       1.979  -1.569  -7.591  0.00  0.00    +0.032 C 
ATOM      9  C   UNL     1       2.452  -2.979  -7.260  0.00  0.00    +0.123 C 
ATOM     10  C   UNL     1       1.336  -3.836  -6.666  0.00  0.00    +0.020 C 
ATOM     11  C   UNL     1       0.404  -4.321  -7.776  0.00  0.00    +0.016 C 
ATOM     12  C   UNL     1      -0.891  -1.583  -6.891  0.00  0.00    +0.012 C 
ENDROOT
BRANCH   9  13
ATOM     13  O   UNL     1       3.542  -2.914  -6.334  0.00  0.00    -0.391 OA
ATOM     14  H   UNL     1       4.309  -2.427  -6.664  0.00  0.00    +0.210 HD
ENDBRANCH   9  13
BRANCH   2  15
ATOM     15  O   UNL     1      -1.895  -1.260  -2.733  0.00  0.00    -0.391 OA
ATOM     16  H   UNL     1      -2.637  -1.712  -2.309  0.00  0.00    +0.210 HD
ENDBRANCH   2  15
BRANCH   1  17
ATOM     17  C   UNL     1       0.747  -0.876  -3.488  0.00  0.00    +0.102 C 
BRANCH  17  19
ATOM     18  N   UNL     1       0.980   0.226  -1.286  0.00  0.00    -0.312 N 
ATOM     19  C   UNL     1       0.267   0.071  -2.419  0.00  0.00    +0.214 C 
ATOM     20  O   UNL     1      -0.762   0.694  -2.579  0.00  0.00    -0.276 OA
ATOM     21  H   UNL     1       1.802  -0.272  -1.159  0.00  0.00    +0.149 HD
BRANCH  18  23
ATOM     22  C   UNL     1       0.992   2.564  -0.569  0.00  0.00    +0.028 C 
ATOM     23  C   UNL     1       0.513   1.147  -0.247  0.00  0.00    +0.075 C 
BRANCH  23  24
ATOM     24  C   UNL     1       1.075   0.714   1.109  0.00  0.00    -0.020 C 
ATOM     25  C   UNL     1       0.587   1.676   2.194  0.00  0.00    +0.012 C 
ATOM     26  C   UNL     1       0.596  -0.703   1.430  0.00  0.00    +0.012 C 
ATOM     27  C   UNL     1       2.604   0.736   1.057  0.00  0.00    +0.012 C 
ENDBRANCH  23  24
ENDBRANCH  18  23
ENDBRANCH  17  19
ENDBRANCH   1  17
BRANCH  10  28
ATOM     28  C   UNL     1       2.018  -5.090  -6.065  0.00  0.00    +0.165 C 
BRANCH  28  29
ATOM     29  O   UNL     1       2.728  -5.784  -7.093  0.00  0.00    -0.394 OA
ATOM     30  H   UNL     1       3.181  -6.582  -6.788  0.00  0.00    +0.209 HD
ENDBRANCH  28  29
ENDBRANCH  10  28
TORSDOF 8
