REMARK  Name = ZINC06194742
REMARK  13 active torsions:
REMARK  status: ('A' for Active; 'I' for Inactive)
REMARK    1  A    between atoms: C_1  and  C_2
REMARK    2  A    between atoms: C_6  and  C_15
REMARK    3  A    between atoms: C_13  and  C_14
REMARK    4  A    between atoms: C_15  and  C_17
REMARK    5  A    between atoms: C_15  and  N_71
REMARK    6  A    between atoms: N_21  and  C_22
REMARK    7  A    between atoms: C_22  and  C_23
REMARK    8  A    between atoms: C_22  and  C_24
REMARK    9  A    between atoms: C_22  and  C_25
REMARK   10  A    between atoms: C_26  and  C_27
REMARK   11  A    between atoms: C_26  and  N_71
REMARK   12  A    between atoms: C_33  and  C_34
REMARK   13  A    between atoms: C_33  and  N_71
REMARK                            x       y       z     vdW  Elec       q    Type
REMARK                         _______ _______ _______ _____ _____    ______ ____
ROOT
ATOM      1  C   UNL     1       0.648   2.181   0.894  0.00  0.00    +0.040 C 
ENDROOT
BRANCH   1   7
ATOM      2  C   UNL     1      -2.570   2.645   7.606  0.00  0.00    +0.044 C 
ATOM      3  C   UNL     1      -1.696   3.226   6.525  0.00  0.00    -0.047 A 
ATOM      4  C   UNL     1      -1.484   2.521   5.374  0.00  0.00    +0.013 A 
ATOM      5  C   UNL     1      -0.672   3.060   4.370  0.00  0.00    -0.001 A 
ATOM      6  C   UNL     1      -0.428   2.334   3.123  0.00  0.00    +0.017 A 
ATOM      7  C   UNL     1       0.372   2.904   2.188  0.00  0.00    +0.011 A 
ATOM      8  C   UNL     1       0.942   4.174   2.419  0.00  0.00    +0.251 A 
ATOM      9  O   UNL     1       1.654   4.670   1.563  0.00  0.00    -0.268 OA
ATOM     10  N   UNL     1       0.720   4.850   3.559  0.00  0.00    -0.322 N 
ATOM     11  H   UNL     1       1.127   5.721   3.686  0.00  0.00    +0.169 HD
ATOM     12  C   UNL     1      -0.080   4.324   4.552  0.00  0.00    +0.049 A 
ATOM     13  C   UNL     1      -0.310   5.023   5.732  0.00  0.00    +0.030 A 
ATOM     14  C   UNL     1      -1.113   4.472   6.707  0.00  0.00    -0.046 A 
ATOM     15  C   UNL     1      -1.361   5.232   7.985  0.00  0.00    +0.044 C 
ENDBRANCH   1   7
BRANCH   1  16
ATOM     16  C   UNL     1       0.118   2.994  -0.258  0.00  0.00    +0.143 A 
ATOM     17  N   UNL     1       0.649   4.084  -0.756  0.00  0.00    -0.115 NA
ATOM     18  N   UNL     1      -0.095   4.480  -1.731  0.00  0.00    -0.023 NA
ATOM     19  N   UNL     1      -1.091   3.675  -1.863  0.00  0.00    -0.043 NA
ATOM     20  N   UNL     1      -0.995   2.746  -0.973  0.00  0.00    -0.225 N 
BRANCH  20  21
ATOM     21  C   UNL     1      -1.923   1.629  -0.777  0.00  0.00    +0.059 C 
ATOM     22  C   UNL     1      -2.422   1.628   0.669  0.00  0.00    +0.036 C 
ATOM     23  C   UNL     1      -3.113   1.783  -1.727  0.00  0.00    +0.036 C 
ATOM     24  C   UNL     1      -1.204   0.311  -1.070  0.00  0.00    +0.036 C 
ENDBRANCH  20  21
ENDBRANCH   1  16
BRANCH   1  25
ATOM     25  N   UNL     1       2.108   2.020   0.734  0.00  0.00    +0.395 N 
ATOM     26  H   UNL     1       2.535   2.946   0.614  0.00  0.00    -0.079 HD
BRANCH  25  27
ATOM     27  C   UNL     1       2.398   1.200  -0.461  0.00  0.00    -0.041 C 
BRANCH  27  28
ATOM     28  C   UNL     1       2.442   2.105  -1.665  0.00  0.00    -0.064 A 
ATOM     29  C   UNL     1       1.337   2.213  -2.490  0.00  0.00    +0.002 A 
ATOM     30  C   UNL     1       1.376   3.048  -3.591  0.00  0.00    +0.000 A 
ATOM     31  C   UNL     1       2.523   3.765  -3.875  0.00  0.00    +0.000 A 
ATOM     32  C   UNL     1       3.630   3.652  -3.054  0.00  0.00    +0.000 A 
ATOM     33  C   UNL     1       3.589   2.822  -1.949  0.00  0.00    +0.002 A 
ENDBRANCH  27  28
ENDBRANCH  25  27
BRANCH  25  34
ATOM     34  C   UNL     1       2.681   1.380   1.937  0.00  0.00    -0.040 C 
BRANCH  34  35
ATOM     35  C   UNL     1       4.181   1.519   1.892  0.00  0.00    -0.046 A 
ATOM     36  C   UNL     1       4.969   0.477   1.427  0.00  0.00    +0.005 A 
ATOM     37  C   UNL     1       6.344   0.652   1.399  0.00  0.00    +0.020 A 
ATOM     38  C   UNL     1       6.881   1.846   1.843  0.00  0.00    +0.111 A 
ATOM     39  N   UNL     1       6.101   2.813   2.283  0.00  0.00    -0.263 NA
ATOM     40  C   UNL     1       4.788   2.684   2.319  0.00  0.00    +0.112 A 
ENDBRANCH  34  35
ENDBRANCH  25  34
ENDBRANCH   1  25
TORSDOF 8
