REMARK  Name = ZINC18195771
REMARK  7 active torsions:
REMARK  status: ('A' for Active; 'I' for Inactive)
REMARK    1  A    between atoms: C_4  and  C_7
REMARK    2  A    between atoms: C_7  and  O_8
REMARK    3  A    between atoms: O_8  and  C_9
REMARK    4  A    between atoms: C_13  and  C_15
REMARK    5  A    between atoms: C_15  and  C_17
REMARK    6  A    between atoms: C_15  and  O_31
REMARK    7  A    between atoms: N_21  and  C_24
REMARK                            x       y       z     vdW  Elec       q    Type
REMARK                         _______ _______ _______ _____ _____    ______ ____
ROOT
ATOM      1  C   UNL     1       7.507  -2.840   4.289  0.00  0.00    +0.164 C 
ENDROOT
BRANCH   1   2
ATOM      2  C   UNL     1       7.190  -4.292   4.653  0.00  0.00    +0.174 C 
ATOM      3  C   UNL     1       5.693  -4.513   4.708  0.00  0.00    +0.126 C 
ATOM      4  N   UNL     1       5.409  -4.870   5.916  0.00  0.00    -0.161 NA
ATOM      5  N   UNL     1       6.529  -4.931   6.739  0.00  0.00    -0.159 N 
ATOM      6  C   UNL     1       7.653  -4.601   6.063  0.00  0.00    +0.252 C 
ATOM      7  O   UNL     1       8.788  -4.559   6.492  0.00  0.00    -0.273 OA
ATOM      8  N   UNL     1       4.801  -4.361   3.665  0.00  0.00    -0.345 N 
ATOM      9  H   UNL     1       5.120  -4.087   2.790  0.00  0.00    +0.143 HD
ATOM     10  H   UNL     1       3.856  -4.528   3.806  0.00  0.00    +0.143 HD
BRANCH   5  11
ATOM     11  C   UNL     1       6.498  -5.291   8.090  0.00  0.00    +0.060 A 
ATOM     12  C   UNL     1       7.672  -5.318   8.831  0.00  0.00    +0.025 A 
ATOM     13  C   UNL     1       7.638  -5.673  10.165  0.00  0.00    +0.002 A 
ATOM     14  C   UNL     1       6.435  -6.003  10.763  0.00  0.00    +0.000 A 
ATOM     15  C   UNL     1       5.264  -5.978  10.028  0.00  0.00    +0.002 A 
ATOM     16  C   UNL     1       5.291  -5.618   8.695  0.00  0.00    +0.025 A 
ENDBRANCH   5  11
ENDBRANCH   1   2
BRANCH   1  21
ATOM     17  C   UNL     1       5.319  -1.605   1.466  0.00  0.00    +0.121 A 
ATOM     18  C   UNL     1       6.048  -2.007   0.357  0.00  0.00    +0.045 A 
ATOM     19  C   UNL     1       7.245  -2.676   0.525  0.00  0.00    +0.004 A 
ATOM     20  C   UNL     1       7.716  -2.945   1.797  0.00  0.00    +0.006 A 
ATOM     21  C   UNL     1       6.991  -2.545   2.904  0.00  0.00    -0.015 A 
ATOM     22  C   UNL     1       5.796  -1.871   2.742  0.00  0.00    +0.051 A 
BRANCH  17  23
ATOM     23  O   UNL     1       4.141  -0.946   1.304  0.00  0.00    -0.487 OA
BRANCH  23  24
ATOM     24  C   UNL     1       3.711  -0.707  -0.038  0.00  0.00    +0.264 C 
BRANCH  24  28
ATOM     25  C   UNL     1      -0.017   1.378   0.010  0.00  0.00    +0.000 A 
ATOM     26  C   UNL     1       1.171   2.086   0.002  0.00  0.00    +0.000 A 
ATOM     27  C   UNL     1       2.377   1.411  -0.013  0.00  0.00    +0.007 A 
ATOM     28  C   UNL     1       2.396   0.029  -0.020  0.00  0.00    -0.010 A 
ATOM     29  C   UNL     1       1.208  -0.679  -0.012  0.00  0.00    +0.007 A 
ATOM     30  C   UNL     1       0.002  -0.004   0.002  0.00  0.00    +0.000 A 
ENDBRANCH  24  28
ENDBRANCH  23  24
ENDBRANCH  17  23
ENDBRANCH   1  21
BRANCH   1  31
ATOM     31  O   UNL     1       8.921  -2.637   4.323  0.00  0.00    -0.386 OA
ATOM     32  H   UNL     1       9.414  -3.199   3.710  0.00  0.00    +0.210 HD
ENDBRANCH   1  31
TORSDOF 7
