REMARK  Name = ZINC35118947
REMARK  8 active torsions:
REMARK  status: ('A' for Active; 'I' for Inactive)
REMARK    1  A    between atoms: C_1  and  C_2
REMARK    2  A    between atoms: C_3  and  C_22
REMARK    3  A    between atoms: C_4  and  C_21
REMARK    4  A    between atoms: C_5  and  S_10
REMARK    5  A    between atoms: C_6  and  C_9
REMARK    6  A    between atoms: C_7  and  C_8
REMARK    7  A    between atoms: S_10  and  N_13
REMARK    8  A    between atoms: C_17  and  O_20
REMARK                            x       y       z     vdW  Elec       q    Type
REMARK                         _______ _______ _______ _____ _____    ______ ____
ROOT
ATOM      1  C   UNL     1      -1.510   1.115   0.218  0.00  0.00    +0.044 C 
ATOM      2  C   UNL     1      -0.864  -0.242   0.107  0.00  0.00    -0.044 A 
ATOM      3  C   UNL     1      -0.466  -0.719  -1.128  0.00  0.00    -0.043 A 
ATOM      4  C   UNL     1       0.127  -1.964  -1.230  0.00  0.00    -0.021 A 
ATOM      5  C   UNL     1       0.322  -2.731  -0.096  0.00  0.00    +0.112 A 
ATOM      6  C   UNL     1      -0.075  -2.253   1.139  0.00  0.00    -0.021 A 
ATOM      7  C   UNL     1      -0.664  -1.007   1.241  0.00  0.00    -0.043 A 
ATOM      8  C   UNL     1      -1.092  -0.484   2.588  0.00  0.00    +0.044 C 
ATOM      9  C   UNL     1       0.138  -3.090   2.374  0.00  0.00    +0.046 C 
ATOM     10  C   UNL     1       0.560  -2.485  -2.576  0.00  0.00    +0.046 C 
ATOM     11  C   UNL     1      -0.679   0.117  -2.363  0.00  0.00    +0.044 C 
ENDROOT
BRANCH   5  12
ATOM     12  S   UNL     1       1.077  -4.318  -0.226  0.00  0.00    +0.061 S 
ATOM     13  O   UNL     1       1.805  -4.323  -1.446  0.00  0.00    -0.153 OA
ATOM     14  O   UNL     1       1.691  -4.580   1.029  0.00  0.00    -0.153 OA
BRANCH  12  15
ATOM     15  N   UNL     1      -0.141  -5.427  -0.398  0.00  0.00    -0.174 NA
ATOM     16  C   UNL     1      -0.690  -6.122   0.774  0.00  0.00    +0.109 C 
ATOM     17  C   UNL     1      -2.211  -5.936   0.790  0.00  0.00    +0.020 C 
ATOM     18  C   UNL     1      -2.792  -6.401  -0.547  0.00  0.00    +0.034 C 
ATOM     19  C   UNL     1      -2.213  -5.551  -1.680  0.00  0.00    +0.130 C 
ATOM     20  C   UNL     1      -0.697  -5.729  -1.724  0.00  0.00    +0.140 C 
BRANCH  19  21
ATOM     21  O   UNL     1      -2.780  -5.966  -2.925  0.00  0.00    -0.390 OA
ATOM     22  H   UNL     1      -3.742  -5.880  -2.967  0.00  0.00    +0.210 HD
ENDBRANCH  19  21
ENDBRANCH  12  15
ENDBRANCH   5  12
TORSDOF 3
