REMARK  Name = ZINC39597487
REMARK  8 active torsions:
REMARK  status: ('A' for Active; 'I' for Inactive)
REMARK    1  A    between atoms: C_1  and  C_2
REMARK    2  A    between atoms: C_3  and  C_8
REMARK    3  A    between atoms: C_4  and  C_7
REMARK    4  A    between atoms: C_12  and  C_21
REMARK    5  A    between atoms: N_23  and  C_24
REMARK    6  A    between atoms: C_24  and  C_25
REMARK    7  A    between atoms: C_30  and  O_31
REMARK    8  A    between atoms: O_31  and  C_32
REMARK                            x       y       z     vdW  Elec       q    Type
REMARK                         _______ _______ _______ _____ _____    ______ ____
ROOT
ATOM      1  C   UNL     1       0.029  -0.415  -2.746  0.00  0.00    +0.252 C 
ATOM      2  O   UNL     1       1.059  -0.161  -3.340  0.00  0.00    -0.270 OA
ATOM      3  N   UNL     1      -1.162  -0.209  -3.343  0.00  0.00    -0.296 N 
ATOM      4  C   UNL     1      -2.513  -0.450  -2.784  0.00  0.00    +0.121 C 
ATOM      5  C   UNL     1      -3.361   0.741  -3.283  0.00  0.00    +0.100 C 
ATOM      6  C   UNL     1      -2.637   1.235  -4.547  0.00  0.00    -0.004 C 
ATOM      7  C   UNL     1      -1.416   0.318  -4.706  0.00  0.00    +0.115 C 
ATOM      8  C   UNL     1      -2.183   2.680  -4.365  0.00  0.00    -0.010 C 
ATOM      9  C   UNL     1      -1.517   3.167  -5.655  0.00  0.00    -0.082 C 
ATOM     10  N   UNL     1      -2.470   3.069  -6.767  0.00  0.00    +0.379 N 
ATOM     11  C   UNL     1      -2.831   1.664  -6.995  0.00  0.00    -0.082 C 
ATOM     12  C   UNL     1      -3.552   1.113  -5.762  0.00  0.00    -0.010 C 
ATOM     13  H   UNL     1      -3.301   3.596  -6.544  0.00  0.00    -0.086 HD
ATOM     14  H   UNL     1      -2.050   3.447  -7.603  0.00  0.00    -0.086 HD
ENDROOT
BRANCH   1  17
ATOM     15  C   UNL     1       0.045   1.330  -0.019  0.00  0.00    +0.070 C 
ATOM     16  C   UNL     1       0.090  -0.172  -0.134  0.00  0.00    +0.093 A 
ATOM     17  C   UNL     1       0.082  -0.950  -1.374  0.00  0.00    +0.101 A 
ATOM     18  C   UNL     1       0.134  -2.266  -1.014  0.00  0.00    +0.147 A 
ATOM     19  O   UNL     1       0.171  -2.330   0.319  0.00  0.00    -0.359 OA
ATOM     20  N   UNL     1       0.147  -1.020   0.850  0.00  0.00    -0.083 NA
ATOM     21  C   UNL     1       0.147  -3.442  -1.958  0.00  0.00    +0.090 C 
ENDBRANCH   1  17
BRANCH   5  22
ATOM     22  C   UNL     1      -4.757   0.286  -3.620  0.00  0.00    +0.218 C 
ATOM     23  O   UNL     1      -4.947  -0.843  -4.021  0.00  0.00    -0.275 OA
ATOM     24  N   UNL     1      -5.796   1.133  -3.474  0.00  0.00    -0.311 N 
ATOM     25  H   UNL     1      -5.644   2.035  -3.153  0.00  0.00    +0.149 HD
BRANCH  24  26
ATOM     26  C   UNL     1      -7.153   0.690  -3.801  0.00  0.00    +0.143 C 
BRANCH  26  27
ATOM     27  C   UNL     1      -8.122   1.817  -3.553  0.00  0.00    +0.011 A 
ATOM     28  C   UNL     1      -8.866   1.846  -2.389  0.00  0.00    +0.009 A 
ATOM     29  C   UNL     1      -9.756   2.880  -2.162  0.00  0.00    +0.001 A 
ATOM     30  C   UNL     1      -9.903   3.887  -3.097  0.00  0.00    +0.004 A 
ATOM     31  C   UNL     1      -9.161   3.863  -4.262  0.00  0.00    +0.046 A 
ATOM     32  C   UNL     1      -8.264   2.830  -4.491  0.00  0.00    +0.125 A 
BRANCH  32  33
ATOM     33  O   UNL     1      -7.529   2.807  -5.634  0.00  0.00    -0.495 OA
ATOM     34  C   UNL     1      -7.727   3.882  -6.554  0.00  0.00    +0.277 C 
ENDBRANCH  32  33
ENDBRANCH  26  27
ENDBRANCH  24  26
ENDBRANCH   5  22
TORSDOF 5
