REMARK  Name = ZINC59293649
REMARK  10 active torsions:
REMARK  status: ('A' for Active; 'I' for Inactive)
REMARK    1  A    between atoms: C_1  and  C_2
REMARK    2  A    between atoms: C_2  and  O_3
REMARK    3  A    between atoms: O_3  and  C_4
REMARK    4  A    between atoms: C_4  and  C_6
REMARK    5  A    between atoms: C_7  and  N_33
REMARK    6  A    between atoms: C_19  and  C_31
REMARK    7  A    between atoms: C_20  and  C_22
REMARK    8  A    between atoms: C_25  and  O_30
REMARK    9  A    between atoms: C_26  and  O_28
REMARK   10  A    between atoms: O_28  and  C_29
REMARK                            x       y       z     vdW  Elec       q    Type
REMARK                         _______ _______ _______ _____ _____    ______ ____
ROOT
ATOM      1  C   UNL     1      -2.790  -2.389  -0.081  0.00  0.00    +0.085 C 
ATOM      2  C   UNL     1      -2.943  -3.743  -0.087  0.00  0.00    +0.106 C 
ATOM      3  N   UNL     1      -4.206  -4.303  -0.018  0.00  0.00    -0.216 N 
ATOM      4  C   UNL     1      -4.342  -5.553   0.445  0.00  0.00    +0.258 C 
ATOM      5  O   UNL     1      -3.330  -6.213   0.580  0.00  0.00    -0.269 OA
ATOM      6  C   UNL     1      -5.613  -6.185   0.800  0.00  0.00    +0.051 A 
ATOM      7  C   UNL     1      -5.633  -7.276   1.679  0.00  0.00    +0.014 A 
ATOM      8  C   UNL     1      -6.831  -7.860   2.023  0.00  0.00    +0.001 A 
ATOM      9  C   UNL     1      -8.027  -7.379   1.512  0.00  0.00    +0.001 A 
ATOM     10  C   UNL     1      -8.029  -6.308   0.640  0.00  0.00    +0.016 A 
ATOM     11  C   UNL     1      -6.830  -5.716   0.276  0.00  0.00    +0.026 A 
ATOM     12  S   UNL     1      -6.794  -4.369  -0.865  0.00  0.00    -0.072 S 
ATOM     13  C   UNL     1      -5.292  -3.550  -0.426  0.00  0.00    +0.095 C 
ATOM     14  C   UNL     1      -5.219  -2.193  -0.460  0.00  0.00    +0.070 C 
ATOM     15  C   UNL     1      -3.987  -1.485   0.048  0.00  0.00    +0.102 C 
ENDROOT
BRANCH  15  16
ATOM     16  C   UNL     1      -4.179  -1.112   1.495  0.00  0.00    -0.031 A 
ATOM     17  C   UNL     1      -4.394  -2.099   2.439  0.00  0.00    +0.008 A 
ATOM     18  C   UNL     1      -4.570  -1.762   3.768  0.00  0.00    +0.049 A 
ATOM     19  C   UNL     1      -4.531  -0.432   4.157  0.00  0.00    +0.158 A 
ATOM     20  C   UNL     1      -4.314   0.561   3.206  0.00  0.00    +0.162 A 
ATOM     21  C   UNL     1      -4.133   0.216   1.877  0.00  0.00    +0.054 A 
BRANCH  20  22
ATOM     22  O   UNL     1      -4.275   1.867   3.583  0.00  0.00    -0.491 OA
ATOM     23  C   UNL     1      -4.048   2.832   2.554  0.00  0.00    +0.277 C 
ENDBRANCH  20  22
BRANCH  19  24
ATOM     24  O   UNL     1      -4.705  -0.099   5.463  0.00  0.00    -0.503 OA
ATOM     25  H   UNL     1      -3.884  -0.067   5.974  0.00  0.00    +0.292 HD
ENDBRANCH  19  24
ENDBRANCH  15  16
BRANCH   2  26
ATOM     26  N   UNL     1      -1.841  -4.554  -0.163  0.00  0.00    -0.345 N 
ATOM     27  H   UNL     1      -1.036  -4.326   0.330  0.00  0.00    +0.143 HD
ATOM     28  H   UNL     1      -1.865  -5.355  -0.708  0.00  0.00    +0.143 HD
ENDBRANCH   2  26
BRANCH   1  29
ATOM     29  C   UNL     1      -1.506  -1.834  -0.190  0.00  0.00    +0.339 C 
ATOM     30  O   UNL     1      -0.547  -2.554  -0.404  0.00  0.00    -0.245 OA
BRANCH  29  31
ATOM     31  O   UNL     1      -1.334  -0.501  -0.058  0.00  0.00    -0.462 OA
BRANCH  31  33
ATOM     32  C   UNL     1      -0.004   1.516  -0.002  0.00  0.00    +0.048 C 
ATOM     33  C   UNL     1       0.000  -0.004  -0.180  0.00  0.00    +0.229 C 
ENDBRANCH  31  33
ENDBRANCH  29  31
ENDBRANCH   1  29
BRANCH  14  34
ATOM     34  C   UNL     1      -6.318  -1.433  -0.975  0.00  0.00    +0.098 C 
ATOM     35  N   UNL     1      -7.190  -0.829  -1.383  0.00  0.00    -0.191 NA
ENDBRANCH  14  34
TORSDOF 8
