REMARK  Name = ZINC63156246
REMARK  13 active torsions:
REMARK  status: ('A' for Active; 'I' for Inactive)
REMARK    1  A    between atoms: C_1  and  O_2
REMARK    2  A    between atoms: O_2  and  C_3
REMARK    3  A    between atoms: C_3  and  C_5
REMARK    4  A    between atoms: C_5  and  C_7
REMARK    5  A    between atoms: C_5  and  N_9
REMARK    6  A    between atoms: C_7  and  O_8
REMARK    7  A    between atoms: C_10  and  C_12
REMARK    8  A    between atoms: C_12  and  C_14
REMARK    9  A    between atoms: C_12  and  N_24
REMARK   10  A    between atoms: C_14  and  C_15
REMARK   11  A    between atoms: C_25  and  O_27
REMARK   12  A    between atoms: O_27  and  C_28
REMARK   13  A    between atoms: C_28  and  C_29
REMARK                            x       y       z     vdW  Elec       q    Type
REMARK                         _______ _______ _______ _____ _____    ______ ____
ROOT
ATOM      1  C   UNK A   1      -4.488  -4.319   0.585  0.00  0.00    +0.166 C 
ENDROOT
BRANCH   1   3
ATOM      2  N   UNK A   1      -2.819  -2.496   0.680  0.00  0.00    -0.299 N 
ATOM      3  C   UNK A   1      -3.122  -3.785   0.932  0.00  0.00    +0.234 C 
ATOM      4  O   UNK A   1      -2.295  -4.515   1.436  0.00  0.00    -0.274 OA
ATOM      5  H   UNK A   1      -3.480  -1.912   0.277  0.00  0.00    +0.150 HD
BRANCH   2   6
ATOM      6  C   UNK A   1      -1.491  -1.976   1.017  0.00  0.00    +0.207 C 
BRANCH   6   7
ATOM      7  C   UNK A   1      -1.574  -0.487   1.231  0.00  0.00    +0.330 C 
ATOM      8  O   UNK A   1      -2.633   0.082   1.114  0.00  0.00    -0.249 OA
BRANCH   7  10
ATOM      9  C   UNK A   1      -0.622   1.616   1.738  0.00  0.00    +0.280 C 
ATOM     10  O   UNK A   1      -0.471   0.207   1.551  0.00  0.00    -0.467 OA
ENDBRANCH   7  10
ENDBRANCH   6   7
BRANCH   6  11
ATOM     11  C   UNK A   1      -0.522  -2.275  -0.128  0.00  0.00    +0.189 C 
BRANCH  11  12
ATOM     12  O   UNK A   1      -0.925  -1.553  -1.294  0.00  0.00    -0.393 OA
ATOM     13  H   UNK A   1      -0.354  -1.695  -2.061  0.00  0.00    +0.209 HD
ENDBRANCH  11  12
ENDBRANCH   6  11
ENDBRANCH   2   6
ENDBRANCH   1   3
BRANCH   1  14
ATOM     14  N   UNK A   1      -4.566  -5.735   0.953  0.00  0.00    -0.270 N 
ATOM     15  C   UNK A   0      -5.756  -6.285   1.268  0.00  0.00    +0.401 C 
ATOM     16  O   UNK A   0      -6.764  -5.606   1.246  0.00  0.00    -0.226 OA
ATOM     17  H   UNK A   1      -3.762  -6.277   0.971  0.00  0.00    +0.153 HD
BRANCH  15  18
ATOM     18  O   UNK A   0      -5.828  -7.586   1.606  0.00  0.00    -0.446 OA
BRANCH  18  19
ATOM     19  C   UNK A   0      -7.121  -8.102   1.927  0.00  0.00    +0.269 C 
BRANCH  19  20
ATOM     20  C   UNK A   0      -7.006  -9.563   2.278  0.00  0.00    -0.010 A 
ATOM     21  C   UNK A   0      -7.117 -10.523   1.289  0.00  0.00    +0.007 A 
ATOM     22  C   UNK A   0      -7.011 -11.863   1.611  0.00  0.00    +0.000 A 
ATOM     23  C   UNK A   0      -6.793 -12.244   2.921  0.00  0.00    +0.000 A 
ATOM     24  C   UNK A   0      -6.681 -11.285   3.910  0.00  0.00    +0.000 A 
ATOM     25  C   UNK A   0      -6.783  -9.944   3.588  0.00  0.00    +0.007 A 
ENDBRANCH  19  20
ENDBRANCH  18  19
ENDBRANCH  15  18
ENDBRANCH   1  14
BRANCH   1  26
ATOM     26  C   UNK A   1      -4.728  -4.169  -0.918  0.00  0.00    +0.065 C 
BRANCH  26  27
ATOM     27  C   UNK A   1      -3.748  -5.030  -1.672  0.00  0.00    -0.039 C 
ATOM     28  C   UNK A   1      -3.955  -6.285  -2.134  0.00  0.00    -0.001 A 
ATOM     29  C   UNK A   1      -5.110  -7.188  -2.075  0.00  0.00    +0.010 A 
ATOM     30  C   UNK A   1      -5.016  -8.413  -2.641  0.00  0.00    +0.001 A 
ATOM     31  C   UNK A   1      -3.844  -8.840  -3.281  0.00  0.00    +0.002 A 
ATOM     32  C   UNK A   1      -2.742  -8.067  -3.376  0.00  0.00    +0.026 A 
ATOM     33  C   UNK A   1      -2.730  -6.759  -2.816  0.00  0.00    +0.043 A 
ATOM     34  N   UNK A   1      -1.802  -5.835  -2.777  0.00  0.00    -0.380 N 
ATOM     35  C   UNK A   1      -2.336  -4.665  -2.071  0.00  0.00    +0.144 C 
ATOM     36  H   UNK A   1      -0.912  -5.910  -3.156  0.00  0.00    +0.160 HD
ENDBRANCH  26  27
ENDBRANCH   1  26
TORSDOF 12
