REMARK  Name = ZINC00241850
REMARK  8 active torsions:
REMARK  status: ('A' for Active; 'I' for Inactive)
REMARK    1  A    between atoms: C_3  and  C_8
REMARK    2  A    between atoms: C_5  and  N_7
REMARK    3  A    between atoms: C_8  and  O_10
REMARK    4  A    between atoms: O_10  and  C_11
REMARK    5  A    between atoms: C_14  and  O_17
REMARK    6  A    between atoms: O_17  and  C_18
REMARK    7  A    between atoms: C_18  and  C_20
REMARK    8  A    between atoms: C_24  and  N_26
REMARK                            x       y       z     vdW  Elec       q    Type
REMARK                         _______ _______ _______ _____ _____    ______ ____
ROOT
ATOM      1  C   UNL     1       0.920   7.359   0.067  0.00  0.00    +0.132 A 
ATOM      2  C   UNL     1      -0.364   7.882   0.105  0.00  0.00    +0.050 A 
ATOM      3  C   UNL     1      -0.552   9.249   0.153  0.00  0.00    +0.050 A 
ATOM      4  C   UNL     1       0.543  10.100   0.153  0.00  0.00    +0.132 A 
ATOM      5  C   UNL     1       1.828   9.577   0.109  0.00  0.00    +0.050 A 
ATOM      6  C   UNL     1       2.016   8.210   0.066  0.00  0.00    +0.050 A 
ENDROOT
BRANCH   1   7
ATOM      7  O   UNL     1       1.105   6.013   0.025  0.00  0.00    -0.422 OA
BRANCH   7   8
ATOM      8  C   UNL     1       1.481   5.411   1.170  0.00  0.00    +0.344 C 
ATOM      9  O   UNL     1       1.726   6.078   2.155  0.00  0.00    -0.245 OA
BRANCH   8  12
ATOM     10  C   UNL     1       1.422   1.795   0.153  0.00  0.00    +0.003 A 
ATOM     11  C   UNL     1       1.315   3.169   0.096  0.00  0.00    +0.015 A 
ATOM     12  C   UNL     1       1.596   3.939   1.227  0.00  0.00    +0.061 A 
ATOM     13  C   UNL     1       1.985   3.313   2.412  0.00  0.00    +0.037 A 
ATOM     14  C   UNL     1       2.084   1.931   2.460  0.00  0.00    +0.025 A 
ATOM     15  C   UNL     1       1.807   1.175   1.327  0.00  0.00    +0.023 A 
BRANCH  14  16
ATOM     16  N   UNL     1       2.467   1.299   3.646  0.00  0.00    -0.358 N 
ATOM     17  H   UNL     1       2.540   0.332   3.678  0.00  0.00    +0.142 HD
ATOM     18  H   UNL     1       2.660   1.826   4.436  0.00  0.00    +0.142 HD
ENDBRANCH  14  16
ENDBRANCH   8  12
ENDBRANCH   7   8
ENDBRANCH   1   7
BRANCH   4  19
ATOM     19  O   UNL     1       0.358  11.446   0.196  0.00  0.00    -0.422 OA
BRANCH  19  20
ATOM     20  C   UNL     1       0.515  12.123  -0.959  0.00  0.00    +0.344 C 
ATOM     21  O   UNL     1       0.896  11.542  -1.956  0.00  0.00    -0.245 OA
BRANCH  20  22
ATOM     22  C   UNL     1       0.225  13.570  -1.012  0.00  0.00    +0.061 A 
ATOM     23  C   UNL     1      -0.213  14.240   0.133  0.00  0.00    +0.015 A 
ATOM     24  C   UNL     1      -0.483  15.592   0.080  0.00  0.00    +0.003 A 
ATOM     25  C   UNL     1      -0.322  16.288  -1.103  0.00  0.00    +0.023 A 
ATOM     26  C   UNL     1       0.113  15.631  -2.248  0.00  0.00    +0.025 A 
ATOM     27  C   UNL     1       0.392  14.274  -2.205  0.00  0.00    +0.037 A 
BRANCH  26  28
ATOM     28  N   UNL     1       0.273  16.340  -3.442  0.00  0.00    -0.358 N 
ATOM     29  H   UNL     1       0.081  17.290  -3.471  0.00  0.00    +0.142 HD
ATOM     30  H   UNL     1       0.577  15.882  -4.241  0.00  0.00    +0.142 HD
ENDBRANCH  26  28
ENDBRANCH  20  22
ENDBRANCH  19  20
ENDBRANCH   4  19
TORSDOF 8
