REMARK  Name = ZINC54622242
REMARK  11 active torsions:
REMARK  status: ('A' for Active; 'I' for Inactive)
REMARK    1  A    between atoms: C_1  and  C_2
REMARK    2  A    between atoms: C_2  and  C_3
REMARK    3  A    between atoms: C_3  and  O_4
REMARK    4  A    between atoms: O_4  and  C_5
REMARK    5  A    between atoms: C_5  and  C_7
REMARK    6  A    between atoms: C_8  and  C_33
REMARK    7  A    between atoms: C_12  and  S_24
REMARK    8  A    between atoms: C_15  and  C_17
REMARK    9  A    between atoms: C_21  and  O_23
REMARK   10  A    between atoms: S_24  and  C_25
REMARK   11  A    between atoms: C_25  and  C_26
REMARK                            x       y       z     vdW  Elec       q    Type
REMARK                         _______ _______ _______ _____ _____    ______ ____
ROOT
ATOM      1  C   UNL     1       1.273  -3.979   2.451  0.00  0.00    +0.082 C 
ATOM      2  C   UNL     1       2.143  -4.533   3.309  0.00  0.00    +0.020 C 
ATOM      3  N   UNL     1       2.426  -5.876   3.299  0.00  0.00    -0.287 N 
ATOM      4  C   UNL     1       1.990  -6.613   2.206  0.00  0.00    +0.219 A 
ATOM      5  N   UNL     1       2.300  -7.825   1.832  0.00  0.00    -0.187 NA
ATOM      6  C   UNL     1       1.639  -8.128   0.705  0.00  0.00    +0.211 A 
ATOM      7  N   UNL     1       0.896  -7.101   0.354  0.00  0.00    -0.141 NA
ATOM      8  N   UNL     1       1.104  -6.109   1.312  0.00  0.00    -0.220 N 
ATOM      9  C   UNL     1       0.521  -4.773   1.417  0.00  0.00    +0.179 C 
ATOM     10  C   UNL     1       2.832  -3.652   4.319  0.00  0.00    +0.061 C 
ATOM     11  H   UNL     1       2.913  -6.294   4.026  0.00  0.00    +0.155 HD
ENDROOT
BRANCH   9  12
ATOM     12  C   UNL     1      -0.927  -4.883   1.823  0.00  0.00    -0.015 A 
ATOM     13  C   UNL     1      -1.264  -5.482   3.022  0.00  0.00    +0.006 A 
ATOM     14  C   UNL     1      -2.591  -5.584   3.397  0.00  0.00    +0.004 A 
ATOM     15  C   UNL     1      -3.583  -5.088   2.574  0.00  0.00    +0.045 A 
ATOM     16  C   UNL     1      -3.247  -4.486   1.370  0.00  0.00    +0.117 A 
ATOM     17  C   UNL     1      -1.914  -4.379   0.999  0.00  0.00    +0.051 A 
BRANCH  16  18
ATOM     18  O   UNL     1      -4.221  -3.997   0.559  0.00  0.00    -0.507 OA
ATOM     19  H   UNL     1      -4.448  -3.072   0.730  0.00  0.00    +0.292 HD
ENDBRANCH  16  18
ENDBRANCH   9  12
BRANCH   1  20
ATOM     20  C   UNL     1       1.049  -2.586   2.524  0.00  0.00    +0.339 C 
ATOM     21  O   UNL     1       1.519  -1.849   1.677  0.00  0.00    -0.245 OA
BRANCH  20  22
ATOM     22  O   UNL     1       0.314  -2.073   3.533  0.00  0.00    -0.461 OA
BRANCH  22  23
ATOM     23  C   UNL     1       0.128  -0.656   3.545  0.00  0.00    +0.232 C 
BRANCH  23  25
ATOM     24  C   UNL     1      -0.923   1.253   4.766  0.00  0.00    +0.007 C 
ATOM     25  C   UNL     1      -0.724  -0.264   4.753  0.00  0.00    +0.038 C 
ENDBRANCH  23  25
ENDBRANCH  22  23
ENDBRANCH  20  22
ENDBRANCH   1  20
BRANCH   6  26
ATOM     26  S   UNL     1       1.749  -9.656  -0.165  0.00  0.00    -0.080 S 
BRANCH  26  27
ATOM     27  C   UNL     1       2.919 -10.636   0.815  0.00  0.00    +0.114 C 
BRANCH  27  28
ATOM     28  C   UNL     1       3.106 -11.986   0.172  0.00  0.00    -0.019 A 
ATOM     29  C   UNL     1       2.280 -13.039   0.521  0.00  0.00    +0.006 A 
ATOM     30  C   UNL     1       2.452 -14.277  -0.068  0.00  0.00    +0.000 A 
ATOM     31  C   UNL     1       3.449 -14.464  -1.008  0.00  0.00    +0.001 A 
ATOM     32  C   UNL     1       4.275 -13.413  -1.358  0.00  0.00    +0.020 A 
ATOM     33  C   UNL     1       4.100 -12.171  -0.772  0.00  0.00    +0.045 A 
ATOM     34 CL   UNL     1       5.133 -10.848  -1.216  0.00  0.00    -0.083 Cl
ENDBRANCH  27  28
ENDBRANCH  26  27
ENDBRANCH   6  26
TORSDOF 9
