REMARK  Name = ZINC02706962
REMARK  9 active torsions:
REMARK  status: ('A' for Active; 'I' for Inactive)
REMARK    1  A    between atoms: C_1  and  C_2
REMARK    2  A    between atoms: C_2  and  C_3
REMARK    3  A    between atoms: N_5  and  C_6
REMARK    4  A    between atoms: C_6  and  C_8
REMARK    5  A    between atoms: C_6  and  N_12
REMARK    6  A    between atoms: N_12  and  C_13
REMARK    7  A    between atoms: C_13  and  N_15
REMARK    8  A    between atoms: N_15  and  C_16
REMARK    9  A    between atoms: C_21  and  O_22
REMARK                            x       y       z     vdW  Elec       q    Type
REMARK                         _______ _______ _______ _____ _____    ______ ____
ROOT
ATOM      1  N   UNL     1      -2.431   4.069   0.239  0.00  0.00    -0.305 N 
ATOM      2  H   UNL     1      -3.264   3.572   0.240  0.00  0.00    +0.150 HD
ENDROOT
BRANCH   1   3
ATOM      3  C   UNL     1      -1.256   3.418   0.128  0.00  0.00    +0.136 C 
ATOM      4  S   UNL     1       0.213   4.296   0.126  0.00  0.00    -0.019 S 
BRANCH   3   5
ATOM      5  N   UNL     1      -1.238   2.075   0.019  0.00  0.00    -0.294 N 
ATOM      6  H   UNL     1      -2.071   1.583  -0.059  0.00  0.00    +0.154 HD
BRANCH   5   7
ATOM      7  C   UNL     1      -0.017   1.388   0.019  0.00  0.00    +0.075 A 
ATOM      8  C   UNL     1       0.971   1.726   0.933  0.00  0.00    +0.027 A 
ATOM      9  C   UNL     1       2.177   1.051   0.927  0.00  0.00    +0.002 A 
ATOM     10  C   UNL     1       2.402   0.039   0.013  0.00  0.00    +0.004 A 
ATOM     11  C   UNL     1       1.422  -0.304  -0.900  0.00  0.00    +0.047 A 
ATOM     12  C   UNL     1       0.211   0.368  -0.902  0.00  0.00    +0.138 A 
BRANCH  12  13
ATOM     13  O   UNL     1      -0.754   0.033  -1.800  0.00  0.00    -0.505 OA
ATOM     14  H   UNL     1      -0.705   0.525  -2.631  0.00  0.00    +0.292 HD
ENDBRANCH  12  13
ENDBRANCH   5   7
ENDBRANCH   3   5
ENDBRANCH   1   3
BRANCH   1  15
ATOM     15  C   UNL     1      -2.450   5.529   0.357  0.00  0.00    +0.211 C 
BRANCH  15  18
ATOM     16  C   UNL     1      -1.766   6.362   2.543  0.00  0.00    +0.214 C 
ATOM     17  O   UNL     1      -0.635   6.466   2.116  0.00  0.00    -0.276 OA
ATOM     18  N   UNL     1      -2.748   5.903   1.742  0.00  0.00    -0.294 N 
ATOM     19  H   UNL     1      -3.652   5.820   2.083  0.00  0.00    +0.151 HD
BRANCH  16  21
ATOM     20  C   UNL     1      -0.792   7.232   4.651  0.00  0.00    +0.013 C 
ATOM     21  C   UNL     1      -2.072   6.747   3.967  0.00  0.00    +0.092 C 
ENDBRANCH  16  21
ENDBRANCH  15  18
BRANCH  15  22
ATOM     22  C   UNL     1      -3.526   6.102  -0.568  0.00  0.00    +0.225 C 
ATOM     23 CL   UNL     1      -5.136   5.440  -0.099  0.00  0.00    -0.080 Cl
ATOM     24 CL   UNL     1      -3.550   7.899  -0.422  0.00  0.00    -0.080 Cl
ATOM     25 CL   UNL     1      -3.160   5.642  -2.272  0.00  0.00    -0.080 Cl
ENDBRANCH  15  22
ENDBRANCH   1  15
TORSDOF 8
