REMARK  Name = ZINC39948178
REMARK  10 active torsions:
REMARK  status: ('A' for Active; 'I' for Inactive)
REMARK    1  A    between atoms: C_1  and  C_2
REMARK    2  A    between atoms: C_2  and  C_3
REMARK    3  A    between atoms: C_3  and  N_4
REMARK    4  A    between atoms: N_4  and  C_5
REMARK    5  A    between atoms: C_5  and  C_6
REMARK    6  A    between atoms: C_9  and  C_11
REMARK    7  A    between atoms: C_11  and  S_12
REMARK    8  A    between atoms: S_12  and  C_13
REMARK    9  A    between atoms: C_17  and  C_26
REMARK   10  A    between atoms: N_18  and  C_19
REMARK                            x       y       z     vdW  Elec       q    Type
REMARK                         _______ _______ _______ _____ _____    ______ ____
ROOT
ATOM      1  C   UNL     1      -1.311  -6.189  -2.380  0.00  0.00    +0.241 C 
ATOM      2  N   UNL     1      -2.449  -6.693  -1.592  0.00  0.00    -0.237 N 
ATOM      3  N   UNL     1      -2.001  -7.848  -0.941  0.00  0.00    -0.169 NA
ATOM      4  C   UNL     1      -0.752  -8.103  -1.231  0.00  0.00    +0.151 C 
ATOM      5  N   UNL     1      -0.227  -7.148  -2.110  0.00  0.00    -0.254 N 
ATOM      6  H   UNL     1      -3.334  -6.301  -1.536  0.00  0.00    +0.171 HD
ENDROOT
BRANCH   4   7
ATOM      7  C   UNL     1      -0.030  -9.196  -0.728  0.00  0.00    +0.022 C 
ATOM      8  C   UNL     1      -0.518 -10.237   0.064  0.00  0.00    +0.006 A 
ATOM      9  C   UNL     1      -1.799 -10.519   0.584  0.00  0.00    +0.010 A 
ATOM     10  C   UNL     1      -1.988 -11.630   1.341  0.00  0.00    +0.001 A 
ATOM     11  C   UNL     1      -0.942 -12.511   1.622  0.00  0.00    +0.002 A 
ATOM     12  C   UNL     1       0.314 -12.302   1.155  0.00  0.00    +0.026 A 
ATOM     13  C   UNL     1       0.589 -11.162   0.357  0.00  0.00    +0.043 A 
ATOM     14  N   UNL     1       1.704 -10.741  -0.208  0.00  0.00    -0.380 N 
ATOM     15  C   UNL     1       1.438  -9.496  -0.935  0.00  0.00    +0.152 C 
ATOM     16  H   UNL     1       2.564 -11.187  -0.153  0.00  0.00    +0.160 HD
ENDBRANCH   4   7
BRANCH   5  17
ATOM     17  C   UNL     1       1.070  -7.110  -2.630  0.00  0.00    +0.038 A 
ATOM     18  C   UNL     1       1.348  -7.711  -3.851  0.00  0.00    +0.025 A 
ATOM     19  C   UNL     1       2.631  -7.672  -4.362  0.00  0.00    +0.022 A 
ATOM     20  C   UNL     1       3.638  -7.036  -3.658  0.00  0.00    +0.041 A 
ATOM     21  C   UNL     1       3.364  -6.437  -2.441  0.00  0.00    +0.022 A 
ATOM     22  C   UNL     1       2.082  -6.467  -1.928  0.00  0.00    +0.025 A 
ATOM     23 CL   UNL     1       5.250  -6.990  -4.303  0.00  0.00    -0.084 Cl
ENDBRANCH   5  17
BRANCH   1  24
ATOM     24  S   UNL     1      -0.841  -4.528  -1.824  0.00  0.00    -0.108 S 
BRANCH  24  25
ATOM     25  C   UNL     1      -0.494  -4.737  -0.056  0.00  0.00    +0.168 C 
BRANCH  25  27
ATOM     26  N   UNL     1       0.221  -3.327   1.846  0.00  0.00    -0.301 N 
ATOM     27  C   UNL     1      -0.086  -3.413   0.536  0.00  0.00    +0.226 C 
ATOM     28  O   UNL     1      -0.035  -2.425  -0.165  0.00  0.00    -0.275 OA
BRANCH  26  29
ATOM     29  C   UNL     1       0.617  -2.040   2.422  0.00  0.00    +0.107 C 
BRANCH  29  31
ATOM     30  C   UNL     1       2.549  -0.536   2.919  0.00  0.00    +0.005 C 
ATOM     31  C   UNL     1       2.135  -1.880   2.318  0.00  0.00    +0.016 C 
ENDBRANCH  29  31
ENDBRANCH  26  29
BRANCH  26  32
ATOM     32  C   UNL     1       0.159  -4.521   2.693  0.00  0.00    +0.111 C 
BRANCH  32  33
ATOM     33  C   UNL     1      -1.243  -4.648   3.293  0.00  0.00    +0.006 C 
ATOM     34  C   UNL     1      -1.373  -4.548   4.814  0.00  0.00    +0.005 C 
ATOM     35  C   UNL     1      -1.548  -5.899   4.119  0.00  0.00    +0.005 C 
ENDBRANCH  32  33
ENDBRANCH  26  32
ENDBRANCH  25  27
ENDBRANCH  24  25
ENDBRANCH   1  24
TORSDOF 9
