REMARK  Name = ZINC39467313
REMARK  5 active torsions:
REMARK  status: ('A' for Active; 'I' for Inactive)
REMARK    1  A    between atoms: C_1  and  S_2
REMARK    2  A    between atoms: S_2  and  C_3
REMARK    3  A    between atoms: C_15  and  O_16
REMARK    4  A    between atoms: P_19  and  C_22
REMARK    5  A    between atoms: C_27  and  O_28
REMARK                            x       y       z     vdW  Elec       q    Type
REMARK                         _______ _______ _______ _____ _____    ______ ____
ROOT
ATOM      1  C   UNL     1      -1.702  -0.454   0.016  0.00  0.00    +0.045 C 
ATOM      2  C   UNL     1      -2.650   0.495   0.024  0.00  0.00    -0.006 C 
ATOM      3  C   UNL     1      -4.093   0.073   0.023  0.00  0.00    +0.006 C 
ATOM      4  C   UNL     1      -5.000   1.174  -0.514  0.00  0.00    -0.046 C 
ATOM      5  N   UNL     1      -6.406   0.735  -0.456  0.00  0.00    +0.398 N 
ATOM      6  C   UNL     1      -6.623  -0.468  -1.259  0.00  0.00    -0.020 C 
ATOM      7  C   UNL     1      -5.705  -1.611  -0.804  0.00  0.00    -0.002 C 
ATOM      8  C   UNL     1      -4.252  -1.154  -0.883  0.00  0.00    +0.019 C 
ATOM      9  C   UNL     1      -3.312  -2.231  -0.416  0.00  0.00    +0.023 C 
ATOM     10  C   UNL     1      -2.096  -1.880   0.012  0.00  0.00    +0.126 C 
ATOM     11  C   UNL     1      -8.062  -0.982  -1.121  0.00  0.00    +0.157 C 
ATOM     12  O   UNL     1      -8.975   0.019  -1.607  0.00  0.00    -0.316 OA
ATOM     13  P   UNL     1      -8.803   1.536  -1.044  0.00  0.00    +0.291 P 
ATOM     14  O   UNL     1      -9.434   1.664   0.289  0.00  0.00    -0.269 OA
ATOM     15  N   UNL     1      -7.158   1.782  -0.945  0.00  0.00    -0.288 NA
ATOM     16  H   UNL     1      -6.744   2.621  -1.201  0.00  0.00    +0.111 HD
ATOM     17  H   UNL     1      -6.663   0.553   0.502  0.00  0.00    -0.055 HD
ENDROOT
BRANCH  13  18
ATOM     18  C   UNL     1      -9.539   2.723  -2.202  0.00  0.00    +0.091 A 
ATOM     19  C   UNL     1      -8.774   3.264  -3.217  0.00  0.00    +0.018 A 
ATOM     20  C   UNL     1      -9.334   4.169  -4.100  0.00  0.00    +0.001 A 
ATOM     21  C   UNL     1     -10.661   4.534  -3.969  0.00  0.00    +0.004 A 
ATOM     22  C   UNL     1     -11.431   3.996  -2.957  0.00  0.00    +0.046 A 
ATOM     23  C   UNL     1     -10.872   3.084  -2.073  0.00  0.00    +0.131 A 
BRANCH  23  24
ATOM     24  O   UNL     1     -11.629   2.548  -1.079  0.00  0.00    -0.506 OA
ATOM     25  H   UNL     1     -11.616   3.058  -0.257  0.00  0.00    +0.292 HD
ENDBRANCH  23  24
ENDBRANCH  13  18
BRANCH   1  27
ATOM     26  C   UNL     1      -0.022   1.810   0.012  0.00  0.00    +0.090 C 
ATOM     27  S   UNL     1       0.002  -0.004   0.002  0.00  0.00    -0.125 S 
ENDBRANCH   1  27
BRANCH  10  28
ATOM     28  O   UNL     1      -1.227  -2.831   0.446  0.00  0.00    -0.506 OA
ATOM     29  H   UNL     1      -0.374  -2.480   0.738  0.00  0.00    +0.292 HD
ENDBRANCH  10  28
TORSDOF 4
