REMARK  Name = ZINC34716002
REMARK  9 active torsions:
REMARK  status: ('A' for Active; 'I' for Inactive)
REMARK    1  A    between atoms: C_1  and  C_2
REMARK    2  A    between atoms: C_6  and  C_8
REMARK    3  A    between atoms: C_8  and  N_9
REMARK    4  A    between atoms: C_10  and  C_12
REMARK    5  A    between atoms: C_16  and  C_26
REMARK    6  A    between atoms: N_22  and  C_23
REMARK    7  A    between atoms: C_23  and  C_24
REMARK    8  A    between atoms: C_23  and  C_25
REMARK    9  A    between atoms: C_30  and  C_32
REMARK                            x       y       z     vdW  Elec       q    Type
REMARK                         _______ _______ _______ _____ _____    ______ ____
ROOT
ATOM      1  C   UNL     1       3.581  -3.696   4.241  0.00  0.00    +0.092 C 
ATOM      2  C   UNL     1       3.220  -4.763   5.276  0.00  0.00    +0.016 C 
ATOM      3  C   UNL     1       2.353  -4.140   6.373  0.00  0.00    +0.028 C 
ATOM      4  C   UNL     1       3.145  -3.034   7.077  0.00  0.00    +0.108 C 
ATOM      5  N   UNL     1       3.621  -2.078   6.067  0.00  0.00    -0.278 N 
ATOM      6  C   UNL     1       4.388  -2.584   4.920  0.00  0.00    +0.122 C 
ATOM      7  C   UNL     1       3.359  -0.761   6.191  0.00  0.00    +0.303 C 
ATOM      8  O   UNL     1       2.804  -0.343   7.189  0.00  0.00    -0.253 OA
ATOM      9  N   UNL     1       3.711   0.091   5.208  0.00  0.00    -0.297 N 
ATOM     10  H   UNL     1       4.094  -0.250   4.385  0.00  0.00    +0.150 HD
ENDROOT
BRANCH   4  11
ATOM     11  C   UNL     1       2.255  -2.327   8.067  0.00  0.00    -0.027 A 
ATOM     12  C   UNL     1       1.075  -1.745   7.642  0.00  0.00    +0.008 A 
ATOM     13  C   UNL     1       0.258  -1.097   8.549  0.00  0.00    +0.039 A 
ATOM     14  C   UNL     1       0.622  -1.031   9.883  0.00  0.00    +0.126 A 
ATOM     15  C   UNL     1       1.804  -1.614  10.307  0.00  0.00    -0.015 A 
ATOM     16  C   UNL     1       2.617  -2.266   9.399  0.00  0.00    +0.011 A 
ATOM     17  C   UNL     1       2.201  -1.542  11.759  0.00  0.00    +0.047 C 
ATOM     18  F   UNL     1      -0.176  -0.397  10.771  0.00  0.00    -0.205 F 
ENDBRANCH   4  11
BRANCH   1  20
ATOM     19  N   UNL     1       2.394  -2.154   2.714  0.00  0.00    -0.311 N 
ATOM     20  C   UNL     1       2.320  -3.116   3.655  0.00  0.00    +0.218 C 
ATOM     21  O   UNL     1       1.238  -3.516   4.029  0.00  0.00    -0.275 OA
ATOM     22  H   UNL     1       3.257  -1.889   2.359  0.00  0.00    +0.149 HD
BRANCH  19  23
ATOM     23  C   UNL     1       1.172  -1.508   2.228  0.00  0.00    +0.139 C 
BRANCH  23  29
ATOM     24  C   UNL     1       2.255   3.054   0.479  0.00  0.00    +0.044 C 
ATOM     25  C   UNL     1       2.026   1.584   0.238  0.00  0.00    -0.050 A 
ATOM     26  C   UNL     1       2.126   1.070  -1.042  0.00  0.00    +0.003 A 
ATOM     27  C   UNL     1       1.917  -0.278  -1.263  0.00  0.00    +0.001 A 
ATOM     28  C   UNL     1       1.608  -1.113  -0.204  0.00  0.00    +0.005 A 
ATOM     29  C   UNL     1       1.509  -0.599   1.075  0.00  0.00    -0.030 A 
ATOM     30  C   UNL     1       1.723   0.749   1.297  0.00  0.00    +0.008 A 
ENDBRANCH  23  29
ENDBRANCH  19  23
ENDBRANCH   1  20
BRANCH   9  31
ATOM     31  C   UNL     1       3.515   1.532   5.384  0.00  0.00    +0.068 C 
ATOM     32  C   UNL     1       4.756   2.139   6.042  0.00  0.00    +0.027 C 
ATOM     33  C   UNL     1       3.290   2.186   4.019  0.00  0.00    +0.027 C 
ENDBRANCH   9  31
TORSDOF 5
