REMARK  Name = ZINC35294155
REMARK  10 active torsions:
REMARK  status: ('A' for Active; 'I' for Inactive)
REMARK    1  A    between atoms: C_1  and  C_2
REMARK    2  A    between atoms: C_9  and  C_11
REMARK    3  A    between atoms: C_11  and  C_12
REMARK    4  A    between atoms: C_12  and  C_13
REMARK    5  A    between atoms: C_12  and  C_14
REMARK    6  A    between atoms: C_12  and  C_15
REMARK    7  A    between atoms: C_20  and  S_22
REMARK    8  A    between atoms: S_22  and  C_23
REMARK    9  A    between atoms: C_23  and  C_24
REMARK   10  A    between atoms: C_31  and  N_35
REMARK                            x       y       z     vdW  Elec       q    Type
REMARK                         _______ _______ _______ _____ _____    ______ ____
ROOT
ATOM      1  C   UNL     1      -0.106   2.149  -1.019  0.00  0.00    +0.029 C 
ATOM      2  C   UNL     1      -0.026   0.625  -0.905  0.00  0.00    +0.090 C 
ATOM      3  C   UNL     1       0.536   0.040  -2.207  0.00  0.00    +0.128 C 
ATOM      4  N   UNL     1       0.847  -1.379  -1.988  0.00  0.00    -0.312 N 
ATOM      5  C   UNL     1       1.744  -1.746  -0.882  0.00  0.00    +0.125 C 
ATOM      6  C   UNL     1       1.181  -1.161   0.419  0.00  0.00    +0.127 C 
ATOM      7  N   UNL     1       0.867   0.259   0.203  0.00  0.00    -0.296 N 
ATOM      8  C   UNL     1       1.392   1.208   1.003  0.00  0.00    +0.216 C 
ATOM      9  O   UNL     1       1.052   2.365   0.875  0.00  0.00    -0.276 OA
ATOM     10  C   UNL     1       0.305  -2.355  -2.809  0.00  0.00    +0.127 A 
ATOM     11  C   UNL     1      -0.371  -2.001  -3.978  0.00  0.00    +0.083 A 
ATOM     12  C   UNL     1      -0.896  -3.008  -4.767  0.00  0.00    +0.135 A 
ATOM     13  N   UNL     1      -0.742  -4.271  -4.394  0.00  0.00    -0.210 NA
ATOM     14  C   UNL     1      -0.095  -4.577  -3.278  0.00  0.00    +0.192 A 
ATOM     15  N   UNL     1       0.426  -3.642  -2.498  0.00  0.00    -0.207 NA
ATOM     16 CL   UNL     1      -1.746  -2.623  -6.231  0.00  0.00    -0.062 Cl
ENDROOT
BRANCH   8  17
ATOM     17  C   UNL     1       2.402   0.831   2.056  0.00  0.00    +0.102 C 
BRANCH  17  18
ATOM     18  C   UNL     1       2.835   2.085   2.819  0.00  0.00    -0.029 C 
ATOM     19  C   UNL     1       1.615   2.722   3.487  0.00  0.00    +0.011 C 
ATOM     20  C   UNL     1       3.861   1.703   3.888  0.00  0.00    +0.011 C 
ATOM     21  C   UNL     1       3.463   3.084   1.844  0.00  0.00    +0.011 C 
ENDBRANCH  17  18
ENDBRANCH   8  17
BRANCH  14  22
ATOM     22  S   UNL     1       0.082  -6.271  -2.825  0.00  0.00    -0.077 S 
BRANCH  22  23
ATOM     23  C   UNL     1      -0.759  -7.171  -4.156  0.00  0.00    +0.173 C 
BRANCH  23  24
ATOM     24  C   UNL     1      -0.680  -8.652  -3.888  0.00  0.00    +0.232 C 
ATOM     25  O   UNL     1      -0.113  -9.060  -2.897  0.00  0.00    -0.274 OA
ATOM     26  N   UNL     1      -1.240  -9.524  -4.750  0.00  0.00    -0.243 N 
ATOM     27  C   UNL     1      -1.165 -10.969  -4.481  0.00  0.00    +0.116 C 
ATOM     28  C   UNL     1      -2.554 -11.463  -4.069  0.00  0.00    +0.019 C 
ATOM     29  C   UNL     1      -3.383 -11.825  -5.288  0.00  0.00    +0.000 C 
ATOM     30  C   UNL     1      -3.746 -10.634  -6.157  0.00  0.00    -0.007 C 
ATOM     31  C   UNL     1      -2.497 -10.041  -6.814  0.00  0.00    +0.013 C 
ATOM     32  C   UNL     1      -1.863  -9.071  -5.839  0.00  0.00    +0.207 C 
ATOM     33  O   UNL     1      -1.918  -7.879  -6.052  0.00  0.00    -0.277 OA
BRANCH  31  34
ATOM     34  N   UNL     1      -1.551 -11.118  -7.136  0.00  0.00    +0.386 N 
ATOM     35  H   UNL     1      -1.729 -11.453  -8.071  0.00  0.00    -0.089 HD
ATOM     36  H   UNL     1      -0.607 -10.764  -7.080  0.00  0.00    -0.089 HD
ATOM     37  H   UNL     1      -1.666 -11.875  -6.480  0.00  0.00    -0.089 HD
ENDBRANCH  31  34
ENDBRANCH  23  24
ENDBRANCH  22  23
ENDBRANCH  14  22
TORSDOF 6
