REMARK  Name = ZINC63140376
REMARK  12 active torsions:
REMARK  status: ('A' for Active; 'I' for Inactive)
REMARK    1  A    between atoms: C_1  and  C_2
REMARK    2  A    between atoms: C_2  and  N_3
REMARK    3  A    between atoms: N_3  and  C_4
REMARK    4  A    between atoms: N_3  and  C_6
REMARK    5  A    between atoms: C_4  and  C_5
REMARK    6  A    between atoms: C_6  and  C_7
REMARK    7  A    between atoms: C_7  and  C_8
REMARK    8  A    between atoms: C_8  and  N_9
REMARK    9  A    between atoms: C_29  and  C_31
REMARK   10  A    between atoms: C_36  and  O_37
REMARK   11  A    between atoms: O_37  and  C_38
REMARK   12  A    between atoms: C_38  and  C_39
REMARK                            x       y       z     vdW  Elec       q    Type
REMARK                         _______ _______ _______ _____ _____    ______ ____
ROOT
ATOM      1  N   UNL     1       2.352  -4.535   3.681  0.00  0.00    -0.291 N 
ATOM      2  C   UNL     1       3.815  -4.613   3.852  0.00  0.00    +0.203 C 
ATOM      3  C   UNL     1       4.174  -4.022   5.198  0.00  0.00    +0.234 C 
ATOM      4  O   UNL     1       5.114  -3.266   5.329  0.00  0.00    -0.274 OA
ATOM      5  N   UNL     1       3.386  -4.380   6.264  0.00  0.00    -0.279 N 
ATOM      6  C   UNL     1       2.351  -5.350   5.974  0.00  0.00    +0.167 C 
ATOM      7  C   UNL     1       1.589  -4.920   4.746  0.00  0.00    +0.237 C 
ATOM      8  O   UNL     1       0.377  -4.921   4.705  0.00  0.00    -0.274 OA
ATOM      9  C   UNL     1       1.438  -5.778   7.094  0.00  0.00    +0.065 C 
ATOM     10  C   UNL     1       1.659  -4.903   8.298  0.00  0.00    -0.034 C 
ATOM     11  C   UNL     1       0.821  -4.361   9.169  0.00  0.00    -0.001 A 
ATOM     12  C   UNL     1      -0.642  -4.450   9.309  0.00  0.00    +0.010 A 
ATOM     13  C   UNL     1      -1.192  -3.744  10.332  0.00  0.00    +0.001 A 
ATOM     14  C   UNL     1      -0.442  -2.966  11.220  0.00  0.00    +0.002 A 
ATOM     15  C   UNL     1       0.907  -2.830  11.169  0.00  0.00    +0.026 A 
ATOM     16  C   UNL     1       1.599  -3.530  10.137  0.00  0.00    +0.043 A 
ATOM     17  N   UNL     1       2.868  -3.585   9.866  0.00  0.00    -0.375 N 
ATOM     18  C   UNL     1       3.065  -4.475   8.714  0.00  0.00    +0.131 C 
ATOM     19  C   UNL     1       3.647  -3.714   7.532  0.00  0.00    +0.137 C 
ATOM     20  H   UNL     1       3.570  -3.117  10.345  0.00  0.00    +0.160 HD
ENDROOT
BRANCH  19  21
ATOM     21  C   UNL     1       3.006  -2.351   7.512  0.00  0.00    +0.017 A 
ATOM     22  C   UNL     1       1.918  -2.110   6.694  0.00  0.00    +0.009 A 
ATOM     23  C   UNL     1       1.330  -0.860   6.675  0.00  0.00    +0.001 A 
ATOM     24  C   UNL     1       1.827   0.154   7.474  0.00  0.00    +0.004 A 
ATOM     25  C   UNL     1       2.913  -0.082   8.294  0.00  0.00    +0.046 A 
ATOM     26  C   UNL     1       3.503  -1.338   8.319  0.00  0.00    +0.125 A 
BRANCH  26  27
ATOM     27  O   UNL     1       4.568  -1.573   9.129  0.00  0.00    -0.492 OA
BRANCH  27  28
ATOM     28  C   UNL     1       5.027  -0.484   9.932  0.00  0.00    +0.225 C 
ATOM     29  C   UNL     1       6.224  -0.936  10.770  0.00  0.00    +0.048 C 
ENDBRANCH  27  28
ENDBRANCH  26  27
ENDBRANCH  19  21
BRANCH   1  30
ATOM     30  C   UNL     1       1.748  -4.062   2.433  0.00  0.00    +0.106 C 
BRANCH  30  31
ATOM     31  C   UNL     1       1.558  -2.546   2.502  0.00  0.00    +0.000 C 
BRANCH  31  32
ATOM     32  C   UNL     1       0.926  -2.051   1.199  0.00  0.00    -0.077 C 
BRANCH  32  33
ATOM     33  N   UNL     1       0.643  -0.614   1.306  0.00  0.00    +0.379 N 
ATOM     34  H   UNL     1       0.074  -0.444   2.122  0.00  0.00    -0.082 HD
BRANCH  33  36
ATOM     35  C   UNL     1       1.607   1.609   1.663  0.00  0.00    -0.017 C 
ATOM     36  C   UNL     1       1.905   0.127   1.426  0.00  0.00    -0.082 C 
ENDBRANCH  33  36
BRANCH  33  37
ATOM     37  C   UNL     1      -0.076  -0.166   0.106  0.00  0.00    -0.082 C 
ATOM     38  C   UNL     1      -1.460  -0.817   0.068  0.00  0.00    -0.017 C 
ENDBRANCH  33  37
ENDBRANCH  32  33
ENDBRANCH  31  32
ENDBRANCH  30  31
ENDBRANCH   1  30
TORSDOF 9
