REMARK  Name = ZINC60348736
REMARK  9 active torsions:
REMARK  status: ('A' for Active; 'I' for Inactive)
REMARK    1  A    between atoms: C_1  and  C_2
REMARK    2  A    between atoms: C_2  and  C_4
REMARK    3  A    between atoms: C_2  and  N_8
REMARK    4  A    between atoms: C_4  and  C_5
REMARK    5  A    between atoms: C_5  and  C_6
REMARK    6  A    between atoms: C_5  and  C_7
REMARK    7  A    between atoms: N_8  and  C_9
REMARK    8  A    between atoms: N_8  and  S_19
REMARK    9  A    between atoms: S_19  and  C_22
REMARK                            x       y       z     vdW  Elec       q    Type
REMARK                         _______ _______ _______ _____ _____    ______ ____
ROOT
ATOM      1  N   UNL     1      -1.134  -0.655   0.265  0.00  0.00    -0.200 N 
ENDROOT
BRANCH   1   2
ATOM      2  C   UNL     1      -1.880   0.088   1.187  0.00  0.00    +0.052 A 
ATOM      3  C   UNL     1      -1.246   0.680   2.278  0.00  0.00    +0.027 A 
ATOM      4  C   UNL     1      -1.966   1.414   3.193  0.00  0.00    +0.028 A 
ATOM      5  C   UNL     1      -3.339   1.570   3.035  0.00  0.00    +0.047 A 
ATOM      6  C   UNL     1      -3.982   0.975   1.936  0.00  0.00    +0.001 A 
ATOM      7  C   UNL     1      -3.243   0.237   1.009  0.00  0.00    +0.034 A 
ATOM      8  C   UNL     1      -5.400   1.323   2.059  0.00  0.00    +0.027 A 
ATOM      9  C   UNL     1      -5.527   2.069   3.168  0.00  0.00    +0.083 A 
ATOM     10  N   UNL     1      -4.307   2.229   3.765  0.00  0.00    -0.361 N 
ATOM     11  H   UNL     1      -4.146   2.730   4.580  0.00  0.00    +0.165 HD
ENDBRANCH   1   2
BRANCH   1  12
ATOM     12  S   UNL     1      -1.856  -1.871  -0.596  0.00  0.00    +0.076 S 
ATOM     13  O   UNL     1      -1.046  -3.026  -0.425  0.00  0.00    -0.150 OA
ATOM     14  O   UNL     1      -3.234  -1.850  -0.251  0.00  0.00    -0.150 OA
BRANCH  12  15
ATOM     15  C   UNL     1      -1.756  -1.434  -2.300  0.00  0.00    +0.131 A 
ATOM     16  C   UNL     1      -0.944  -2.160  -3.152  0.00  0.00    +0.077 A 
ATOM     17  C   UNL     1      -0.865  -1.817  -4.490  0.00  0.00    +0.144 A 
ATOM     18  C   UNL     1      -1.605  -0.739  -4.975  0.00  0.00    +0.077 A 
ATOM     19  C   UNL     1      -2.417  -0.015  -4.118  0.00  0.00    +0.049 A 
ATOM     20  C   UNL     1      -2.495  -0.368  -2.782  0.00  0.00    +0.070 A 
ATOM     21 CL   UNL     1      -3.518   0.533  -1.707  0.00  0.00    -0.081 Cl
ATOM     22  N   UNL     1      -1.515  -0.402  -6.333  0.00  0.00    -0.280 N 
ATOM     23  C   UNL     1      -0.979  -1.294  -7.195  0.00  0.00    +0.255 C 
ATOM     24  O   UNL     1      -0.863  -1.011  -8.369  0.00  0.00    -0.272 OA
ATOM     25  C   UNL     1      -0.526  -2.641  -6.692  0.00  0.00    +0.325 C 
ATOM     26  O   UNL     1      -0.072  -2.522  -5.341  0.00  0.00    -0.481 OA
ATOM     27  H   UNL     1      -1.832   0.459  -6.649  0.00  0.00    +0.155 HD
ENDBRANCH  12  15
ENDBRANCH   1  12
BRANCH   1  29
ATOM     28  C   UNL     1       1.085  -1.662   0.057  0.00  0.00    +0.030 C 
ATOM     29  C   UNL     1       0.286  -0.357   0.062  0.00  0.00    +0.095 C 
BRANCH  29  30
ATOM     30  C   UNL     1       0.470   0.359  -1.277  0.00  0.00    +0.027 C 
BRANCH  30  31
ATOM     31  C   UNL     1      -0.170   1.747  -1.205  0.00  0.00    -0.015 C 
ATOM     32  C   UNL     1       0.567   2.596  -0.167  0.00  0.00    +0.007 C 
ATOM     33  C   UNL     1      -0.077   2.423  -2.575  0.00  0.00    +0.007 C 
ENDBRANCH  30  31
ENDBRANCH  29  30
ENDBRANCH   1  29
TORSDOF 6
