REMARK  Name = ZINC45622731
REMARK  5 active torsions:
REMARK  status: ('A' for Active; 'I' for Inactive)
REMARK    1  A    between atoms: C_1  and  C_2
REMARK    2  A    between atoms: C_7  and  N_12
REMARK    3  A    between atoms: C_9  and  C_11
REMARK    4  A    between atoms: C_13  and  C_15
REMARK    5  A    between atoms: C_17  and  N_22
REMARK                            x       y       z     vdW  Elec       q    Type
REMARK                         _______ _______ _______ _____ _____    ______ ____
ROOT
ATOM      1  N   UNL     1      -0.612  -2.548   1.244  0.00  0.00    -0.308 N 
ATOM      2  C   UNL     1      -0.873  -3.776   1.733  0.00  0.00    +0.245 C 
ATOM      3  O   UNL     1       0.032  -4.463   2.165  0.00  0.00    -0.270 OA
ATOM      4  H   UNL     1      -1.333  -2.000   0.898  0.00  0.00    +0.149 HD
ENDROOT
BRANCH   1  10
ATOM      5  C   UNL     1      -0.019   1.526   0.010  0.00  0.00    +0.008 C 
ATOM      6  C   UNL     1       0.002  -0.004   0.002  0.00  0.00    -0.009 C 
ATOM      7  C   UNL     1       0.718  -0.497  -1.257  0.00  0.00    +0.003 C 
ATOM      8  C   UNL     1       0.739  -2.027  -1.265  0.00  0.00    +0.002 C 
ATOM      9  C   UNL     1       1.479  -2.534  -0.026  0.00  0.00    +0.022 C 
ATOM     10  C   UNL     1       0.763  -2.041   1.233  0.00  0.00    +0.076 C 
ATOM     11  C   UNL     1       0.742  -0.511   1.242  0.00  0.00    +0.009 C 
ATOM     12  C   UNL     1       0.026  -0.018   2.500  0.00  0.00    +0.009 C 
ENDBRANCH   1  10
BRANCH   2  13
ATOM     13  C   UNL     1      -2.260  -4.288   1.743  0.00  0.00    +0.052 A 
ATOM     14  C   UNL     1      -3.299  -3.503   1.242  0.00  0.00    +0.037 A 
ATOM     15  C   UNL     1      -4.597  -3.990   1.255  0.00  0.00    +0.025 A 
ATOM     16  C   UNL     1      -4.860  -5.256   1.766  0.00  0.00    +0.024 A 
ATOM     17  C   UNL     1      -3.831  -6.033   2.263  0.00  0.00    +0.018 A 
ATOM     18  C   UNL     1      -2.533  -5.560   2.250  0.00  0.00    +0.030 A 
ATOM     19 BR   UNL     1      -1.129  -6.632   2.924  0.00  0.00    -0.050 Br
BRANCH  15  20
ATOM     20  N   UNL     1      -5.641  -3.208   0.754  0.00  0.00    -0.358 N 
ATOM     21  H   UNL     1      -5.458  -2.325   0.397  0.00  0.00    +0.142 HD
ATOM     22  H   UNL     1      -6.549  -3.549   0.763  0.00  0.00    +0.142 HD
ENDBRANCH  15  20
ENDBRANCH   2  13
TORSDOF 3
