REMARK  Name = ZINC12530435
REMARK  8 active torsions:
REMARK  status: ('A' for Active; 'I' for Inactive)
REMARK    1  A    between atoms: C_4  and  S_7
REMARK    2  A    between atoms: S_7  and  N_10
REMARK    3  A    between atoms: N_10  and  C_11
REMARK    4  A    between atoms: C_20  and  C_23
REMARK    5  A    between atoms: C_23  and  C_24
REMARK    6  A    between atoms: C_24  and  C_25
REMARK    7  A    between atoms: N_27  and  C_28
REMARK    8  A    between atoms: C_28  and  C_29
REMARK                            x       y       z     vdW  Elec       q    Type
REMARK                         _______ _______ _______ _____ _____    ______ ____
ROOT
ATOM      1  C   UNL     1      -0.744   4.253   2.979  0.00  0.00    +0.059 C 
ATOM      2  C   UNL     1      -0.296   5.686   2.585  0.00  0.00    +0.012 C 
ATOM      3  C   UNL     1       0.518   5.479   1.308  0.00  0.00    +0.021 C 
ATOM      4  C   UNL     1       1.671   6.407   1.115  0.00  0.00    +0.200 C 
ATOM      5  O   UNL     1       1.612   7.551   1.514  0.00  0.00    -0.278 OA
ATOM      6  N   UNL     1       2.778   5.957   0.493  0.00  0.00    -0.318 N 
ATOM      7  C   UNL     1       2.997   4.574   0.092  0.00  0.00    +0.089 C 
ATOM      8  C   UNL     1       1.726   3.723   0.228  0.00  0.00    -0.050 C 
ATOM      9  C   UNL     1      -0.074   3.323   1.929  0.00  0.00    -0.057 C 
ATOM     10  H   UNL     1       3.479   6.599   0.300  0.00  0.00    +0.149 HD
ATOM     11  N   UNL     1       1.067   4.170   1.498  0.00  0.00    +0.391 N 
ATOM     12  H   UNL     1       1.774   4.186   2.242  0.00  0.00    -0.080 HD
ENDROOT
BRANCH   1  13
ATOM     13  N   UNL     1      -0.274   3.924   4.327  0.00  0.00    -0.189 NA
ATOM     14  H   UNL     1       0.589   4.245   4.632  0.00  0.00    +0.148 HD
BRANCH  13  15
ATOM     15  S   UNL     1      -1.216   3.005   5.332  0.00  0.00    +0.059 S 
ATOM     16  O   UNL     1      -0.471   2.815   6.527  0.00  0.00    -0.153 OA
ATOM     17  O   UNL     1      -2.510   3.593   5.327  0.00  0.00    -0.153 OA
BRANCH  15  21
ATOM     18  C   UNL     1      -1.642  -1.071   3.410  0.00  0.00    +0.000 A 
ATOM     19  C   UNL     1      -0.650  -0.849   4.347  0.00  0.00    +0.002 A 
ATOM     20  C   UNL     1      -0.520   0.396   4.933  0.00  0.00    +0.028 A 
ATOM     21  C   UNL     1      -1.382   1.419   4.583  0.00  0.00    +0.105 A 
ATOM     22  C   UNL     1      -2.377   1.195   3.651  0.00  0.00    +0.028 A 
ATOM     23  C   UNL     1      -2.503  -0.049   3.060  0.00  0.00    +0.002 A 
ENDBRANCH  15  21
ENDBRANCH  13  15
ENDBRANCH   1  13
BRANCH   8  24
ATOM     24  C   UNL     1       2.095   2.239   0.273  0.00  0.00    -0.005 C 
BRANCH  24  25
ATOM     25  C   UNL     1       2.659   1.813  -1.083  0.00  0.00    +0.094 C 
BRANCH  25  26
ATOM     26  C   UNL     1       2.906   0.326  -1.080  0.00  0.00    +0.213 C 
ATOM     27  O   UNL     1       2.747  -0.313  -0.061  0.00  0.00    -0.276 OA
ATOM     28  N   UNL     1       3.303  -0.294  -2.209  0.00  0.00    -0.311 N 
ATOM     29  H   UNL     1       3.494   0.226  -3.006  0.00  0.00    +0.149 HD
BRANCH  28  30
ATOM     30  C   UNL     1       3.445  -1.752  -2.233  0.00  0.00    +0.139 C 
BRANCH  30  31
ATOM     31  C   UNL     1       3.778  -2.201  -3.633  0.00  0.00    -0.030 A 
ATOM     32  C   UNL     1       2.765  -2.424  -4.546  0.00  0.00    +0.008 A 
ATOM     33  C   UNL     1       3.069  -2.830  -5.832  0.00  0.00    +0.038 A 
ATOM     34  C   UNL     1       4.389  -3.025  -6.201  0.00  0.00    +0.123 A 
ATOM     35  C   UNL     1       5.403  -2.807  -5.283  0.00  0.00    +0.038 A 
ATOM     36  C   UNL     1       5.096  -2.395  -4.000  0.00  0.00    +0.008 A 
ATOM     37  F   UNL     1       4.688  -3.429  -7.455  0.00  0.00    -0.205 F 
ENDBRANCH  30  31
ENDBRANCH  28  30
ENDBRANCH  25  26
ENDBRANCH  24  25
ENDBRANCH   8  24
TORSDOF 8
