REMARK  Name = ZINC39695779
REMARK  7 active torsions:
REMARK  status: ('A' for Active; 'I' for Inactive)
REMARK    1  A    between atoms: C_1  and  C_2
REMARK    2  A    between atoms: C_10  and  C_12
REMARK    3  A    between atoms: C_12  and  C_13
REMARK    4  A    between atoms: C_12  and  N_14
REMARK    5  A    between atoms: C_15  and  C_17
REMARK    6  A    between atoms: C_27  and  C_29
REMARK    7  A    between atoms: C_33  and  C_36
REMARK                            x       y       z     vdW  Elec       q    Type
REMARK                         _______ _______ _______ _____ _____    ______ ____
ROOT
ATOM      1  C   UNL     1      -1.623  -8.782   1.003  0.00  0.00    +0.100 C 
ATOM      2  C   UNL     1      -2.916  -8.258   0.339  0.00  0.00    +0.121 C 
ATOM      3  N   UNL     1      -3.820  -9.432   0.299  0.00  0.00    -0.296 N 
ATOM      4  C   UNL     1      -3.589 -10.118   1.593  0.00  0.00    +0.115 C 
ATOM      5  C   UNL     1      -2.072 -10.001   1.826  0.00  0.00    -0.004 C 
ATOM      6  C   UNL     1      -1.365 -11.260   1.333  0.00  0.00    -0.010 C 
ATOM      7  C   UNL     1      -1.784 -12.448   2.203  0.00  0.00    -0.082 C 
ATOM      8  N   UNL     1      -1.431 -12.181   3.603  0.00  0.00    +0.379 N 
ATOM      9  C   UNL     1      -2.184 -11.023   4.097  0.00  0.00    -0.082 C 
ATOM     10  C   UNL     1      -1.783  -9.774   3.307  0.00  0.00    -0.010 C 
ATOM     11  C   UNL     1      -4.661  -9.794  -0.689  0.00  0.00    +0.252 C 
ATOM     12  O   UNL     1      -5.343 -10.793  -0.571  0.00  0.00    -0.270 OA
ATOM     13  H   UNL     1      -1.652 -12.989   4.164  0.00  0.00    -0.086 HD
ATOM     14  H   UNL     1      -0.442 -11.990   3.667  0.00  0.00    -0.086 HD
ENDROOT
BRANCH  11  15
ATOM     15  C   UNL     1      -4.755  -8.978  -1.914  0.00  0.00    +0.107 A 
ATOM     16  C   UNL     1      -3.925  -9.252  -3.007  0.00  0.00    +0.138 A 
ATOM     17  C   UNL     1      -4.019  -8.483  -4.151  0.00  0.00    +0.039 A 
ATOM     18  C   UNL     1      -4.931  -7.444  -4.218  0.00  0.00    +0.009 A 
ATOM     19  C   UNL     1      -5.755  -7.166  -3.143  0.00  0.00    -0.014 A 
ATOM     20  C   UNL     1      -5.677  -7.929  -1.993  0.00  0.00    +0.141 A 
ATOM     21  F   UNL     1      -6.487  -7.660  -0.945  0.00  0.00    -0.204 F 
ATOM     22  C   UNL     1      -6.743  -6.032  -3.227  0.00  0.00    +0.047 C 
ATOM     23  F   UNL     1      -3.034 -10.265  -2.944  0.00  0.00    -0.205 F 
ENDBRANCH  11  15
BRANCH   1  25
ATOM     24  N   UNL     1       0.297  -7.696   2.121  0.00  0.00    -0.305 N 
ATOM     25  C   UNL     1      -1.032  -7.728   1.904  0.00  0.00    +0.219 C 
ATOM     26  O   UNL     1      -1.754  -6.910   2.434  0.00  0.00    -0.275 OA
ATOM     27  H   UNL     1       0.874  -8.351   1.697  0.00  0.00    +0.149 HD
BRANCH  24  28
ATOM     28  C   UNL     1       0.872  -6.672   2.998  0.00  0.00    +0.136 C 
ATOM     29  C   UNL     1       0.794  -7.143   4.451  0.00  0.00    +0.036 C 
BRANCH  28  39
ATOM     30  C   UNL     1       7.806  -4.314   1.679  0.00  0.00    +0.044 C 
ATOM     31  C   UNL     1       6.571  -5.175   1.739  0.00  0.00    -0.048 A 
ATOM     32  C   UNL     1       6.601  -6.461   1.219  0.00  0.00    +0.005 A 
ATOM     33  C   UNL     1       5.491  -7.257   1.263  0.00  0.00    +0.030 A 
ATOM     34  C   UNL     1       4.312  -6.776   1.838  0.00  0.00    +0.089 A 
ATOM     35  C   UNL     1       4.281  -5.473   2.365  0.00  0.00    +0.067 A 
ATOM     36  C   UNL     1       5.420  -4.681   2.315  0.00  0.00    +0.031 A 
ATOM     37  N   UNL     1       3.003  -5.290   2.853  0.00  0.00    -0.340 N 
ATOM     38  H   UNL     1       2.660  -4.490   3.282  0.00  0.00    +0.167 HD
ATOM     39  C   UNL     1       2.312  -6.439   2.621  0.00  0.00    +0.128 A 
ATOM     40  N   UNL     1       3.077  -7.308   2.027  0.00  0.00    -0.231 NA
ENDBRANCH  28  39
ENDBRANCH  24  28
ENDBRANCH   1  25
TORSDOF 4
