REMARK  Name = ZINC06746970
REMARK  11 active torsions:
REMARK  status: ('A' for Active; 'I' for Inactive)
REMARK    1  A    between atoms: C_1  and  C_2
REMARK    2  A    between atoms: C_2  and  C_3
REMARK    3  A    between atoms: C_3  and  O_4
REMARK    4  A    between atoms: O_4  and  C_5
REMARK    5  A    between atoms: C_8  and  S_11
REMARK    6  A    between atoms: S_11  and  N_14
REMARK    7  A    between atoms: N_14  and  C_15
REMARK    8  A    between atoms: C_17  and  C_22
REMARK    9  A    between atoms: C_17  and  C_23
REMARK   10  A    between atoms: C_18  and  C_20
REMARK   11  A    between atoms: C_18  and  C_21
REMARK                            x       y       z     vdW  Elec       q    Type
REMARK                         _______ _______ _______ _____ _____    ______ ____
ROOT
ATOM      1  N   UNL     1       0.376   5.050  -1.216  0.00  0.00    -0.187 NA
ATOM      2  H   UNL     1       0.442   5.551  -0.388  0.00  0.00    +0.148 HD
ENDROOT
BRANCH   1   3
ATOM      3  C   UNL     1       0.383   3.582  -1.188  0.00  0.00    +0.074 C 
ATOM      4  C   UNL     1       1.307   3.104  -0.068  0.00  0.00    +0.007 C 
ATOM      5  C   UNL     1       1.318   1.579  -0.002  0.00  0.00    -0.072 C 
ATOM      6  C   UNL     1      -1.049   1.551  -0.842  0.00  0.00    -0.072 C 
ATOM      7  C   UNL     1      -1.030   3.077  -0.900  0.00  0.00    +0.007 C 
ATOM      8  C   UNL     1      -0.958   0.983  -2.263  0.00  0.00    -0.010 C 
ATOM      9  C   UNL     1      -2.418   1.125  -0.266  0.00  0.00    -0.010 C 
ATOM     10  C   UNL     1       2.027   1.175   1.309  0.00  0.00    -0.010 C 
ATOM     11  C   UNL     1       2.153   1.022  -1.161  0.00  0.00    -0.010 C 
ATOM     12  N   UNL     1      -0.027   0.945   0.053  0.00  0.00    +0.386 N 
ATOM     13  H   UNL     1      -0.370   1.012   1.019  0.00  0.00    -0.084 HD
ATOM     14  H   UNL     1       0.076  -0.043  -0.206  0.00  0.00    -0.084 HD
ENDBRANCH   1   3
BRANCH   1  15
ATOM     15  S   UNL     1       0.256   5.849  -2.661  0.00  0.00    +0.059 S 
ATOM     16  O   UNL     1       0.249   7.238  -2.358  0.00  0.00    -0.153 OA
ATOM     17  O   UNL     1       1.215   5.264  -3.530  0.00  0.00    -0.153 OA
BRANCH  15  21
ATOM     18  C   UNL     1      -3.817   4.882  -4.390  0.00  0.00    +0.121 A 
ATOM     19  C   UNL     1      -3.658   5.982  -3.559  0.00  0.00    +0.047 A 
ATOM     20  C   UNL     1      -2.414   6.275  -3.033  0.00  0.00    +0.032 A 
ATOM     21  C   UNL     1      -1.329   5.473  -3.334  0.00  0.00    +0.105 A 
ATOM     22  C   UNL     1      -1.483   4.380  -4.166  0.00  0.00    +0.032 A 
ATOM     23  C   UNL     1      -2.726   4.080  -4.691  0.00  0.00    +0.047 A 
BRANCH  18  24
ATOM     24  O   UNL     1      -5.039   4.592  -4.909  0.00  0.00    -0.492 OA
BRANCH  24  25
ATOM     25  C   UNL     1      -5.128   3.445  -5.756  0.00  0.00    +0.229 C 
BRANCH  25  27
ATOM     26  C   UNL     1      -6.665   2.051  -7.148  0.00  0.00    +0.007 C 
ATOM     27  C   UNL     1      -6.569   3.280  -6.241  0.00  0.00    +0.038 C 
ENDBRANCH  25  27
ENDBRANCH  24  25
ENDBRANCH  18  24
ENDBRANCH  15  21
ENDBRANCH   1  15
TORSDOF 6
