REMARK  Name = ZINC43978153
REMARK  8 active torsions:
REMARK  status: ('A' for Active; 'I' for Inactive)
REMARK    1  A    between atoms: C_1  and  C_2
REMARK    2  A    between atoms: C_4  and  C_7
REMARK    3  A    between atoms: N_9  and  C_10
REMARK    4  A    between atoms: C_10  and  C_11
REMARK    5  A    between atoms: N_19  and  C_20
REMARK    6  A    between atoms: C_20  and  C_21
REMARK    7  A    between atoms: C_20  and  C_22
REMARK    8  A    between atoms: C_20  and  C_23
REMARK                            x       y       z     vdW  Elec       q    Type
REMARK                         _______ _______ _______ _____ _____    ______ ____
ROOT
ATOM      1  C   UNL     1       0.089  -6.798  -2.270  0.00  0.00    +0.009 C 
ATOM      2  C   UNL     1       1.399  -7.001  -1.506  0.00  0.00    +0.024 C 
ATOM      3  C   UNL     1       1.398  -8.389  -0.859  0.00  0.00    +0.109 C 
ATOM      4  N   UNL     1       1.144  -9.396  -1.899  0.00  0.00    -0.286 N 
ATOM      5  C   UNL     1      -0.042  -9.245  -2.752  0.00  0.00    +0.109 C 
ATOM      6  C   UNL     1      -0.025  -7.847  -3.378  0.00  0.00    +0.024 C 
ATOM      7  C   UNL     1       1.983 -10.437  -2.066  0.00  0.00    +0.303 C 
ATOM      8  O   UNL     1       3.011 -10.499  -1.419  0.00  0.00    -0.253 OA
ATOM      9  N   UNL     1       1.684 -11.408  -2.951  0.00  0.00    -0.294 N 
ATOM     10  H   UNL     1       0.901 -11.323  -3.518  0.00  0.00    +0.151 HD
ENDROOT
BRANCH   9  11
ATOM     11  C   UNL     1       2.540 -12.592  -3.057  0.00  0.00    +0.028 C 
ATOM     12  C   UNL     1       2.576 -13.317  -1.710  0.00  0.00    +0.031 C 
ATOM     13  C   UNL     1       1.981 -13.532  -4.127  0.00  0.00    +0.031 C 
ATOM     14  C   UNL     1       3.957 -12.164  -3.443  0.00  0.00    +0.031 C 
ENDBRANCH   9  11
BRANCH   1  15
ATOM     15  C   UNL     1       0.071  -5.399  -2.890  0.00  0.00    +0.108 C 
BRANCH  15  18
ATOM     16  C   UNL     1       0.043  -3.082  -2.135  0.00  0.00    +0.251 C 
ATOM     17  O   UNL     1       0.038  -2.733  -3.301  0.00  0.00    -0.270 OA
ATOM     18  N   UNL     1       0.060  -4.393  -1.824  0.00  0.00    -0.311 N 
ATOM     19  H   UNL     1       0.064  -4.671  -0.895  0.00  0.00    +0.149 HD
BRANCH  16  23
ATOM     20  C   UNL     1      -0.010   1.501   0.029  0.00  0.00    +0.044 C 
ATOM     21  C   UNL     1       0.008  -0.006   0.017  0.00  0.00    -0.043 A 
ATOM     22  C   UNL     1       0.015  -0.693  -1.173  0.00  0.00    +0.024 A 
ATOM     23  C   UNL     1       0.032  -2.076  -1.069  0.00  0.00    +0.074 A 
ATOM     24  S   UNL     1       0.037  -2.311   0.698  0.00  0.00    -0.092 S 
ATOM     25  C   UNL     1       0.023  -0.702   1.181  0.00  0.00    +0.049 A 
ENDBRANCH  16  23
ENDBRANCH  15  18
ENDBRANCH   1  15
TORSDOF 4
