REMARK  Name = ZINC63527208
REMARK  8 active torsions:
REMARK  status: ('A' for Active; 'I' for Inactive)
REMARK    1  A    between atoms: C_1  and  C_2
REMARK    2  A    between atoms: C_10  and  N_18
REMARK    3  A    between atoms: C_12  and  C_14
REMARK    4  A    between atoms: C_14  and  O_16
REMARK    5  A    between atoms: O_16  and  C_17
REMARK    6  A    between atoms: C_19  and  C_21
REMARK    7  A    between atoms: C_21  and  S_22
REMARK    8  A    between atoms: S_22  and  C_23
REMARK                            x       y       z     vdW  Elec       q    Type
REMARK                         _______ _______ _______ _____ _____    ______ ____
ROOT
ATOM      1  N   UNL     1       1.674  -5.226   0.663  0.00  0.00    -0.301 N 
ATOM      2  C   UNL     1       2.385  -6.347   0.894  0.00  0.00    +0.224 C 
ATOM      3  O   UNL     1       2.220  -6.970   1.922  0.00  0.00    -0.275 OA
ATOM      4  H   UNL     1       1.753  -4.768  -0.188  0.00  0.00    +0.150 HD
ENDROOT
BRANCH   1  13
ATOM      5  C   UNL     1      -0.418   1.381  -0.260  0.00  0.00    +0.008 C 
ATOM      6  C   UNL     1      -0.310  -0.144  -0.196  0.00  0.00    -0.009 C 
ATOM      7  C   UNL     1      -1.712  -0.755  -0.106  0.00  0.00    +0.008 C 
ATOM      8  C   UNL     1      -1.619  -2.271  -0.274  0.00  0.00    +0.033 C 
ATOM      9  C   UNL     1      -0.593  -2.823   0.713  0.00  0.00    -0.044 C 
ATOM     10  C   UNL     1       0.320  -2.032   1.265  0.00  0.00    -0.012 C 
ATOM     11  C   UNL     1       0.484  -0.552   1.050  0.00  0.00    +0.045 C 
ATOM     12  S   UNL     1       1.345  -3.051   2.301  0.00  0.00    -0.106 S 
ATOM     13  C   UNL     1       0.782  -4.698   1.699  0.00  0.00    +0.153 C 
ATOM     14  C   UNL     1      -0.587  -4.277   1.111  0.00  0.00    +0.155 C 
BRANCH  14  15
ATOM     15  C   UNL     1      -0.883  -5.122  -0.102  0.00  0.00    +0.317 C 
ATOM     16  O   UNL     1      -1.077  -4.595  -1.171  0.00  0.00    -0.250 OA
BRANCH  15  17
ATOM     17  O   UNL     1      -0.931  -6.459   0.007  0.00  0.00    -0.467 OA
ATOM     18  C   UNL     1      -1.217  -7.196  -1.183  0.00  0.00    +0.280 C 
ENDBRANCH  15  17
ENDBRANCH  14  15
ENDBRANCH   1  13
BRANCH   2  19
ATOM     19  C   UNL     1       3.386  -6.828  -0.125  0.00  0.00    +0.173 C 
BRANCH  19  20
ATOM     20  S   UNL     1       4.174  -8.349   0.472  0.00  0.00    -0.078 S 
BRANCH  20  21
ATOM     21  C   UNL     1       5.301  -8.777  -0.812  0.00  0.00    +0.170 A 
ATOM     22  N   UNL     1       6.068  -9.896  -0.686  0.00  0.00    -0.302 N 
ATOM     23  H   UNL     1       5.990 -10.456   0.102  0.00  0.00    +0.171 HD
ATOM     24  C   UNL     1       6.936 -10.219  -1.667  0.00  0.00    +0.255 A 
ATOM     25  O   UNL     1       7.635 -11.214  -1.570  0.00  0.00    -0.267 OA
ATOM     26  C   UNL     1       7.024  -9.391  -2.806  0.00  0.00    +0.038 A 
ATOM     27  C   UNL     1       6.230  -8.292  -2.883  0.00  0.00    +0.052 A 
ATOM     28  N   UNL     1       5.386  -8.015  -1.882  0.00  0.00    -0.228 NA
ATOM     29  C   UNL     1       6.242  -7.362  -4.067  0.00  0.00    +0.056 C 
ATOM     30  C   UNL     1       7.513  -7.557  -4.891  0.00  0.00    +0.006 C 
ATOM     31  C   UNL     1       7.672  -9.053  -5.189  0.00  0.00    +0.005 C 
ATOM     32  C   UNL     1       8.005  -9.770  -3.882  0.00  0.00    +0.042 C 
ENDBRANCH  20  21
ENDBRANCH  19  20
ENDBRANCH   2  19
TORSDOF 6
