REMARK  Name = ZINC12594626
REMARK  6 active torsions:
REMARK  status: ('A' for Active; 'I' for Inactive)
REMARK    1  A    between atoms: C_1  and  C_2
REMARK    2  A    between atoms: C_2  and  C_3
REMARK    3  A    between atoms: C_3  and  C_5
REMARK    4  A    between atoms: C_3  and  N_6
REMARK    5  A    between atoms: C_7  and  C_9
REMARK    6  A    between atoms: C_9  and  N_10
REMARK                            x       y       z     vdW  Elec       q    Type
REMARK                         _______ _______ _______ _____ _____    ______ ____
ROOT
ATOM      1  N   UNL     1      -2.429   0.978   0.019  0.00  0.00    -0.215 N 
ATOM      2  C   UNL     1      -2.994   0.471   1.141  0.00  0.00    +0.251 C 
ATOM      3  O   UNL     1      -2.610   0.689   2.270  0.00  0.00    -0.272 OA
ATOM      4  C   UNL     1      -4.143  -0.373   0.673  0.00  0.00    +0.138 C 
ATOM      5  C   UNL     1      -4.062  -1.812   1.169  0.00  0.00    +0.040 C 
ATOM      6  C   UNL     1      -3.760  -1.898   2.650  0.00  0.00    +0.003 C 
ATOM      7  C   UNL     1      -4.905  -1.469   3.546  0.00  0.00    +0.005 C 
ATOM      8  C   UNL     1      -5.085   0.048   3.515  0.00  0.00    +0.035 C 
ATOM      9  C   UNL     1      -5.911   0.426   2.304  0.00  0.00    -0.042 A 
ATOM     10  C   UNL     1      -5.480   0.237   1.023  0.00  0.00    -0.012 A 
ATOM     11  C   UNL     1      -6.296   0.620  -0.039  0.00  0.00    +0.006 A 
ATOM     12  C   UNL     1      -7.535   1.181   0.198  0.00  0.00    +0.000 A 
ATOM     13  C   UNL     1      -7.970   1.366   1.496  0.00  0.00    +0.000 A 
ATOM     14  C   UNL     1      -7.159   0.989   2.548  0.00  0.00    +0.004 A 
ATOM     15  N   UNL     1      -3.999  -0.374  -0.798  0.00  0.00    -0.281 N 
ATOM     16  C   UNL     1      -2.995   0.474  -1.083  0.00  0.00    +0.310 C 
ATOM     17  O   UNL     1      -2.641   0.752  -2.213  0.00  0.00    -0.252 OA
ATOM     18  H   UNL     1      -4.528  -0.892  -1.421  0.00  0.00    +0.152 HD
ENDROOT
BRANCH   1  19
ATOM     19  C   UNL     1      -1.330   1.944   0.019  0.00  0.00    +0.213 C 
BRANCH  19  21
ATOM     20  N   UNL     1       1.143   1.898   0.001  0.00  0.00    -0.311 N 
ATOM     21  C   UNL     1      -0.014   1.209   0.009  0.00  0.00    +0.231 C 
ATOM     22  O   UNL     1       0.002  -0.004   0.002  0.00  0.00    -0.274 OA
ATOM     23  H   UNL     1       1.130   2.868   0.007  0.00  0.00    +0.149 HD
BRANCH  20  24
ATOM     24  C   UNL     1       2.422   1.183  -0.015  0.00  0.00    +0.070 C 
ATOM     25  C   UNL     1       2.792   0.832  -1.457  0.00  0.00    +0.028 C 
BRANCH  24  27
ATOM     26  C   UNL     1       3.205   2.320   2.068  0.00  0.00    +0.005 C 
ATOM     27  C   UNL     1       3.511   2.072   0.589  0.00  0.00    +0.018 C 
ENDBRANCH  24  27
ENDBRANCH  20  24
ENDBRANCH  19  21
ENDBRANCH   1  19
TORSDOF 4
