REMARK  Name = ZINC13129020
REMARK  14 active torsions:
REMARK  status: ('A' for Active; 'I' for Inactive)
REMARK    1  A    between atoms: C_1  and  C_2
REMARK    2  A    between atoms: C_4  and  C_34
REMARK    3  A    between atoms: C_5  and  N_9
REMARK    4  A    between atoms: C_6  and  C_8
REMARK    5  A    between atoms: C_10  and  C_12
REMARK    6  A    between atoms: C_12  and  O_13
REMARK    7  A    between atoms: O_13  and  C_14
REMARK    8  A    between atoms: C_14  and  C_16
REMARK    9  A    between atoms: C_16  and  C_18
REMARK   10  A    between atoms: C_16  and  N_22
REMARK   11  A    between atoms: C_18  and  C_20
REMARK   12  A    between atoms: C_18  and  O_21
REMARK   13  A    between atoms: N_22  and  S_23
REMARK   14  A    between atoms: S_23  and  C_26
REMARK                            x       y       z     vdW  Elec       q    Type
REMARK                         _______ _______ _______ _____ _____    ______ ____
ROOT
ATOM      1  C   UNL     1      -2.297  -0.549   1.259  0.00  0.00    +0.213 C 
ENDROOT
BRANCH   1   2
ATOM      2  C   UNL     1      -1.762   0.161   2.476  0.00  0.00    +0.329 C 
ATOM      3  O   UNL     1      -1.306  -0.477   3.396  0.00  0.00    -0.249 OA
BRANCH   2   4
ATOM      4  O   UNL     1      -1.790   1.501   2.538  0.00  0.00    -0.454 OA
BRANCH   4   5
ATOM      5  C   UNL     1      -1.258   2.117   3.740  0.00  0.00    +0.328 C 
BRANCH   5   7
ATOM      6  N   UNL     1      -0.939   4.401   4.636  0.00  0.00    -0.282 N 
ATOM      7  C   UNL     1      -1.373   3.616   3.630  0.00  0.00    +0.255 C 
ATOM      8  O   UNL     1      -1.857   4.115   2.636  0.00  0.00    -0.272 OA
ATOM      9  H   UNL     1      -0.457   3.950   5.516  0.00  0.00    +0.155 HD
BRANCH   6  14
ATOM     10  C   UNL     1      -1.595  10.027   4.329  0.00  0.00    +0.044 C 
ATOM     11  C   UNL     1      -1.421   8.533   4.411  0.00  0.00    -0.050 A 
ATOM     12  C   UNL     1      -1.950   7.833   5.480  0.00  0.00    +0.008 A 
ATOM     13  C   UNL     1      -1.791   6.464   5.558  0.00  0.00    -0.029 A 
ATOM     14  C   UNL     1      -1.100   5.788   4.560  0.00  0.00    +0.039 A 
ATOM     15  C   UNL     1      -0.565   6.494   3.490  0.00  0.00    -0.029 A 
ATOM     16  C   UNL     1      -0.732   7.863   3.416  0.00  0.00    +0.008 A 
ATOM     17  C   UNL     1       0.191   5.766   2.409  0.00  0.00    +0.045 C 
ATOM     18  C   UNL     1      -2.369   5.702   6.723  0.00  0.00    +0.045 C 
ENDBRANCH   6  14
ENDBRANCH   5   7
ENDBRANCH   4   5
ENDBRANCH   2   4
ENDBRANCH   1   2
BRANCH   1  19
ATOM     19  C   UNL     1      -3.776  -0.202   1.076  0.00  0.00    +0.141 C 
ATOM     20  C   UNL     1      -3.913   1.282   0.729  0.00  0.00    +0.040 C 
BRANCH  19  21
ATOM     21  O   UNL     1      -4.323  -0.991   0.018  0.00  0.00    -0.390 OA
ATOM     22  H   UNL     1      -5.381  -0.880  -0.261  0.00  0.00    +0.210 HD
ENDBRANCH  19  21
ENDBRANCH   1  19
BRANCH   1  23
ATOM     23  N   UNL     1      -2.154  -1.996   1.435  0.00  0.00    -0.174 NA
ATOM     24  H   UNL     1      -2.589  -2.489   2.317  0.00  0.00    +0.149 HD
BRANCH  23  25
ATOM     25  S   UNL     1      -1.134  -2.853   0.451  0.00  0.00    +0.059 S 
ATOM     26  O   UNL     1      -1.161  -4.197   0.909  0.00  0.00    -0.153 OA
ATOM     27  O   UNL     1      -1.464  -2.497  -0.885  0.00  0.00    -0.153 OA
BRANCH  25  28
ATOM     28  C   UNL     1       0.497  -2.254   0.743  0.00  0.00    +0.107 A 
ATOM     29  C   UNL     1       0.993  -1.205  -0.009  0.00  0.00    +0.030 A 
ATOM     30  C   UNL     1       2.270  -0.730   0.222  0.00  0.00    +0.023 A 
ATOM     31  C   UNL     1       3.058  -1.312   1.200  0.00  0.00    +0.059 A 
ATOM     32  C   UNL     1       2.563  -2.366   1.949  0.00  0.00    +0.061 A 
ATOM     33  C   UNL     1       1.282  -2.837   1.719  0.00  0.00    +0.050 A 
ATOM     34 CL   UNL     1       3.550  -3.098   3.176  0.00  0.00    -0.082 Cl
ATOM     35 CL   UNL     1       4.664  -0.721   1.487  0.00  0.00    -0.082 Cl
ENDBRANCH  25  28
ENDBRANCH  23  25
ENDBRANCH   1  23
TORSDOF 10
