REMARK  Name = ZINC13517338
REMARK  12 active torsions:
REMARK  status: ('A' for Active; 'I' for Inactive)
REMARK    1  A    between atoms: C_1  and  C_2
REMARK    2  A    between atoms: C_4  and  C_23
REMARK    3  A    between atoms: C_7  and  C_13
REMARK    4  A    between atoms: N_11  and  O_12
REMARK    5  A    between atoms: C_15  and  O_21
REMARK    6  A    between atoms: C_18  and  O_19
REMARK    7  A    between atoms: O_19  and  C_20
REMARK    8  A    between atoms: O_21  and  C_22
REMARK    9  A    between atoms: C_25  and  O_31
REMARK   10  A    between atoms: C_28  and  O_29
REMARK   11  A    between atoms: O_29  and  C_30
REMARK   12  A    between atoms: O_31  and  C_32
REMARK                            x       y       z     vdW  Elec       q    Type
REMARK                         _______ _______ _______ _____ _____    ______ ____
ROOT
ATOM      1  C   UNL     1      -0.053   1.542  -0.147  0.00  0.00    +0.016 C 
ATOM      2  C   UNL     1      -0.016   0.012  -0.156  0.00  0.00    +0.055 C 
ATOM      3  C   UNL     1      -1.434  -0.541   0.028  0.00  0.00    +0.096 C 
ATOM      4  N   UNL     1      -1.923  -0.193   1.367  0.00  0.00    -0.301 NA
ATOM      5  C   UNL     1      -1.141  -0.858   2.417  0.00  0.00    +0.094 C 
ATOM      6  C   UNL     1       0.296  -0.327   2.396  0.00  0.00    +0.078 C 
ATOM      7  C   UNL     1       0.840  -0.485   0.990  0.00  0.00    +0.064 C 
ATOM      8  N   UNL     1       1.982  -1.021   0.778  0.00  0.00    -0.096 NA
ATOM      9  H   UNL     1      -1.930   0.807   1.501  0.00  0.00    +0.123 HD
ENDROOT
BRANCH   5  10
ATOM     10  C   UNL     1      -1.762  -0.576   3.761  0.00  0.00    +0.015 A 
ATOM     11  C   UNL     1      -2.615   0.499   3.916  0.00  0.00    +0.054 A 
ATOM     12  C   UNL     1      -3.187   0.759   5.152  0.00  0.00    +0.121 A 
ATOM     13  C   UNL     1      -2.901  -0.061   6.234  0.00  0.00    +0.049 A 
ATOM     14  C   UNL     1      -2.047  -1.135   6.080  0.00  0.00    +0.049 A 
ATOM     15  C   UNL     1      -1.480  -1.398   4.842  0.00  0.00    +0.125 A 
BRANCH  15  16
ATOM     16  O   UNL     1      -0.644  -2.460   4.688  0.00  0.00    -0.495 OA
ATOM     17  C   UNL     1      -0.399  -3.264   5.843  0.00  0.00    +0.277 C 
ENDBRANCH  15  16
BRANCH  12  18
ATOM     18  O   UNL     1      -4.027   1.818   5.304  0.00  0.00    -0.495 OA
ATOM     19  C   UNL     1      -4.579   2.026   6.606  0.00  0.00    +0.277 C 
ENDBRANCH  12  18
ENDBRANCH   5  10
BRANCH   3  20
ATOM     20  C   UNL     1      -1.413  -2.040  -0.126  0.00  0.00    +0.015 A 
ATOM     21  C   UNL     1      -0.303  -2.663  -0.664  0.00  0.00    +0.054 A 
ATOM     22  C   UNL     1      -0.284  -4.043  -0.805  0.00  0.00    +0.121 A 
ATOM     23  C   UNL     1      -1.379  -4.796  -0.407  0.00  0.00    +0.049 A 
ATOM     24  C   UNL     1      -2.487  -4.173   0.131  0.00  0.00    +0.049 A 
ATOM     25  C   UNL     1      -2.505  -2.793   0.277  0.00  0.00    +0.125 A 
BRANCH  25  26
ATOM     26  O   UNL     1      -3.594  -2.180   0.811  0.00  0.00    -0.495 OA
ATOM     27  C   UNL     1      -4.683  -3.018   1.205  0.00  0.00    +0.277 C 
ENDBRANCH  25  26
BRANCH  22  28
ATOM     28  O   UNL     1       0.808  -4.657  -1.335  0.00  0.00    -0.495 OA
ATOM     29  C   UNL     1       0.759  -6.080  -1.451  0.00  0.00    +0.277 C 
ENDBRANCH  22  28
ENDBRANCH   3  20
BRANCH   8  30
ATOM     30  O   UNL     1       2.763  -1.478   1.868  0.00  0.00    -0.409 OA
ATOM     31  H   UNL     1       3.610  -1.868   1.609  0.00  0.00    +0.328 HD
ENDBRANCH   8  30
TORSDOF 7
