REMARK  Name = ZINC12744396
REMARK  11 active torsions:
REMARK  status: ('A' for Active; 'I' for Inactive)
REMARK    1  A    between atoms: C_1  and  O_2
REMARK    2  A    between atoms: O_2  and  C_3
REMARK    3  A    between atoms: C_6  and  N_9
REMARK    4  A    between atoms: C_11  and  C_21
REMARK    5  A    between atoms: C_12  and  C_14
REMARK    6  A    between atoms: C_21  and  N_48
REMARK    7  A    between atoms: CA_22  and  C_23
REMARK    8  A    between atoms: CA_22  and  CB_25
REMARK    9  A    between atoms: CA_22  and  N_48
REMARK   10  A    between atoms: C_23  and  O_24
REMARK   11  A    between atoms: CB_25  and  OG_26
REMARK                            x       y       z     vdW  Elec       q    Type
REMARK                         _______ _______ _______ _____ _____    ______ ____
ROOT
ATOM      1  N   UNL     1       4.604   4.522  -0.052  0.00  0.00    -0.239 N 
ATOM      2  C   UNL     1       3.916   5.684  -0.197  0.00  0.00    +0.116 A 
ATOM      3  C   UNL     1       2.598   5.401  -0.103  0.00  0.00    -0.019 A 
ATOM      4  C   UNL     1       2.469   4.015   0.116  0.00  0.00    +0.096 A 
ATOM      5  N   UNL     1       3.676   3.491   0.142  0.00  0.00    -0.166 NA
ENDROOT
BRANCH   4   6
ATOM      6  C   UNL     1       1.193   3.275   0.282  0.00  0.00    +0.021 A 
ATOM      7  C   UNL     1       0.144   3.481  -0.611  0.00  0.00    +0.011 A 
ATOM      8  C   UNL     1      -1.040   2.790  -0.452  0.00  0.00    +0.001 A 
ATOM      9  C   UNL     1      -1.189   1.899   0.596  0.00  0.00    +0.001 A 
ATOM     10  C   UNL     1      -0.150   1.686   1.483  0.00  0.00    +0.020 A 
ATOM     11  C   UNL     1       1.040   2.372   1.333  0.00  0.00    +0.050 A 
ATOM     12 CL   UNL     1       2.342   2.109   2.451  0.00  0.00    -0.083 Cl
ENDBRANCH   4   6
BRANCH   1  16
ATOM     13  C   UNL     1       8.751   4.098  -0.170  0.00  0.00    +0.120 A 
ATOM     14  C   UNL     1       7.946   2.986   0.032  0.00  0.00    +0.048 A 
ATOM     15  C   UNL     1       6.573   3.126   0.071  0.00  0.00    +0.031 A 
ATOM     16  C   UNL     1       5.998   4.380  -0.092  0.00  0.00    +0.066 A 
ATOM     17  C   UNL     1       6.804   5.491  -0.300  0.00  0.00    +0.031 A 
ATOM     18  C   UNL     1       8.177   5.351  -0.333  0.00  0.00    +0.048 A 
BRANCH  13  20
ATOM     19  C   UNL     1      10.871   5.146  -0.420  0.00  0.00    +0.277 C 
ATOM     20  O   UNL     1      10.103   3.959  -0.209  0.00  0.00    -0.495 OA
ENDBRANCH  13  20
ENDBRANCH   1  16
BRANCH   3  21
ATOM     21  C   ACE A   0       1.468   6.391  -0.210  0.00  0.00    -0.042 C 
BRANCH  21  22
ATOM     22  N   UNL     1       0.922   6.649   1.136  0.00  0.00    +0.387 N 
ATOM     23  H1  UNL     1       1.638   7.109   1.710  0.00  0.00    -0.085 HD
ATOM     24  H2  UNL     1       0.656   5.757   1.570  0.00  0.00    -0.085 HD
BRANCH  22  25
ATOM     25  CA  UNL     1      -0.266   7.520   1.048  0.00  0.00    -0.020 C 
BRANCH  25  26
ATOM     26  C   UNL     1      -1.171   7.257   2.254  0.00  0.00    +0.142 C 
BRANCH  26  27
ATOM     27  O   UNL     1      -0.495   7.647   3.451  0.00  0.00    -0.397 OA
ATOM     28  H   UNL     1      -1.011   7.508   4.257  0.00  0.00    +0.209 HD
ENDBRANCH  26  27
ENDBRANCH  25  26
BRANCH  25  29
ATOM     29  CB  UNL     1       0.175   8.985   1.051  0.00  0.00    +0.142 C 
BRANCH  29  30
ATOM     30  O   UNL     1       0.789   9.296   2.304  0.00  0.00    -0.397 OA
ATOM     31  H   UNL     1       1.093  10.211   2.376  0.00  0.00    +0.209 HD
ENDBRANCH  29  30
ENDBRANCH  25  29
ENDBRANCH  22  25
ENDBRANCH  21  22
ENDBRANCH   3  21
TORSDOF 10
