REMARK  Name = ZINC01072536
REMARK  7 active torsions:
REMARK  status: ('A' for Active; 'I' for Inactive)
REMARK    1  A    between atoms: C_1  and  O_2
REMARK    2  A    between atoms: O_2  and  C_3
REMARK    3  A    between atoms: C_6  and  C_9
REMARK    4  A    between atoms: C_9  and  C_22
REMARK    5  A    between atoms: C_11  and  C_17
REMARK    6  A    between atoms: C_25  and  O_29
REMARK    7  A    between atoms: C_27  and  O_28
REMARK                            x       y       z     vdW  Elec       q    Type
REMARK                         _______ _______ _______ _____ _____    ______ ____
ROOT
ATOM      1  C   UNL     1      -2.513   0.977   0.019  0.00  0.00    +0.089 C 
ATOM      2  C   UNL     1      -3.597   1.791  -0.697  0.00  0.00    +0.065 C 
ATOM      3  C   UNL     1      -3.196   1.951  -2.167  0.00  0.00    +0.141 C 
ATOM      4  N   UNL     1      -2.970   0.628  -2.750  0.00  0.00    -0.317 N 
ATOM      5  C   UNL     1      -2.551  -0.403  -2.001  0.00  0.00    +0.132 C 
ATOM      6  S   UNL     1      -2.294  -1.917  -2.756  0.00  0.00    -0.019 S 
ATOM      7  N   UNL     1      -2.324  -0.294  -0.682  0.00  0.00    -0.313 N 
ATOM      8  H   UNL     1      -3.127   0.494  -3.698  0.00  0.00    +0.148 HD
ATOM      9  H   UNL     1      -2.030  -1.072  -0.183  0.00  0.00    +0.149 HD
ENDROOT
BRANCH   1  13
ATOM     10  C   UNL     1       1.155   3.169   0.008  0.00  0.00    +0.120 A 
ATOM     11  C   UNL     1       1.175   1.782   0.000  0.00  0.00    +0.046 A 
ATOM     12  C   UNL     1      -0.013   1.076   0.008  0.00  0.00    +0.009 A 
ATOM     13  C   UNL     1      -1.220   1.750   0.017  0.00  0.00    -0.019 A 
ATOM     14  C   UNL     1      -1.242   3.133   0.031  0.00  0.00    +0.009 A 
ATOM     15  C   UNL     1      -0.057   3.844   0.023  0.00  0.00    +0.046 A 
BRANCH  10  17
ATOM     16  C   UNL     1       2.225   5.292   0.009  0.00  0.00    +0.277 C 
ATOM     17  O   UNL     1       2.322   3.866   0.000  0.00  0.00    -0.495 OA
ENDBRANCH  10  17
ENDBRANCH   1  13
BRANCH   1  18
ATOM     18  C   UNL     1      -2.939   0.711   1.440  0.00  0.00    +0.022 A 
ATOM     19  C   UNL     1      -3.093  -0.590   1.882  0.00  0.00    +0.013 A 
ATOM     20  C   UNL     1      -3.479  -0.837   3.185  0.00  0.00    +0.046 A 
ATOM     21  C   UNL     1      -3.723   0.220   4.051  0.00  0.00    +0.120 A 
ATOM     22  C   UNL     1      -3.574   1.525   3.608  0.00  0.00    +0.091 A 
ATOM     23  C   UNL     1      -3.182   1.771   2.301  0.00  0.00    +0.126 A 
BRANCH  23  24
ATOM     24  O   UNL     1      -3.036   3.049   1.864  0.00  0.00    -0.506 OA
ATOM     25  H   UNL     1      -3.840   3.430   1.486  0.00  0.00    +0.292 HD
ENDBRANCH  23  24
BRANCH  21  26
ATOM     26  O   UNL     1      -4.106  -0.024   5.331  0.00  0.00    -0.507 OA
ATOM     27  H   UNL     1      -5.064  -0.084   5.450  0.00  0.00    +0.292 HD
ENDBRANCH  21  26
ENDBRANCH   1  18
BRANCH   3  28
ATOM     28  C   UNL     1      -4.300   2.651  -2.917  0.00  0.00    +0.125 A 
ATOM     29  C   UNL     1      -4.326   3.956  -3.242  0.00  0.00    +0.046 A 
ATOM     30  C   UNL     1      -5.538   4.181  -3.935  0.00  0.00    +0.041 A 
ATOM     31  C   UNL     1      -6.179   3.000  -3.993  0.00  0.00    +0.195 A 
ATOM     32  O   UNL     1      -5.422   2.076  -3.379  0.00  0.00    -0.466 OA
ENDBRANCH   3  28
TORSDOF 6
