REMARK  Name = ZINC39627674
REMARK  9 active torsions:
REMARK  status: ('A' for Active; 'I' for Inactive)
REMARK    1  A    between atoms: C_1  and  N_2
REMARK    2  A    between atoms: N_2  and  C_3
REMARK    3  A    between atoms: N_2  and  C_4
REMARK    4  A    between atoms: C_4  and  C_5
REMARK    5  A    between atoms: C_5  and  C_6
REMARK    6  A    between atoms: C_6  and  N_7
REMARK    7  A    between atoms: C_8  and  C_10
REMARK    8  A    between atoms: C_21  and  C_23
REMARK    9  A    between atoms: C_26  and  C_28
REMARK                            x       y       z     vdW  Elec       q    Type
REMARK                         _______ _______ _______ _____ _____    ______ ____
ROOT
ATOM      1  C   UNL     1      -6.158  -0.218  -4.011  0.00  0.00    +0.100 C 
ATOM      2  C   UNL     1      -5.385  -0.764  -5.232  0.00  0.00    +0.121 C 
ATOM      3  N   UNL     1      -6.056  -2.044  -5.558  0.00  0.00    -0.294 N 
ATOM      4  C   UNL     1      -7.498  -1.767  -5.353  0.00  0.00    +0.115 C 
ATOM      5  C   UNL     1      -7.546  -0.876  -4.095  0.00  0.00    -0.004 C 
ATOM      6  C   UNL     1      -7.803  -1.727  -2.856  0.00  0.00    -0.010 C 
ATOM      7  C   UNL     1      -9.211  -2.325  -2.937  0.00  0.00    -0.082 C 
ATOM      8  N   UNL     1     -10.199  -1.243  -3.026  0.00  0.00    +0.379 N 
ATOM      9  C   UNL     1     -10.002  -0.486  -4.268  0.00  0.00    -0.082 C 
ATOM     10  C   UNL     1      -8.628   0.190  -4.244  0.00  0.00    -0.010 C 
ATOM     11  C   UNL     1      -5.486  -3.199  -5.954  0.00  0.00    +0.282 C 
ATOM     12  O   UNL     1      -6.179  -4.172  -6.187  0.00  0.00    -0.267 OA
ATOM     13  H   UNL     1     -11.128  -1.637  -3.018  0.00  0.00    -0.086 HD
ATOM     14  H   UNL     1     -10.092  -0.625  -2.236  0.00  0.00    -0.086 HD
ENDROOT
BRANCH  11  15
ATOM     15  C   UNL     1      -4.031  -3.284  -6.102  0.00  0.00    +0.190 A 
ATOM     16  C   UNL     1      -3.322  -4.396  -6.502  0.00  0.00    +0.055 A 
ATOM     17  C   UNL     1      -1.971  -4.033  -6.505  0.00  0.00    +0.050 A 
ATOM     18  C   UNL     1      -1.905  -2.727  -6.112  0.00  0.00    +0.136 A 
ATOM     19  O   UNL     1      -3.151  -2.284  -5.877  0.00  0.00    -0.450 OA
BRANCH  18  20
ATOM     20  C   UNL     1      -0.669  -1.932  -5.973  0.00  0.00    +0.017 A 
ATOM     21  C   UNL     1       0.571  -2.507  -6.259  0.00  0.00    +0.014 A 
ATOM     22  C   UNL     1       1.722  -1.760  -6.128  0.00  0.00    +0.039 A 
ATOM     23  C   UNL     1       1.651  -0.439  -5.712  0.00  0.00    +0.123 A 
ATOM     24  C   UNL     1       0.423   0.137  -5.426  0.00  0.00    +0.039 A 
ATOM     25  C   UNL     1      -0.735  -0.599  -5.560  0.00  0.00    +0.014 A 
ATOM     26  F   UNL     1       2.782   0.289  -5.586  0.00  0.00    -0.205 F 
ENDBRANCH  18  20
ENDBRANCH  11  15
BRANCH   1  28
ATOM     27  N   UNL     1      -5.583   0.160  -1.635  0.00  0.00    -0.315 N 
ATOM     28  C   UNL     1      -5.467  -0.614  -2.732  0.00  0.00    +0.218 C 
ATOM     29  O   UNL     1      -4.806  -1.630  -2.689  0.00  0.00    -0.275 OA
ATOM     30  H   UNL     1      -6.112   0.973  -1.669  0.00  0.00    +0.149 HD
BRANCH  27  31
ATOM     31  C   UNL     1      -4.911  -0.225  -0.391  0.00  0.00    +0.102 C 
BRANCH  31  32
ATOM     32  C   UNL     1      -5.202   0.817   0.690  0.00  0.00    +0.000 C 
BRANCH  32  33
ATOM     33  C   UNL     1      -4.500   0.415   1.989  0.00  0.00    -0.078 C 
BRANCH  33  35
ATOM     34  C   UNL     1      -6.215   1.406   3.342  0.00  0.00    -0.097 C 
ATOM     35  N   UNL     1      -4.781   1.415   3.027  0.00  0.00    +0.376 N 
ATOM     36  C   UNL     1      -4.012   1.094   4.237  0.00  0.00    -0.097 C 
ATOM     37  H   UNL     1      -4.516   2.330   2.693  0.00  0.00    -0.083 HD
ENDBRANCH  33  35
ENDBRANCH  32  33
ENDBRANCH  31  32
ENDBRANCH  27  31
ENDBRANCH   1  28
TORSDOF 7
