REMARK  Name = ZINC08789503
REMARK  4 active torsions:
REMARK  status: ('A' for Active; 'I' for Inactive)
REMARK    1  A    between atoms: C_4  and  C_7
REMARK    2  A    between atoms: C_7  and  C_8
REMARK    3  A    between atoms: N_16  and  C_19
REMARK    4  A    between atoms: C_19  and  C_20
REMARK                            x       y       z     vdW  Elec       q    Type
REMARK                         _______ _______ _______ _____ _____    ______ ____
ROOT
ATOM      1  C   UNL     1      -1.004  -1.958   0.792  0.00  0.00    -0.053 C 
ATOM      2  C   UNL     1      -1.412  -1.870  -0.693  0.00  0.00    +0.073 C 
ATOM      3  C   UNL     1      -0.738  -0.571  -1.216  0.00  0.00    +0.088 C 
ATOM      4  C   UNL     1      -1.913   0.319  -1.555  0.00  0.00    +0.225 C 
ATOM      5  O   UNL     1      -1.835   1.441  -2.008  0.00  0.00    -0.275 OA
ATOM      6  N   UNL     1      -3.053  -0.325  -1.279  0.00  0.00    -0.237 N 
ATOM      7  C   UNL     1      -2.888  -1.559  -0.788  0.00  0.00    +0.224 C 
ATOM      8  O   UNL     1      -3.784  -2.312  -0.470  0.00  0.00    -0.275 OA
ATOM      9  C   UNL     1       0.002  -0.004   0.002  0.00  0.00    +0.050 C 
ATOM     10  C   UNL     1       1.458  -0.375  -0.016  0.00  0.00    -0.028 A 
ATOM     11  C   UNL     1       2.129  -1.577  -0.031  0.00  0.00    +0.004 A 
ATOM     12  C   UNL     1       3.513  -1.598  -0.045  0.00  0.00    +0.000 A 
ATOM     13  C   UNL     1       4.218  -0.408  -0.044  0.00  0.00    +0.002 A 
ATOM     14  C   UNL     1       3.550   0.798  -0.029  0.00  0.00    +0.023 A 
ATOM     15  C   UNL     1       2.157   0.828  -0.015  0.00  0.00    +0.036 A 
ATOM     16  N   UNL     1       1.267   1.904   0.000  0.00  0.00    -0.286 N 
ATOM     17  C   UNL     1      -0.018   1.500   0.010  0.00  0.00    +0.211 C 
ATOM     18  O   UNL     1      -1.001   2.211   0.019  0.00  0.00    -0.277 OA
ATOM     19  H   UNL     1       1.542   2.834   0.004  0.00  0.00    +0.155 HD
ATOM     20  N   UNL     1      -0.674  -0.577   1.152  0.00  0.00    +0.394 N 
ATOM     21  H   UNL     1      -0.056  -0.562   1.972  0.00  0.00    -0.083 HD
ATOM     22  H   UNL     1      -1.531  -0.050   1.359  0.00  0.00    -0.083 HD
ENDROOT
BRANCH   1  23
ATOM     23  C   UNL     1      -2.164  -2.493   1.634  0.00  0.00    +0.020 C 
BRANCH  23  27
ATOM     24  C   UNL     1      -0.926  -2.843   5.707  0.00  0.00    +0.000 A 
ATOM     25  C   UNL     1      -1.492  -1.665   5.256  0.00  0.00    +0.000 A 
ATOM     26  C   UNL     1      -1.893  -1.552   3.938  0.00  0.00    +0.003 A 
ATOM     27  C   UNL     1      -1.727  -2.616   3.071  0.00  0.00    -0.049 A 
ATOM     28  C   UNL     1      -1.166  -3.796   3.524  0.00  0.00    +0.003 A 
ATOM     29  C   UNL     1      -0.760  -3.907   4.841  0.00  0.00    +0.000 A 
ENDBRANCH  23  27
ENDBRANCH   1  23
BRANCH   6  30
ATOM     30  C   UNL     1      -4.373   0.272  -1.495  0.00  0.00    +0.151 C 
BRANCH  30  31
ATOM     31  C   UNL     1      -4.803   1.004  -0.250  0.00  0.00    -0.030 A 
ATOM     32  C   UNL     1      -5.523   0.343   0.727  0.00  0.00    +0.005 A 
ATOM     33  C   UNL     1      -5.914   1.014   1.871  0.00  0.00    +0.000 A 
ATOM     34  C   UNL     1      -5.591   2.348   2.034  0.00  0.00    +0.000 A 
ATOM     35  C   UNL     1      -4.875   3.011   1.055  0.00  0.00    +0.000 A 
ATOM     36  C   UNL     1      -4.481   2.339  -0.087  0.00  0.00    +0.005 A 
ENDBRANCH  30  31
ENDBRANCH   6  30
TORSDOF 4
