REMARK  Name = ZINC45521346
REMARK  7 active torsions:
REMARK  status: ('A' for Active; 'I' for Inactive)
REMARK    1  A    between atoms: C_10  and  O_11
REMARK    2  A    between atoms: O_11  and  C_12
REMARK    3  A    between atoms: C_12  and  C_13
REMARK    4  A    between atoms: C_13  and  C_15
REMARK    5  A    between atoms: C_13  and  O_33
REMARK    6  A    between atoms: C_15  and  N_16
REMARK    7  A    between atoms: C_19  and  N_22
REMARK                            x       y       z     vdW  Elec       q    Type
REMARK                         _______ _______ _______ _____ _____    ______ ____
ROOT
ATOM      1  N   UNL     1       9.682   0.377   0.158  0.00  0.00    +0.382 N 
ATOM      2  C   UNL     1       9.579   1.131   1.413  0.00  0.00    -0.077 C 
ATOM      3  C   UNL     1      10.723   2.144   1.498  0.00  0.00    +0.006 C 
ATOM      4  C   UNL     1      12.061   1.400   1.457  0.00  0.00    +0.089 C 
ATOM      5  C   UNL     1      12.126   0.558   0.179  0.00  0.00    +0.006 C 
ATOM      6  C   UNL     1      10.930  -0.396   0.143  0.00  0.00    -0.077 C 
ATOM      7  H   UNL     1       9.676   1.019  -0.620  0.00  0.00    -0.082 HD
ENDROOT
BRANCH   4   8
ATOM      8  N   UNL     1      13.161   2.368   1.462  0.00  0.00    -0.289 N 
ATOM      9  C   UNL     1      14.165   2.456   2.422  0.00  0.00    +0.070 A 
ATOM     10  C   UNL     1      14.443   1.739   3.576  0.00  0.00    +0.028 A 
ATOM     11  C   UNL     1      15.543   2.071   4.343  0.00  0.00    +0.002 A 
ATOM     12  C   UNL     1      16.368   3.117   3.966  0.00  0.00    +0.002 A 
ATOM     13  C   UNL     1      16.099   3.836   2.818  0.00  0.00    +0.028 A 
ATOM     14  C   UNL     1      14.998   3.510   2.041  0.00  0.00    +0.067 A 
ATOM     15  N   UNL     1      14.473   4.030   0.860  0.00  0.00    -0.306 N 
ATOM     16  H   UNL     1      14.838   4.774   0.356  0.00  0.00    +0.170 HD
ATOM     17  C   UNL     1      13.375   3.321   0.535  0.00  0.00    +0.328 A 
ATOM     18  O   UNL     1      12.681   3.515  -0.445  0.00  0.00    -0.247 OA
ENDBRANCH   4   8
BRANCH   1  19
ATOM     19  C   UNL     1       8.539  -0.539   0.044  0.00  0.00    -0.044 C 
BRANCH  19  20
ATOM     20  C   UNL     1       7.246   0.271  -0.066  0.00  0.00    +0.135 C 
BRANCH  20  21
ATOM     21  O   UNL     1       7.254   1.018  -1.283  0.00  0.00    -0.390 OA
ATOM     22  H   UNL     1       7.317   0.473  -2.079  0.00  0.00    +0.210 HD
ENDBRANCH  20  21
BRANCH  20  23
ATOM     23  C   UNL     1       6.047  -0.680  -0.059  0.00  0.00    +0.258 C 
BRANCH  23  24
ATOM     24  O   UNL     1       4.837   0.080  -0.043  0.00  0.00    -0.489 OA
BRANCH  24  34
ATOM     25  C   UNL     1      -0.016   1.357   0.009  0.00  0.00    +0.001 A 
ATOM     26  C   UNL     1       1.169   2.090   0.002  0.00  0.00    +0.001 A 
ATOM     27  C   UNL     1       2.379   1.467  -0.013  0.00  0.00    +0.012 A 
ATOM     28  C   UNL     1       2.437   0.064  -0.021  0.00  0.00    +0.024 A 
ATOM     29  C   UNL     1       1.233  -0.683  -0.013  0.00  0.00    -0.014 A 
ATOM     30  C   UNL     1       0.002  -0.004   0.002  0.00  0.00    +0.008 A 
ATOM     31  C   UNL     1       1.292  -2.087  -0.021  0.00  0.00    +0.009 A 
ATOM     32  C   UNL     1       2.501  -2.713  -0.035  0.00  0.00    +0.004 A 
ATOM     33  C   UNL     1       3.687  -1.984  -0.043  0.00  0.00    +0.046 A 
ATOM     34  C   UNL     1       3.671  -0.617  -0.036  0.00  0.00    +0.128 A 
ENDBRANCH  24  34
ENDBRANCH  23  24
ENDBRANCH  20  23
ENDBRANCH  19  20
ENDBRANCH   1  19
TORSDOF 7
