REMARK  Name = ZINC66766824
REMARK  6 active torsions:
REMARK  status: ('A' for Active; 'I' for Inactive)
REMARK    1  A    between atoms: C_1  and  C_2
REMARK    2  A    between atoms: C_2  and  C_3
REMARK    3  A    between atoms: C_3  and  C_5
REMARK    4  A    between atoms: C_3  and  N_15
REMARK    5  A    between atoms: C_16  and  C_18
REMARK    6  A    between atoms: N_26  and  C_29
REMARK                            x       y       z     vdW  Elec       q    Type
REMARK                         _______ _______ _______ _____ _____    ______ ____
ROOT
ATOM      1  N   UNL     1      -2.105  -0.148  -1.230  0.00  0.00    -0.302 N 
ATOM      2  C   UNL     1      -2.690   1.062  -1.334  0.00  0.00    +0.245 C 
ATOM      3  O   UNL     1      -2.659   1.833  -0.395  0.00  0.00    -0.270 OA
ATOM      4  H   UNL     1      -2.130  -0.764  -1.980  0.00  0.00    +0.150 HD
ENDROOT
BRANCH   2   5
ATOM      5  C   UNL     1      -3.369   1.451  -2.591  0.00  0.00    +0.039 A 
ATOM      6  C   UNL     1      -3.406   0.553  -3.669  0.00  0.00    +0.014 A 
ATOM      7  C   UNL     1      -4.024   0.888  -4.835  0.00  0.00    +0.016 A 
ATOM      8  C   UNL     1      -4.634   2.144  -4.966  0.00  0.00    +0.065 A 
ATOM      9  C   UNL     1      -4.605   3.062  -3.885  0.00  0.00    +0.080 A 
ATOM     10  C   UNL     1      -3.968   2.697  -2.690  0.00  0.00    +0.041 A 
ATOM     11  N   UNL     1      -5.193   4.258  -4.027  0.00  0.00    -0.222 NA
ATOM     12  C   UNL     1      -5.796   4.586  -5.160  0.00  0.00    +0.183 A 
ATOM     13  N   UNL     1      -5.851   3.753  -6.212  0.00  0.00    -0.290 N 
ATOM     14  C   UNL     1      -5.285   2.528  -6.158  0.00  0.00    +0.262 A 
ATOM     15  O   UNL     1      -5.342   1.695  -7.212  0.00  0.00    -0.267 OA
ATOM     16  C   UNL     1      -6.535   4.180  -7.436  0.00  0.00    +0.154 C 
ATOM     17  S   UNL     1      -6.531   6.127  -5.287  0.00  0.00    -0.011 S 
ENDBRANCH   2   5
BRANCH   1  18
ATOM     18  C   UNL     1      -1.433  -0.534   0.013  0.00  0.00    +0.139 C 
BRANCH  18  19
ATOM     19  C   UNL     1      -1.414  -2.036   0.129  0.00  0.00    +0.129 A 
ATOM     20  N   UNL     1      -2.066  -2.753   1.083  0.00  0.00    -0.340 N 
ATOM     21  H   UNL     1      -2.616  -2.393   1.796  0.00  0.00    +0.167 HD
ATOM     22  C   UNL     1      -1.800  -4.087   0.848  0.00  0.00    +0.066 A 
ATOM     23  C   UNL     1      -2.174  -5.271   1.469  0.00  0.00    +0.028 A 
ATOM     24  C   UNL     1      -1.723  -6.475   0.970  0.00  0.00    +0.002 A 
ATOM     25  C   UNL     1      -0.899  -6.510  -0.146  0.00  0.00    +0.002 A 
ATOM     26  C   UNL     1      -0.521  -5.355  -0.769  0.00  0.00    +0.030 A 
ATOM     27  C   UNL     1      -0.966  -4.123  -0.282  0.00  0.00    +0.089 A 
ATOM     28  N   UNL     1      -0.775  -2.837  -0.673  0.00  0.00    -0.231 NA
ENDBRANCH  18  19
BRANCH  18  30
ATOM     29  C   UNL     1      -0.019   1.526   0.010  0.00  0.00    +0.006 C 
ATOM     30  C   UNL     1       0.002  -0.004   0.002  0.00  0.00    +0.027 C 
ENDBRANCH  18  30
ENDBRANCH   1  18
TORSDOF 4
