REMARK  Name = ZINC35991870
REMARK  13 active torsions:
REMARK  status: ('A' for Active; 'I' for Inactive)
REMARK    1  A    between atoms: C_1  and  C_2
REMARK    2  A    between atoms: C_2  and  O_3
REMARK    3  A    between atoms: O_3  and  C_4
REMARK    4  A    between atoms: C_4  and  C_6
REMARK    5  A    between atoms: C_7  and  C_25
REMARK    6  A    between atoms: N_8  and  C_24
REMARK    7  A    between atoms: C_12  and  C_14
REMARK    8  A    between atoms: C_17  and  O_22
REMARK    9  A    between atoms: C_18  and  O_20
REMARK   10  A    between atoms: O_20  and  C_21
REMARK   11  A    between atoms: O_22  and  C_23
REMARK   12  A    between atoms: C_25  and  N_26
REMARK   13  A    between atoms: C_32  and  C_34
REMARK                            x       y       z     vdW  Elec       q    Type
REMARK                         _______ _______ _______ _____ _____    ______ ____
ROOT
ATOM      1  C   UNL     1      -4.411  -3.724  -0.060  0.00  0.00    +0.080 C 
ATOM      2  C   UNL     1      -4.519  -5.041   0.222  0.00  0.00    +0.041 C 
ATOM      3  N   UNL     1      -5.630  -5.542   0.837  0.00  0.00    -0.260 N 
ATOM      4  C   UNL     1      -6.677  -4.792   1.203  0.00  0.00    +0.307 C 
ATOM      5  O   UNL     1      -7.623  -5.329   1.746  0.00  0.00    -0.252 OA
ATOM      6  N   UNL     1      -6.717  -3.462   0.989  0.00  0.00    -0.288 N 
ATOM      7  C   UNL     1      -5.563  -2.822   0.336  0.00  0.00    +0.144 C 
ATOM      8  C   UNL     1      -5.679  -6.980   1.113  0.00  0.00    +0.139 C 
ATOM      9  H   UNL     1      -7.486  -2.938   1.262  0.00  0.00    +0.151 HD
ENDROOT
BRANCH   7  10
ATOM     10  C   UNL     1      -6.062  -2.134  -0.908  0.00  0.00    -0.019 A 
ATOM     11  C   UNL     1      -6.801  -2.840  -1.839  0.00  0.00    +0.009 A 
ATOM     12  C   UNL     1      -7.261  -2.213  -2.981  0.00  0.00    +0.050 A 
ATOM     13  C   UNL     1      -6.982  -0.873  -3.196  0.00  0.00    +0.162 A 
ATOM     14  C   UNL     1      -6.239  -0.161  -2.259  0.00  0.00    +0.162 A 
ATOM     15  C   UNL     1      -5.785  -0.795  -1.114  0.00  0.00    +0.055 A 
BRANCH  14  16
ATOM     16  O   UNL     1      -5.962   1.154  -2.466  0.00  0.00    -0.491 OA
ATOM     17  C   UNL     1      -5.095   1.790  -1.525  0.00  0.00    +0.277 C 
ENDBRANCH  14  16
BRANCH  13  18
ATOM     18  O   UNL     1      -7.434  -0.254  -4.320  0.00  0.00    -0.491 OA
ATOM     19  C   UNL     1      -8.190  -1.047  -5.237  0.00  0.00    +0.277 C 
ENDBRANCH  13  18
ENDBRANCH   7  10
BRANCH   1  20
ATOM     20  C   UNL     1      -3.260  -3.204  -0.697  0.00  0.00    +0.339 C 
ATOM     21  O   UNL     1      -2.402  -2.644  -0.041  0.00  0.00    -0.245 OA
BRANCH  20  22
ATOM     22  O   UNL     1      -3.114  -3.330  -2.033  0.00  0.00    -0.462 OA
BRANCH  22  24
ATOM     23  C   UNL     1      -1.936  -3.012  -4.119  0.00  0.00    +0.048 C 
ATOM     24  C   UNL     1      -1.882  -2.875  -2.596  0.00  0.00    +0.229 C 
ENDBRANCH  22  24
ENDBRANCH  20  22
ENDBRANCH   1  20
BRANCH   2  25
ATOM     25  C   UNL     1      -3.394  -5.972  -0.150  0.00  0.00    +0.136 C 
BRANCH  25  26
ATOM     26  N   UNL     1      -2.786  -6.517   1.071  0.00  0.00    -0.294 NA
ATOM     27  C   UNL     1      -2.129  -5.459   1.850  0.00  0.00    +0.104 C 
ATOM     28  C   UNL     1      -1.668  -6.030   3.195  0.00  0.00    +0.123 C 
ATOM     29  N   UNL     1      -0.840  -7.218   2.938  0.00  0.00    -0.295 N 
ATOM     30  C   UNL     1      -1.377  -8.263   2.053  0.00  0.00    +0.123 C 
ATOM     31  C   UNL     1      -1.849  -7.604   0.753  0.00  0.00    +0.104 C 
ATOM     32  C   UNL     1       0.379  -7.346   3.500  0.00  0.00    +0.253 C 
ATOM     33  O   UNL     1       0.781  -6.503   4.281  0.00  0.00    -0.269 OA
BRANCH  32  34
ATOM     34  C   UNL     1       1.220  -8.501   3.171  0.00  0.00    +0.074 A 
ATOM     35  C   UNL     1       2.156  -9.153   3.959  0.00  0.00    +0.021 A 
ATOM     36  C   UNL     1       2.796 -10.217   3.369  0.00  0.00    +0.008 A 
ATOM     37  C   UNL     1       2.479 -10.551   2.093  0.00  0.00    +0.046 A 
ATOM     38  S   UNL     1       1.299  -9.438   1.657  0.00  0.00    -0.092 S 
ENDBRANCH  32  34
ENDBRANCH  25  26
ENDBRANCH   2  25
TORSDOF 9
