REMARK  Name = ZINC33373507
REMARK  7 active torsions:
REMARK  status: ('A' for Active; 'I' for Inactive)
REMARK    1  A    between atoms: C_9  and  C_11
REMARK    2  A    between atoms: C_11  and  C_13
REMARK    3  A    between atoms: C_11  and  O_28
REMARK    4  A    between atoms: C_13  and  C_14
REMARK    5  A    between atoms: C_13  and  O_27
REMARK    6  A    between atoms: C_14  and  C_16
REMARK    7  A    between atoms: C_14  and  O_26
REMARK                            x       y       z     vdW  Elec       q    Type
REMARK                         _______ _______ _______ _____ _____    ______ ____
ROOT
ATOM      1  C   UNL     1       1.286   1.562  -0.002  0.00  0.00    +0.186 C 
ENDROOT
BRANCH   1   2
ATOM      2  O   UNL     1      -0.011   0.963   0.007  0.00  0.00    -0.386 OA
ATOM      3  H   UNL     1      -0.718   1.169  -0.810  0.00  0.00    +0.210 HD
ENDBRANCH   1   2
BRANCH   1   4
ATOM      4  C   UNL     1       2.064   1.114   1.238  0.00  0.00    +0.211 C 
BRANCH   4  13
ATOM      5  C   UNL     1      -0.889   2.229   6.370  0.00  0.00    +0.002 A 
ATOM      6  C   UNL     1      -0.870   3.529   5.885  0.00  0.00    +0.002 A 
ATOM      7  C   UNL     1      -0.281   3.816   4.686  0.00  0.00    +0.030 A 
ATOM      8  C   UNL     1       0.309   2.794   3.937  0.00  0.00    +0.089 A 
ATOM      9  C   UNL     1       0.289   1.478   4.428  0.00  0.00    +0.066 A 
ATOM     10  C   UNL     1      -0.314   1.205   5.648  0.00  0.00    +0.028 A 
ATOM     11  N   UNL     1       0.933   0.708   3.480  0.00  0.00    -0.340 N 
ATOM     12  H   UNL     1       1.043  -0.376   3.634  0.00  0.00    +0.167 HD
ATOM     13  C   UNL     1       1.321   1.542   2.478  0.00  0.00    +0.140 A 
ATOM     14  N   UNL     1       0.954   2.761   2.743  0.00  0.00    -0.230 NA
ENDBRANCH   4  13
BRANCH   4  15
ATOM     15  O   UNL     1       3.361   1.713   1.228  0.00  0.00    -0.381 OA
ATOM     16  H   UNL     1       4.052   1.515   0.396  0.00  0.00    +0.210 HD
ENDBRANCH   4  15
ENDBRANCH   1   4
BRANCH   1  17
ATOM     17  C   UNL     1       2.040   1.127  -1.261  0.00  0.00    +0.211 C 
BRANCH  17  18
ATOM     18  C   UNL     1       1.216   1.459  -2.478  0.00  0.00    +0.140 A 
ATOM     19  N   UNL     1       1.644   2.214  -3.526  0.00  0.00    -0.340 N 
ATOM     20  H   UNL     1       2.660   2.634  -3.523  0.00  0.00    +0.167 HD
ATOM     21  C   UNL     1       0.605   2.282  -4.434  0.00  0.00    +0.066 A 
ATOM     22  C   UNL     1       0.440   2.893  -5.670  0.00  0.00    +0.028 A 
ATOM     23  C   UNL     1      -0.760   2.769  -6.337  0.00  0.00    +0.002 A 
ATOM     24  C   UNL     1      -1.802   2.041  -5.781  0.00  0.00    +0.002 A 
ATOM     25  C   UNL     1      -1.658   1.434  -4.566  0.00  0.00    +0.030 A 
ATOM     26  C   UNL     1      -0.450   1.544  -3.871  0.00  0.00    +0.089 A 
ATOM     27  N   UNL     1      -0.009   1.070  -2.678  0.00  0.00    -0.230 NA
ENDBRANCH  17  18
BRANCH  17  28
ATOM     28  O   UNL     1       2.274  -0.281  -1.213  0.00  0.00    -0.381 OA
ATOM     29  H   UNL     1       2.807  -0.779  -2.038  0.00  0.00    +0.210 HD
ENDBRANCH  17  28
ENDBRANCH   1  17
TORSDOF 7
