REMARK  Name = ZINC13500655
REMARK  14 active torsions:
REMARK  status: ('A' for Active; 'I' for Inactive)
REMARK    1  A    between atoms: C_1  and  C_2
REMARK    2  A    between atoms: C_2  and  O_3
REMARK    3  A    between atoms: O_3  and  C_4
REMARK    4  A    between atoms: C_4  and  C_6
REMARK    5  A    between atoms: C_6  and  N_7
REMARK    6  A    between atoms: C_8  and  C_12
REMARK    7  A    between atoms: C_12  and  C_14
REMARK    8  A    between atoms: C_12  and  N_71
REMARK    9  A    between atoms: C_14  and  C_15
REMARK   10  A    between atoms: C_14  and  C_16
REMARK   11  A    between atoms: C_17  and  C_18
REMARK   12  A    between atoms: C_17  and  N_71
REMARK   13  A    between atoms: C_22  and  C_30
REMARK   14  A    between atoms: C_31  and  N_71
REMARK                            x       y       z     vdW  Elec       q    Type
REMARK                         _______ _______ _______ _____ _____    ______ ____
ROOT
ATOM      1  N   UNL     1      -3.451   0.879  -1.188  0.00  0.00    +0.391 N 
ATOM      2  H   UNL     1      -2.606   0.678  -1.736  0.00  0.00    -0.080 HD
ENDROOT
BRANCH   1   3
ATOM      3  C   UNL     1      -4.175   2.002  -1.819  0.00  0.00    -0.067 C 
ATOM      4  C   UNL     1      -5.535   2.208  -1.149  0.00  0.00    -0.015 C 
ATOM      5  C   UNL     1      -6.265   3.372  -1.822  0.00  0.00    -0.002 C 
ATOM      6  C   UNL     1      -6.470   3.057  -3.305  0.00  0.00    -0.000 C 
ATOM      7  C   UNL     1      -5.110   2.851  -3.975  0.00  0.00    -0.002 C 
ATOM      8  C   UNL     1      -4.380   1.687  -3.302  0.00  0.00    -0.015 C 
ENDBRANCH   1   3
BRANCH   1   9
ATOM      9  C   UNL     1      -4.307  -0.326  -1.167  0.00  0.00    +0.006 C 
BRANCH   9  11
ATOM     10  N   UNL     1      -6.467  -0.546   0.171  0.00  0.00    -0.220 N 
ATOM     11  C   UNL     1      -5.136  -0.360   0.090  0.00  0.00    +0.139 A 
ATOM     12  N   UNL     1      -4.700  -0.219   1.319  0.00  0.00    -0.115 NA
ATOM     13  N   UNL     1      -5.712  -0.306   2.112  0.00  0.00    -0.023 NA
ATOM     14  N   UNL     1      -6.780  -0.507   1.422  0.00  0.00    -0.043 NA
BRANCH  10  15
ATOM     15  C   UNL     1      -7.386  -0.754  -0.950  0.00  0.00    +0.267 C 
BRANCH  15  16
ATOM     16  C   UNL     1      -7.499  -2.229  -1.240  0.00  0.00    +0.329 C 
ATOM     17  O   UNL     1      -6.876  -3.024  -0.577  0.00  0.00    -0.249 OA
BRANCH  16  18
ATOM     18  O   UNL     1      -8.292  -2.659  -2.234  0.00  0.00    -0.464 OA
BRANCH  18  20
ATOM     19  C   UNL     1      -9.300  -4.389  -3.620  0.00  0.00    +0.048 C 
ATOM     20  C   UNL     1      -8.353  -4.092  -2.455  0.00  0.00    +0.229 C 
ENDBRANCH  18  20
ENDBRANCH  16  18
ENDBRANCH  15  16
ENDBRANCH  10  15
ENDBRANCH   9  11
BRANCH   9  21
ATOM     21  C   UNL     1      -3.408  -1.563  -1.220  0.00  0.00    -0.024 C 
ATOM     22  C   UNL     1      -2.582  -1.540  -2.507  0.00  0.00    +0.006 C 
ATOM     23  C   UNL     1      -2.470  -1.563  -0.011  0.00  0.00    +0.006 C 
ENDBRANCH   9  21
ENDBRANCH   1   9
BRANCH   1  24
ATOM     24  C   UNL     1      -3.056   1.242   0.189  0.00  0.00    -0.036 C 
BRANCH  24  25
ATOM     25  C   UNL     1      -1.988   2.303   0.124  0.00  0.00    +0.001 A 
ATOM     26  C   UNL     1      -2.296   3.590   0.420  0.00  0.00    +0.017 A 
ATOM     27  C   UNL     1      -1.236   4.598   0.343  0.00  0.00    -0.001 A 
ATOM     28  C   UNL     1      -1.494   5.942   0.633  0.00  0.00    +0.013 A 
ATOM     29  C   UNL     1      -0.484   6.857   0.553  0.00  0.00    -0.050 A 
ATOM     30  C   UNL     1       0.797   6.466   0.185  0.00  0.00    +0.005 A 
ATOM     31  C   UNL     1       1.073   5.148  -0.105  0.00  0.00    +0.026 A 
ATOM     32  C   UNL     1       0.060   4.197  -0.029  0.00  0.00    +0.049 A 
ATOM     33  N   UNL     1       0.309   2.871  -0.313  0.00  0.00    -0.322 N 
ATOM     34  H   UNL     1       1.203   2.597  -0.570  0.00  0.00    +0.169 HD
ATOM     35  C   UNL     1      -0.670   1.953  -0.239  0.00  0.00    +0.251 A 
ATOM     36  O   UNL     1      -0.414   0.789  -0.497  0.00  0.00    -0.268 OA
ATOM     37  C   UNL     1      -0.761   8.305   0.865  0.00  0.00    +0.044 C 
ENDBRANCH  24  25
ENDBRANCH   1  24
TORSDOF 10
