REMARK  Name = ZINC14744290
REMARK  10 active torsions:
REMARK  status: ('A' for Active; 'I' for Inactive)
REMARK    1  A    between atoms: C_1  and  C_2
REMARK    2  A    between atoms: C_4  and  C_36
REMARK    3  A    between atoms: C_6  and  C_8
REMARK    4  A    between atoms: C_8  and  N_72
REMARK    5  A    between atoms: C_13  and  C_25
REMARK    6  A    between atoms: N_15  and  C_16
REMARK    7  A    between atoms: C_16  and  C_17
REMARK    8  A    between atoms: C_21  and  O_23
REMARK    9  A    between atoms: O_23  and  C_24
REMARK   10  A    between atoms: C_31  and  O_34
REMARK                            x       y       z     vdW  Elec       q    Type
REMARK                         _______ _______ _______ _____ _____    ______ ____
ROOT
ATOM      1  C   UNL     1      -6.437   2.520  -0.000  0.00  0.00    -0.072 C 
ATOM      2  C   UNL     1      -6.096   1.072  -0.383  0.00  0.00    +0.037 C 
ATOM      3  C   UNL     1      -4.603   0.905  -0.267  0.00  0.00    +0.040 A 
ATOM      4  C   UNL     1      -3.746   1.956  -0.188  0.00  0.00    -0.011 A 
ATOM      5  C   UNL     1      -2.462   1.399  -0.090  0.00  0.00    +0.149 A 
ATOM      6  N   UNL     1      -2.616   0.085  -0.110  0.00  0.00    -0.166 NA
ATOM      7  N   UNL     1      -3.866  -0.214  -0.214  0.00  0.00    -0.263 N 
ATOM      8  C   UNL     1      -4.179   3.395  -0.228  0.00  0.00    -0.038 C 
ATOM      9  N   UNL     1      -5.563   3.439  -0.763  0.00  0.00    +0.385 N 
ATOM     10  H   UNL     1      -5.549   3.144  -1.747  0.00  0.00    -0.081 HD
ENDROOT
BRANCH   5  11
ATOM     11  C   UNL     1      -1.187   2.136   0.019  0.00  0.00    +0.267 C 
ATOM     12  O   UNL     1      -1.192   3.346   0.138  0.00  0.00    -0.268 OA
ATOM     13  N   UNL     1      -0.017   1.467  -0.012  0.00  0.00    -0.294 N 
ATOM     14  C   UNL     1       0.005  -0.002  -0.043  0.00  0.00    +0.108 C 
ATOM     15  C   UNL     1       0.850  -0.457  -1.238  0.00  0.00    +0.021 C 
ATOM     16  C   UNL     1       2.234   0.191  -1.155  0.00  0.00    +0.034 C 
ATOM     17  C   UNL     1       2.091   1.713  -1.216  0.00  0.00    +0.132 C 
ATOM     18  C   UNL     1       1.260   2.193  -0.022  0.00  0.00    +0.139 C 
BRANCH  17  19
ATOM     19  O   UNL     1       3.386   2.316  -1.169  0.00  0.00    -0.390 OA
ATOM     20  H   UNL     1       3.372   3.282  -1.204  0.00  0.00    +0.210 HD
ENDBRANCH  17  19
ENDBRANCH   5  11
BRANCH   9  21
ATOM     21  C   UNL     1      -6.090   4.817  -0.684  0.00  0.00    -0.043 C 
BRANCH  21  27
ATOM     22  C   UNL     1      -8.592   5.557  -4.954  0.00  0.00    +0.044 C 
ATOM     23  C   UNL     1      -8.590   5.235  -3.482  0.00  0.00    -0.050 A 
ATOM     24  C   UNL     1      -9.783   4.999  -2.824  0.00  0.00    +0.006 A 
ATOM     25  C   UNL     1      -9.780   4.705  -1.473  0.00  0.00    -0.050 A 
ATOM     26  C   UNL     1      -8.585   4.646  -0.781  0.00  0.00    +0.005 A 
ATOM     27  C   UNL     1      -7.393   4.881  -1.439  0.00  0.00    -0.063 A 
ATOM     28  C   UNL     1      -7.395   5.181  -2.788  0.00  0.00    +0.005 A 
ATOM     29  C   UNL     1     -11.080   4.447  -0.756  0.00  0.00    +0.044 C 
ENDBRANCH  21  27
ENDBRANCH   9  21
BRANCH   7  30
ATOM     30  C   UNL     1      -4.403  -1.576  -0.266  0.00  0.00    +0.179 C 
BRANCH  30  31
ATOM     31  C   UNL     1      -4.702  -2.052   1.132  0.00  0.00    -0.023 A 
ATOM     32  C   UNL     1      -5.950  -1.830   1.685  0.00  0.00    +0.005 A 
ATOM     33  C   UNL     1      -6.228  -2.266   2.967  0.00  0.00    +0.004 A 
ATOM     34  C   UNL     1      -5.260  -2.926   3.699  0.00  0.00    +0.045 A 
ATOM     35  C   UNL     1      -4.007  -3.150   3.146  0.00  0.00    +0.120 A 
ATOM     36  C   UNL     1      -3.732  -2.715   1.857  0.00  0.00    +0.051 A 
BRANCH  35  37
ATOM     37  O   UNL     1      -3.053  -3.799   3.864  0.00  0.00    -0.495 OA
ATOM     38  C   UNL     1      -3.408  -4.223   5.181  0.00  0.00    +0.277 C 
ENDBRANCH  35  37
ENDBRANCH  30  31
ENDBRANCH   7  30
TORSDOF 7
