REMARK  Name = ZINC11905924
REMARK  7 active torsions:
REMARK  status: ('A' for Active; 'I' for Inactive)
REMARK    1  A    between atoms: C_1  and  C_2
REMARK    2  A    between atoms: C_5  and  N_20
REMARK    3  A    between atoms: C_7  and  S_8
REMARK    4  A    between atoms: S_8  and  N_11
REMARK    5  A    between atoms: N_11  and  C_12
REMARK    6  A    between atoms: C_12  and  C_13
REMARK    7  A    between atoms: C_13  and  C_14
REMARK                            x       y       z     vdW  Elec       q    Type
REMARK                         _______ _______ _______ _____ _____    ______ ____
ROOT
ATOM      1  C   UNL     1       1.405   3.646  -1.475  0.00  0.00    +0.046 C 
ATOM      2  C   UNL     1       0.423   3.136  -0.452  0.00  0.00    -0.024 A 
ATOM      3  C   UNL     1       0.260   1.774  -0.271  0.00  0.00    +0.007 A 
ATOM      4  C   UNL     1      -0.642   1.303   0.663  0.00  0.00    +0.025 A 
ATOM      5  C   UNL     1      -1.378   2.199   1.428  0.00  0.00    +0.061 A 
ATOM      6  C   UNL     1      -1.208   3.565   1.248  0.00  0.00    +0.054 A 
ATOM      7  C   UNL     1      -0.308   4.029   0.308  0.00  0.00    +0.110 A 
ENDROOT
BRANCH   5   8
ATOM      8  N   UNL     1      -2.289   1.725   2.379  0.00  0.00    -0.144 N 
ATOM      9  C   UNL     1      -3.361   2.385   2.841  0.00  0.00    +0.240 C 
ATOM     10  O   UNL     1      -3.643   3.486   2.418  0.00  0.00    -0.274 OA
ATOM     11  C   UNL     1      -4.208   1.727   3.889  0.00  0.00    +0.122 C 
ATOM     12  C   UNL     1      -3.913   0.204   3.884  0.00  0.00    +0.198 C 
ATOM     13  S   UNL     1      -2.228   0.238   3.146  0.00  0.00    +0.052 S 
ATOM     14  O   UNL     1      -2.110  -0.725   2.107  0.00  0.00    -0.155 OA
ATOM     15  O   UNL     1      -1.234   0.365   4.153  0.00  0.00    -0.155 OA
ENDBRANCH   5   8
BRANCH   7  16
ATOM     16  S   UNL     1      -0.092   5.763   0.079  0.00  0.00    +0.059 S 
ATOM     17  O   UNL     1      -0.990   6.406   0.973  0.00  0.00    -0.153 OA
ATOM     18  O   UNL     1       1.308   6.004   0.100  0.00  0.00    -0.153 OA
BRANCH  16  19
ATOM     19  N   UNL     1      -0.610   6.122  -1.453  0.00  0.00    -0.190 NA
ATOM     20  H   UNL     1       0.016   6.467  -2.108  0.00  0.00    +0.148 HD
BRANCH  19  21
ATOM     21  C   UNL     1      -2.014   5.920  -1.817  0.00  0.00    +0.110 C 
BRANCH  21  22
ATOM     22  C   UNL     1      -2.321   6.681  -3.108  0.00  0.00    +0.047 C 
BRANCH  22  23
ATOM     23  C   UNL     1      -3.766   6.473  -3.483  0.00  0.00    -0.072 C 
ATOM     24  C   UNL     1      -4.626   7.363  -3.104  0.00  0.00    -0.028 C 
ATOM     25  C   UNL     1      -6.097   7.287  -3.393  0.00  0.00    +0.027 C 
ATOM     26  C   UNL     1      -6.362   6.287  -4.520  0.00  0.00    +0.004 C 
ATOM     27  C   UNL     1      -5.623   4.982  -4.194  0.00  0.00    +0.005 C 
ATOM     28  C   UNL     1      -4.117   5.249  -4.278  0.00  0.00    +0.030 C 
ENDBRANCH  22  23
ENDBRANCH  21  22
ENDBRANCH  19  21
ENDBRANCH  16  19
ENDBRANCH   7  16
TORSDOF 6
