REMARK  Name = ZINC38732549
REMARK  6 active torsions:
REMARK  status: ('A' for Active; 'I' for Inactive)
REMARK    1  A    between atoms: C_4  and  C_7
REMARK    2  A    between atoms: C_7  and  C_8
REMARK    3  A    between atoms: C_7  and  C_34
REMARK    4  A    between atoms: C_8  and  N_9
REMARK    5  A    between atoms: C_10  and  C_12
REMARK    6  A    between atoms: C_18  and  C_20
REMARK                            x       y       z     vdW  Elec       q    Type
REMARK                         _______ _______ _______ _____ _____    ______ ____
ROOT
ATOM      1  C   UNL     1       3.565   0.013   4.838  0.00  0.00    +0.087 C 
ATOM      2  C   UNL     1       4.925   0.710   4.909  0.00  0.00    +0.013 C 
ATOM      3  C   UNL     1       6.040  -0.334   4.809  0.00  0.00    +0.001 C 
ATOM      4  C   UNL     1       5.914  -1.326   5.966  0.00  0.00    +0.001 C 
ATOM      5  C   UNL     1       4.554  -2.023   5.895  0.00  0.00    +0.013 C 
ATOM      6  C   UNL     1       3.440  -0.979   5.995  0.00  0.00    +0.087 C 
ENDROOT
BRANCH   6   7
ATOM      7  C   UNL     1       2.100  -1.666   5.925  0.00  0.00    +0.219 C 
ATOM      8  O   UNL     1       2.018  -2.792   5.482  0.00  0.00    -0.275 OA
ATOM      9  N   UNL     1       0.993  -1.029   6.354  0.00  0.00    -0.298 N 
ATOM     10  C   UNL     1       1.089   0.295   6.986  0.00  0.00    +0.126 C 
ATOM     11  C   UNL     1       0.183   1.269   6.223  0.00  0.00    +0.125 C 
ATOM     12  N   UNL     1      -1.142   0.654   6.066  0.00  0.00    -0.314 N 
ATOM     13  C   UNL     1      -1.239  -0.669   5.434  0.00  0.00    +0.125 C 
ATOM     14  C   UNL     1      -0.333  -1.641   6.192  0.00  0.00    +0.126 C 
ATOM     15  C   UNL     1      -2.284   1.311   6.509  0.00  0.00    +0.099 A 
ATOM     16  C   UNL     1      -2.190   2.618   6.977  0.00  0.00    +0.042 A 
ATOM     17  C   UNL     1      -3.334   3.260   7.414  0.00  0.00    +0.005 A 
ATOM     18  C   UNL     1      -4.539   2.571   7.368  0.00  0.00    +0.018 A 
ATOM     19  C   UNL     1      -4.560   1.276   6.891  0.00  0.00    +0.084 A 
ATOM     20  N   UNL     1      -3.453   0.690   6.476  0.00  0.00    -0.350 N 
ATOM     21  H   UNL     1      -3.496  -0.219   6.141  0.00  0.00    +0.166 HD
ENDBRANCH   6   7
BRANCH   1  23
ATOM     22  N   UNL     1       3.528  -0.048   2.365  0.00  0.00    -0.314 N 
ATOM     23  C   UNL     1       3.447  -0.724   3.529  0.00  0.00    +0.217 C 
ATOM     24  O   UNL     1       3.279  -1.925   3.522  0.00  0.00    -0.275 OA
ATOM     25  H   UNL     1       3.663   0.912   2.370  0.00  0.00    +0.149 HD
BRANCH  22  26
ATOM     26  C   UNL     1       3.413  -0.765   1.093  0.00  0.00    +0.117 C 
BRANCH  26  27
ATOM     27  C   UNL     1       3.539   0.228  -0.065  0.00  0.00    +0.066 C 
BRANCH  27  31
ATOM     28  C   UNL     1       0.233   2.932   0.010  0.00  0.00    +0.000 A 
ATOM     29  C   UNL     1       1.524   3.421  -0.042  0.00  0.00    +0.000 A 
ATOM     30  C   UNL     1       2.594   2.546  -0.066  0.00  0.00    +0.004 A 
ATOM     31  C   UNL     1       2.373   1.182  -0.037  0.00  0.00    -0.038 A 
ATOM     32  C   UNL     1       1.081   0.693   0.015  0.00  0.00    +0.004 A 
ATOM     33  C   UNL     1       0.011   1.568   0.038  0.00  0.00    +0.000 A 
ENDBRANCH  27  31
BRANCH  27  34
ATOM     34  C   UNL     1       3.544  -0.522  -1.372  0.00  0.00    -0.038 A 
ATOM     35  C   UNL     1       2.540  -1.432  -1.651  0.00  0.00    +0.004 A 
ATOM     36  C   UNL     1       2.545  -2.120  -2.849  0.00  0.00    +0.000 A 
ATOM     37  C   UNL     1       3.552  -1.898  -3.770  0.00  0.00    +0.000 A 
ATOM     38  C   UNL     1       4.555  -0.989  -3.491  0.00  0.00    +0.000 A 
ATOM     39  C   UNL     1       4.548  -0.297  -2.294  0.00  0.00    +0.004 A 
ENDBRANCH  27  34
ENDBRANCH  26  27
ENDBRANCH  22  26
ENDBRANCH   1  23
TORSDOF 6
