REMARK  Name = ZINC61884838
REMARK  5 active torsions:
REMARK  status: ('A' for Active; 'I' for Inactive)
REMARK    1  A    between atoms: C_3  and  C_9
REMARK    2  A    between atoms: C_4  and  O_8
REMARK    3  A    between atoms: N_11  and  C_12
REMARK    4  A    between atoms: C_17  and  C_19
REMARK    5  A    between atoms: C_19  and  N_21
REMARK                            x       y       z     vdW  Elec       q    Type
REMARK                         _______ _______ _______ _____ _____    ______ ____
ROOT
ATOM      1  C   UNL     1       3.652   2.171  -0.022  0.00  0.00    +0.248 C 
ATOM      2  O   UNL     1       4.713   1.578  -0.035  0.00  0.00    -0.270 OA
ATOM      3  N   UNL     1       3.633   3.518  -0.015  0.00  0.00    -0.308 N 
ATOM      4  H   UNL     1       2.786   3.992  -0.004  0.00  0.00    +0.149 HD
ENDROOT
BRANCH   1   7
ATOM      5  C   UNL     1      -0.017   1.382   0.010  0.00  0.00    +0.016 A 
ATOM      6  C   UNL     1       1.163   2.093   0.002  0.00  0.00    +0.018 A 
ATOM      7  C   UNL     1       2.385   1.415  -0.013  0.00  0.00    +0.078 A 
ATOM      8  C   UNL     1       2.400   0.014  -0.021  0.00  0.00    +0.130 A 
ATOM      9  C   UNL     1       1.204  -0.686  -0.013  0.00  0.00    +0.061 A 
ATOM     10  C   UNL     1       0.002  -0.004   0.002  0.00  0.00    +0.021 A 
ATOM     11 BR   UNL     1      -1.626  -0.967   0.012  0.00  0.00    -0.050 Br
BRANCH   8  12
ATOM     12  O   UNL     1       3.581  -0.655  -0.036  0.00  0.00    -0.506 OA
ATOM     13  H   UNL     1       3.932  -0.853   0.843  0.00  0.00    +0.292 HD
ENDBRANCH   8  12
ENDBRANCH   1   7
BRANCH   3  14
ATOM     14  C   UNL     1       4.891   4.269  -0.023  0.00  0.00    +0.082 C 
ATOM     15  C   UNL     1       5.396   4.468   1.417  0.00  0.00    +0.023 C 
ATOM     16  C   UNL     1       5.456   5.991   1.655  0.00  0.00    +0.003 C 
ATOM     17  C   UNL     1       5.583   6.594   0.234  0.00  0.00    +0.012 C 
ATOM     18  C   UNL     1       4.663   5.677  -0.611  0.00  0.00    +0.061 C 
BRANCH  18  19
ATOM     19  C   UNL     1       5.067   5.715  -2.062  0.00  0.00    +0.051 C 
ATOM     20  S   UNL     1       5.639   4.399  -2.767  0.00  0.00    -0.040 S 
BRANCH  19  21
ATOM     21  N   UNL     1       4.947   6.858  -2.765  0.00  0.00    -0.355 N 
ATOM     22  H   UNL     1       4.600   7.657  -2.337  0.00  0.00    +0.143 HD
ATOM     23  H   UNL     1       5.207   6.883  -3.699  0.00  0.00    +0.143 HD
ENDBRANCH  19  21
ENDBRANCH  18  19
ENDBRANCH   3  14
TORSDOF 5
