REMARK  Name = ZINC54201026
REMARK  8 active torsions:
REMARK  status: ('A' for Active; 'I' for Inactive)
REMARK    1  A    between atoms: C_4  and  C_7
REMARK    2  A    between atoms: C_7  and  C_8
REMARK    3  A    between atoms: C_8  and  C_10
REMARK    4  A    between atoms: C_8  and  N_20
REMARK    5  A    between atoms: N_12  and  C_13
REMARK    6  A    between atoms: C_18  and  O_19
REMARK    7  A    between atoms: N_20  and  S_21
REMARK    8  A    between atoms: S_21  and  C_24
REMARK                            x       y       z     vdW  Elec       q    Type
REMARK                         _______ _______ _______ _____ _____    ______ ____
ROOT
ATOM      1  C   UNL     1       4.365  -0.862   1.279  0.00  0.00    +0.167 C 
ENDROOT
BRANCH   1   2
ATOM      2  C   UNL     1       5.870  -0.921   1.314  0.00  0.00    +0.236 C 
ATOM      3  O   UNL     1       6.428  -1.816   1.915  0.00  0.00    -0.274 OA
ATOM      4  N   UNL     1       6.597   0.019   0.679  0.00  0.00    -0.281 N 
ATOM      5  H   UNL     1       6.153   0.697   0.146  0.00  0.00    +0.155 HD
BRANCH   4   6
ATOM      6  C   UNL     1       7.994   0.016   0.787  0.00  0.00    +0.075 A 
ATOM      7  C   UNL     1       8.680  -1.183   0.910  0.00  0.00    +0.027 A 
ATOM      8  C   UNL     1      10.058  -1.184   1.016  0.00  0.00    +0.002 A 
ATOM      9  C   UNL     1      10.756   0.010   1.000  0.00  0.00    +0.004 A 
ATOM     10  C   UNL     1      10.079   1.209   0.876  0.00  0.00    +0.047 A 
ATOM     11  C   UNL     1       8.698   1.218   0.764  0.00  0.00    +0.138 A 
BRANCH  11  12
ATOM     12  O   UNL     1       8.032   2.396   0.637  0.00  0.00    -0.505 OA
ATOM     13  H   UNL     1       7.772   2.793   1.480  0.00  0.00    +0.292 HD
ENDBRANCH  11  12
ENDBRANCH   4   6
ENDBRANCH   1   2
BRANCH   1  14
ATOM     14  N   UNL     1       3.813  -1.987   2.039  0.00  0.00    -0.178 NA
ATOM     15  H   UNL     1       3.701  -2.851   1.613  0.00  0.00    +0.149 HD
BRANCH  14  16
ATOM     16  S   UNL     1       3.381  -1.783   3.624  0.00  0.00    +0.059 S 
ATOM     17  O   UNL     1       2.856  -3.027   4.066  0.00  0.00    -0.153 OA
ATOM     18  O   UNL     1       4.479  -1.149   4.266  0.00  0.00    -0.153 OA
BRANCH  16  19
ATOM     19  C   UNL     1       2.047  -0.633   3.657  0.00  0.00    +0.105 A 
ATOM     20  C   UNL     1       2.305   0.725   3.664  0.00  0.00    +0.029 A 
ATOM     21  C   UNL     1       1.258   1.628   3.689  0.00  0.00    +0.017 A 
ATOM     22  C   UNL     1      -0.048   1.172   3.707  0.00  0.00    +0.018 A 
ATOM     23  C   UNL     1      -0.305  -0.187   3.699  0.00  0.00    +0.017 A 
ATOM     24  C   UNL     1       0.742  -1.089   3.669  0.00  0.00    +0.029 A 
ATOM     25 BR   UNL     1      -1.480   2.406   3.742  0.00  0.00    -0.050 Br
ENDBRANCH  16  19
ENDBRANCH  14  16
ENDBRANCH   1  14
BRANCH   1  26
ATOM     26  C   UNL     1       3.885  -0.942  -0.172  0.00  0.00    +0.065 C 
BRANCH  26  30
ATOM     27  C   UNL     1      -0.365  -0.534  -0.292  0.00  0.00    +0.000 A 
ATOM     28  C   UNL     1       0.437   0.592  -0.271  0.00  0.00    +0.000 A 
ATOM     29  C   UNL     1       1.812   0.460  -0.232  0.00  0.00    +0.004 A 
ATOM     30  C   UNL     1       2.385  -0.798  -0.213  0.00  0.00    -0.045 A 
ATOM     31  C   UNL     1       1.583  -1.924  -0.234  0.00  0.00    +0.004 A 
ATOM     32  C   UNL     1       0.208  -1.792  -0.274  0.00  0.00    +0.000 A 
ENDBRANCH  26  30
ENDBRANCH   1  26
TORSDOF 8
