REMARK  Name = ZINC63853238
REMARK  10 active torsions:
REMARK  status: ('A' for Active; 'I' for Inactive)
REMARK    1  A    between atoms: C_1  and  C_2
REMARK    2  A    between atoms: C_6  and  S_8
REMARK    3  A    between atoms: S_8  and  N_11
REMARK    4  A    between atoms: N_11  and  C_12
REMARK    5  A    between atoms: C_12  and  C_14
REMARK    6  A    between atoms: C_12  and  C_24
REMARK    7  A    between atoms: C_14  and  C_15
REMARK    8  A    between atoms: N_26  and  C_27
REMARK    9  A    between atoms: C_27  and  C_29
REMARK   10  A    between atoms: C_27  and  C_30
REMARK                            x       y       z     vdW  Elec       q    Type
REMARK                         _______ _______ _______ _____ _____    ______ ____
ROOT
ATOM      1  C   UNL     1       2.489  -2.047   3.444  0.00  0.00    +0.166 C 
ENDROOT
BRANCH   1   2
ATOM      2  C   UNL     1       3.893  -2.303   2.959  0.00  0.00    +0.232 C 
ATOM      3  O   UNL     1       4.261  -3.437   2.739  0.00  0.00    -0.274 OA
ATOM      4  N   UNL     1       4.739  -1.271   2.770  0.00  0.00    -0.307 N 
ATOM      5  H   UNL     1       4.444  -0.364   2.946  0.00  0.00    +0.149 HD
BRANCH   4   6
ATOM      6  C   UNL     1       6.103  -1.520   2.299  0.00  0.00    +0.100 C 
ATOM      7  C   UNL     1       7.003  -1.848   3.492  0.00  0.00    +0.033 C 
BRANCH   6   8
ATOM      8  C   UNL     1       6.625  -0.291   1.599  0.00  0.00    -0.025 A 
ATOM      9  C   UNL     1       6.353   0.964   2.113  0.00  0.00    +0.008 A 
ATOM     10  C   UNL     1       6.830   2.092   1.473  0.00  0.00    +0.041 A 
ATOM     11  C   UNL     1       7.582   1.967   0.317  0.00  0.00    +0.158 A 
ATOM     12  C   UNL     1       7.855   0.709  -0.197  0.00  0.00    +0.159 A 
ATOM     13  C   UNL     1       7.380  -0.420   0.449  0.00  0.00    +0.046 A 
ATOM     14  F   UNL     1       8.588   0.584  -1.325  0.00  0.00    -0.202 F 
ATOM     15  F   UNL     1       8.049   3.069  -0.309  0.00  0.00    -0.202 F 
ENDBRANCH   6   8
ENDBRANCH   4   6
ENDBRANCH   1   2
BRANCH   1  16
ATOM     16  N   UNL     1       1.644  -3.200   3.123  0.00  0.00    -0.178 NA
ATOM     17  H   UNL     1       2.014  -4.096   3.154  0.00  0.00    +0.149 HD
BRANCH  16  18
ATOM     18  S   UNL     1       0.057  -2.973   2.709  0.00  0.00    +0.059 S 
ATOM     19  O   UNL     1      -0.500  -2.110   3.691  0.00  0.00    -0.153 OA
ATOM     20  O   UNL     1      -0.479  -4.260   2.433  0.00  0.00    -0.153 OA
BRANCH  18  26
ATOM     21  C   UNL     1      -0.018   1.503   0.010  0.00  0.00    +0.044 C 
ATOM     22  C   UNL     1       0.002  -0.004   0.002  0.00  0.00    -0.049 A 
ATOM     23  C   UNL     1       0.006  -0.689  -1.199  0.00  0.00    +0.003 A 
ATOM     24  C   UNL     1       0.025  -2.071  -1.207  0.00  0.00    +0.002 A 
ATOM     25  C   UNL     1       0.040  -2.768  -0.013  0.00  0.00    +0.028 A 
ATOM     26  C   UNL     1       0.037  -2.084   1.188  0.00  0.00    +0.106 A 
ATOM     27  C   UNL     1       0.023  -0.702   1.195  0.00  0.00    +0.032 A 
ENDBRANCH  18  26
ENDBRANCH  16  18
ENDBRANCH   1  16
BRANCH   1  28
ATOM     28  C   UNL     1       2.504  -1.831   4.959  0.00  0.00    +0.063 C 
BRANCH  28  29
ATOM     29  C   UNL     1       1.121  -1.454   5.426  0.00  0.00    -0.040 C 
ATOM     30  C   UNL     1       0.176  -2.285   5.922  0.00  0.00    -0.001 A 
ATOM     31  C   UNL     1       0.153  -3.733   6.165  0.00  0.00    +0.010 A 
ATOM     32  C   UNL     1      -0.964  -4.293   6.683  0.00  0.00    +0.001 A 
ATOM     33  C   UNL     1      -2.097  -3.528   6.992  0.00  0.00    +0.002 A 
ATOM     34  C   UNL     1      -2.151  -2.193   6.796  0.00  0.00    +0.026 A 
ATOM     35  C   UNL     1      -1.033  -1.500   6.258  0.00  0.00    +0.043 A 
ATOM     36  N   UNL     1      -0.843  -0.233   5.979  0.00  0.00    -0.380 N 
ATOM     37  C   UNL     1       0.512  -0.070   5.441  0.00  0.00    +0.144 C 
ATOM     38  H   UNL     1      -1.489   0.479   6.111  0.00  0.00    +0.160 HD
ENDBRANCH  28  29
ENDBRANCH   1  28
TORSDOF 8
