REMARK  Name = ZINC36637668
REMARK  17 active torsions:
REMARK  status: ('A' for Active; 'I' for Inactive)
REMARK    1  A    between atoms: C_1  and  C_2
REMARK    2  A    between atoms: C_2  and  C_3
REMARK    3  A    between atoms: C_3  and  N_4
REMARK    4  A    between atoms: N_4  and  C_5
REMARK    5  A    between atoms: N_4  and  S_8
REMARK    6  A    between atoms: C_5  and  C_6
REMARK    7  A    between atoms: C_6  and  C_7
REMARK    8  A    between atoms: S_8  and  C_11
REMARK    9  A    between atoms: C_14  and  C_17
REMARK   10  A    between atoms: N_19  and  C_20
REMARK   11  A    between atoms: C_20  and  C_21
REMARK   12  A    between atoms: C_21  and  N_22
REMARK   13  A    between atoms: N_22  and  C_23
REMARK   14  A    between atoms: N_22  and  C_24
REMARK   15  A    between atoms: C_28  and  O_35
REMARK   16  A    between atoms: C_31  and  C_34
REMARK   17  A    between atoms: O_35  and  C_36
REMARK                            x       y       z     vdW  Elec       q    Type
REMARK                         _______ _______ _______ _____ _____    ______ ____
ROOT
ATOM      1  C   UNL     1       3.680  -3.547  -3.293  0.00  0.00    +0.252 C 
ATOM      2  O   UNL     1       3.941  -2.678  -4.101  0.00  0.00    -0.270 OA
ATOM      3  N   UNL     1       4.536  -4.572  -3.105  0.00  0.00    -0.248 N 
ATOM      4  C   UNL     1       5.766  -4.572  -3.741  0.00  0.00    +0.168 A 
ATOM      5  N   UNL     1       6.720  -5.471  -3.688  0.00  0.00    -0.221 NA
ATOM      6  C   UNL     1       7.881  -5.340  -4.368  0.00  0.00    +0.122 A 
ATOM      7  C   UNL     1       8.984  -6.231  -4.397  0.00  0.00    +0.147 A 
ATOM      8  C   UNL     1      10.098  -5.941  -5.148  0.00  0.00    +0.048 A 
ATOM      9  C   UNL     1      10.183  -4.777  -5.898  0.00  0.00    +0.008 A 
ATOM     10  C   UNL     1       9.124  -3.888  -5.892  0.00  0.00    -0.034 A 
ATOM     11  C   UNL     1       8.006  -4.168  -5.144  0.00  0.00    +0.047 A 
ATOM     12  S   UNL     1       6.456  -3.351  -4.849  0.00  0.00    -0.051 S 
ATOM     13  C   UNL     1       9.197  -2.619  -6.700  0.00  0.00    +0.045 C 
ENDROOT
BRANCH   1  17
ATOM     14  C   UNL     1       0.073  -3.357  -1.059  0.00  0.00    +0.106 A 
ATOM     15  C   UNL     1       0.462  -4.552  -1.639  0.00  0.00    +0.029 A 
ATOM     16  C   UNL     1       1.632  -4.620  -2.366  0.00  0.00    +0.015 A 
ATOM     17  C   UNL     1       2.425  -3.481  -2.516  0.00  0.00    +0.037 A 
ATOM     18  C   UNL     1       2.026  -2.279  -1.928  0.00  0.00    +0.015 A 
ATOM     19  C   UNL     1       0.851  -2.223  -1.208  0.00  0.00    +0.029 A 
BRANCH  14  20
ATOM     20  S   UNL     1      -1.423  -3.279  -0.132  0.00  0.00    +0.061 S 
ATOM     21  O   UNL     1      -1.291  -2.181   0.761  0.00  0.00    -0.153 OA
ATOM     22  O   UNL     1      -1.692  -4.599   0.319  0.00  0.00    -0.153 OA
BRANCH  20  23
ATOM     23  N   UNL     1      -2.635  -2.884  -1.190  0.00  0.00    -0.177 NA
BRANCH  23  24
ATOM     24  C   UNL     1      -3.375  -3.942  -1.883  0.00  0.00    +0.109 C 
BRANCH  24  26
ATOM     25  C   UNL     1      -3.523  -5.288  -3.982  0.00  0.00    +0.005 C 
ATOM     26  C   UNL     1      -2.750  -4.184  -3.258  0.00  0.00    +0.014 C 
ENDBRANCH  24  26
ENDBRANCH  23  24
BRANCH  23  27
ATOM     27  C   UNL     1      -2.966  -1.478  -1.433  0.00  0.00    +0.109 C 
BRANCH  27  28
ATOM     28  C   UNL     1      -4.124  -1.062  -0.522  0.00  0.00    +0.014 C 
ATOM     29  C   UNL     1      -4.470   0.406  -0.776  0.00  0.00    +0.005 C 
ENDBRANCH  27  28
ENDBRANCH  23  27
ENDBRANCH  20  23
ENDBRANCH  14  20
ENDBRANCH   1  17
BRANCH   7  30
ATOM     30  O   UNL     1       8.939  -7.381  -3.675  0.00  0.00    -0.493 OA
ATOM     31  C   UNL     1      10.082  -8.237  -3.745  0.00  0.00    +0.277 C 
ENDBRANCH   7  30
BRANCH   3  32
ATOM     32  C   UNL     1       4.165  -5.684  -2.228  0.00  0.00    +0.097 C 
BRANCH  32  33
ATOM     33  C   UNL     1       3.640  -6.847  -3.073  0.00  0.00    -0.060 C 
BRANCH  33  34
ATOM     34  N   UNL     1       3.146  -7.911  -2.189  0.00  0.00    +0.377 N 
ATOM     35  C   UNL     1       2.534  -8.974  -2.997  0.00  0.00    -0.097 C 
ATOM     36  C   UNL     1       4.266  -8.466  -1.417  0.00  0.00    -0.097 C 
ATOM     37  H   UNL     1       2.457  -7.531  -1.557  0.00  0.00    -0.083 HD
ENDBRANCH  33  34
ENDBRANCH  32  33
ENDBRANCH   3  32
TORSDOF 11
