REMARK  Name = ZINC20558218
REMARK  5 active torsions:
REMARK  status: ('A' for Active; 'I' for Inactive)
REMARK    1  A    between atoms: C_4  and  C_7
REMARK    2  A    between atoms: C_7  and  N_8
REMARK    3  A    between atoms: C_20  and  C_28
REMARK    4  A    between atoms: C_22  and  C_26
REMARK    5  A    between atoms: C_23  and  N_25
REMARK                            x       y       z     vdW  Elec       q    Type
REMARK                         _______ _______ _______ _____ _____    ______ ____
ROOT
ATOM      1  N   UNL     1      -1.139   1.830  -0.035  0.00  0.00    -0.198 N 
ATOM      2  C   UNL     1      -0.005   1.034  -0.237  0.00  0.00    +0.062 A 
ATOM      3  C   UNL     1      -0.168  -0.340  -0.360  0.00  0.00    +0.025 A 
ATOM      4  C   UNL     1       0.932  -1.155  -0.539  0.00  0.00    +0.002 A 
ATOM      5  C   UNL     1       2.201  -0.605  -0.597  0.00  0.00    +0.001 A 
ATOM      6  C   UNL     1       2.376   0.756  -0.481  0.00  0.00    +0.013 A 
ATOM      7  C   UNL     1       1.270   1.598  -0.302  0.00  0.00    +0.042 A 
ATOM      8  C   UNL     1       1.519   3.056  -0.203  0.00  0.00    +0.162 C 
ATOM      9  C   UNL     1       0.610   3.886   0.300  0.00  0.00    +0.141 C 
ATOM     10  S   UNL     1      -0.935   3.224   0.853  0.00  0.00    +0.076 S 
ATOM     11  O   UNL     1      -0.758   2.832   2.207  0.00  0.00    -0.150 OA
ATOM     12  O   UNL     1      -1.948   4.132   0.441  0.00  0.00    -0.150 OA
ATOM     13  C   UNL     1       0.860   5.364   0.406  0.00  0.00    +0.118 C 
ATOM     14  C   UNL     1       2.332   5.651   0.291  0.00  0.00    +0.099 C 
ATOM     15  C   UNL     1       3.171   4.718  -0.226  0.00  0.00    +0.199 C 
ATOM     16  O   UNL     1       2.715   3.527  -0.646  0.00  0.00    -0.439 OA
ENDROOT
BRANCH  13  17
ATOM     17  C   UNL     1       0.125   6.074  -0.702  0.00  0.00    -0.033 A 
ATOM     18  C   UNL     1       0.425   5.791  -2.022  0.00  0.00    +0.004 A 
ATOM     19  C   UNL     1      -0.252   6.438  -3.038  0.00  0.00    +0.000 A 
ATOM     20  C   UNL     1      -1.223   7.375  -2.735  0.00  0.00    +0.000 A 
ATOM     21  C   UNL     1      -1.519   7.661  -1.416  0.00  0.00    +0.000 A 
ATOM     22  C   UNL     1      -0.845   7.011  -0.399  0.00  0.00    +0.004 A 
ENDBRANCH  13  17
BRANCH  15  23
ATOM     23  N   UNL     1       4.512   4.997  -0.322  0.00  0.00    -0.328 N 
ATOM     24  H   UNL     1       5.201   4.248  -0.739  0.00  0.00    +0.145 HD
ATOM     25  H   UNL     1       4.897   5.970   0.019  0.00  0.00    +0.145 HD
ENDBRANCH  15  23
BRANCH  14  26
ATOM     26  C   UNL     1       2.850   6.913   0.728  0.00  0.00    +0.101 C 
ATOM     27  N   UNL     1       3.261   7.913   1.074  0.00  0.00    -0.191 NA
ENDBRANCH  14  26
BRANCH   1  28
ATOM     28  C   UNL     1      -2.445   1.454  -0.581  0.00  0.00    +0.166 C 
BRANCH  28  32
ATOM     29  C   UNL     1      -2.708   2.724  -4.651  0.00  0.00    +0.000 A 
ATOM     30  C   UNL     1      -2.112   1.516  -4.341  0.00  0.00    +0.000 A 
ATOM     31  C   UNL     1      -2.026   1.105  -3.024  0.00  0.00    +0.005 A 
ATOM     32  C   UNL     1      -2.538   1.903  -2.017  0.00  0.00    -0.028 A 
ATOM     33  C   UNL     1      -3.139   3.108  -2.327  0.00  0.00    +0.005 A 
ATOM     34  C   UNL     1      -3.219   3.522  -3.644  0.00  0.00    +0.000 A 
ENDBRANCH  28  32
ENDBRANCH   1  28
TORSDOF 5
