REMARK  Name = ZINC65373572
REMARK  4 active torsions:
REMARK  status: ('A' for Active; 'I' for Inactive)
REMARK    1  A    between atoms: C_4  and  C_7
REMARK    2  A    between atoms: C_9  and  C_25
REMARK    3  A    between atoms: N_11  and  C_14
REMARK    4  A    between atoms: C_14  and  C_15
REMARK                            x       y       z     vdW  Elec       q    Type
REMARK                         _______ _______ _______ _____ _____    ______ ____
ROOT
ATOM      1  C   UNL     1       3.687  -1.008  -0.089  0.00  0.00    +0.069 C 
ATOM      2  C   UNL     1       4.112  -1.138   1.390  0.00  0.00    -0.039 C 
ATOM      3  N   UNL     1       4.869  -2.405   1.479  0.00  0.00    +0.394 N 
ATOM      4  C   UNL     1       4.909  -2.979   0.116  0.00  0.00    +0.006 C 
ATOM      5  N   UNL     1       3.730  -2.409  -0.589  0.00  0.00    -0.327 NA
ATOM      6  H   UNL     1       2.888  -2.907  -0.343  0.00  0.00    +0.120 HD
ATOM      7  H   UNL     1       4.402  -3.041   2.107  0.00  0.00    -0.079 HD
ENDROOT
BRANCH   1  11
ATOM      8  C   UNL     1      -0.269   0.574  -0.386  0.00  0.00    +0.000 A 
ATOM      9  C   UNL     1       0.822   1.405  -0.556  0.00  0.00    +0.000 A 
ATOM     10  C   UNL     1       2.102   0.893  -0.460  0.00  0.00    +0.005 A 
ATOM     11  C   UNL     1       2.292  -0.450  -0.193  0.00  0.00    -0.032 A 
ATOM     12  C   UNL     1       1.200  -1.281  -0.022  0.00  0.00    +0.005 A 
ATOM     13  C   UNL     1      -0.080  -0.769  -0.119  0.00  0.00    +0.000 A 
ENDBRANCH   1  11
BRANCH   2  14
ATOM     14  C   UNL     1       2.878  -1.194   2.291  0.00  0.00    +0.005 C 
ATOM     15  C   UNL     1       2.200   0.196   2.370  0.00  0.00    +0.032 C 
ATOM     16  C   UNL     1       1.811   0.283   3.867  0.00  0.00    +0.160 C 
ATOM     17  O   UNL     1       2.914  -0.359   4.541  0.00  0.00    -0.380 OA
ATOM     18  C   UNL     1       3.285  -1.501   3.745  0.00  0.00    +0.162 C 
ENDBRANCH   2  14
BRANCH   3  19
ATOM     19  C   UNL     1       6.235  -2.140   1.951  0.00  0.00    -0.040 C 
BRANCH  19  20
ATOM     20  C   UNL     1       6.958  -3.446   2.155  0.00  0.00    -0.058 C 
ATOM     21  C   UNL     1       7.766  -3.995   1.198  0.00  0.00    +0.002 C 
ATOM     22  C   UNL     1       8.488  -5.234   1.472  0.00  0.00    -0.002 C 
ATOM     23  C   UNL     1       8.180  -6.044   2.491  0.00  0.00    +0.004 C 
ATOM     24  C   UNL     1       7.010  -5.702   3.364  0.00  0.00    +0.158 C 
ATOM     25  C   UNL     1       6.855  -4.187   3.346  0.00  0.00    -0.017 C 
ATOM     26  C   UNL     1       6.661  -3.837   4.628  0.00  0.00    +0.025 C 
ATOM     27  C   UNL     1       6.937  -4.943   5.462  0.00  0.00    +0.106 C 
ATOM     28  N   UNL     1       7.168  -6.033   4.772  0.00  0.00    -0.279 NA
ENDBRANCH  19  20
ENDBRANCH   3  19
TORSDOF 4
