REMARK  Name = ZINC02790923
REMARK  7 active torsions:
REMARK  status: ('A' for Active; 'I' for Inactive)
REMARK    1  A    between atoms: C_4  and  N_7
REMARK    2  A    between atoms: C_10  and  C_12
REMARK    3  A    between atoms: C_17  and  C_25
REMARK    4  A    between atoms: C_19  and  C_23
REMARK    5  A    between atoms: C_20  and  N_22
REMARK    6  A    between atoms: C_28  and  O_31
REMARK    7  A    between atoms: O_31  and  C_32
REMARK                            x       y       z     vdW  Elec       q    Type
REMARK                         _______ _______ _______ _____ _____    ______ ____
ROOT
ATOM      1  N   UNL     1      -3.189  -1.732   0.390  0.00  0.00    -0.199 N 
ATOM      2  C   UNL     1      -2.540  -2.620  -0.397  0.00  0.00    +0.230 A 
ATOM      3  C   UNL     1      -1.295  -2.120  -0.647  0.00  0.00    +0.058 A 
ATOM      4  C   UNL     1      -1.183  -0.888   0.008  0.00  0.00    +0.136 A 
ATOM      5  N   UNL     1      -2.322  -0.657   0.638  0.00  0.00    -0.160 NA
ATOM      6  C   UNL     1      -0.282  -2.845  -1.495  0.00  0.00    +0.102 C 
ATOM      7  C   UNL     1      -0.985  -3.974  -2.207  0.00  0.00    +0.098 C 
ATOM      8  C   UNL     1      -2.233  -4.373  -1.876  0.00  0.00    +0.200 C 
ATOM      9  O   UNL     1      -2.966  -3.808  -0.895  0.00  0.00    -0.423 OA
ENDROOT
BRANCH   1  13
ATOM     10  C   UNL     1      -7.076  -2.129   1.840  0.00  0.00    +0.000 A 
ATOM     11  C   UNL     1      -6.109  -1.518   2.617  0.00  0.00    +0.002 A 
ATOM     12  C   UNL     1      -4.820  -1.385   2.139  0.00  0.00    +0.028 A 
ATOM     13  C   UNL     1      -4.496  -1.866   0.877  0.00  0.00    +0.069 A 
ATOM     14  C   UNL     1      -5.471  -2.474   0.098  0.00  0.00    +0.028 A 
ATOM     15  C   UNL     1      -6.756  -2.608   0.583  0.00  0.00    +0.002 A 
ENDBRANCH   1  13
BRANCH   6  16
ATOM     16  C   UNL     1       0.812  -3.399  -0.618  0.00  0.00    -0.034 A 
ATOM     17  C   UNL     1       0.503  -4.302   0.383  0.00  0.00    +0.008 A 
ATOM     18  C   UNL     1       1.505  -4.815   1.184  0.00  0.00    +0.046 A 
ATOM     19  C   UNL     1       2.819  -4.415   0.992  0.00  0.00    +0.127 A 
ATOM     20  C   UNL     1       3.125  -3.504  -0.009  0.00  0.00    +0.046 A 
ATOM     21  C   UNL     1       2.121  -2.998  -0.811  0.00  0.00    +0.008 A 
BRANCH  19  22
ATOM     22  O   UNL     1       3.805  -4.913   1.783  0.00  0.00    -0.434 OA
BRANCH  22  23
ATOM     23  C   UNL     1       3.417  -5.847   2.793  0.00  0.00    +0.541 C 
ATOM     24  F   UNL     1       2.506  -5.239   3.665  0.00  0.00    -0.166 F 
ATOM     25  F   UNL     1       2.817  -6.960   2.194  0.00  0.00    -0.166 F 
ENDBRANCH  22  23
ENDBRANCH  19  22
ENDBRANCH   6  16
BRANCH   4  26
ATOM     26  C   UNL     1       0.002  -0.004   0.002  0.00  0.00    +0.155 A 
ATOM     27  C   UNL     1      -0.016   1.355   0.009  0.00  0.00    +0.051 A 
ATOM     28  C   UNL     1       1.328   1.780  -0.001  0.00  0.00    +0.042 A 
ATOM     29  C   UNL     1       2.092   0.670  -0.014  0.00  0.00    +0.196 A 
ATOM     30  O   UNL     1       1.288  -0.406  -0.012  0.00  0.00    -0.461 OA
ENDBRANCH   4  26
BRANCH   8  31
ATOM     31  N   UNL     1      -2.787  -5.413  -2.579  0.00  0.00    -0.328 N 
ATOM     32  H   UNL     1      -3.681  -5.722  -2.365  0.00  0.00    +0.145 HD
ATOM     33  H   UNL     1      -2.284  -5.840  -3.291  0.00  0.00    +0.145 HD
ENDBRANCH   8  31
BRANCH   7  34
ATOM     34  C   UNL     1      -0.304  -4.648  -3.271  0.00  0.00    +0.101 C 
ATOM     35  N   UNL     1       0.235  -5.183  -4.116  0.00  0.00    -0.191 NA
ENDBRANCH   7  34
TORSDOF 7
