REMARK  Name = ZINC12794553
REMARK  6 active torsions:
REMARK  status: ('A' for Active; 'I' for Inactive)
REMARK    1  A    between atoms: C_1  and  C_2
REMARK    2  A    between atoms: C_2  and  C_25
REMARK    3  A    between atoms: N_5  and  C_9
REMARK    4  A    between atoms: C_9  and  C_10
REMARK    5  A    between atoms: C_10  and  C_12
REMARK    6  A    between atoms: C_14  and  C_18
REMARK                            x       y       z     vdW  Elec       q    Type
REMARK                         _______ _______ _______ _____ _____    ______ ____
ROOT
ATOM      1  C   UNL     1      -6.947  -0.711  -1.087  0.00  0.00    +0.047 C 
ATOM      2  C   UNL     1      -6.899   0.739  -0.601  0.00  0.00    +0.135 C 
ATOM      3  C   UNL     1      -5.637   1.427  -1.083  0.00  0.00    +0.251 C 
ATOM      4  O   UNL     1      -5.303   1.622  -2.232  0.00  0.00    -0.272 OA
ATOM      5  N   UNL     1      -4.964   1.774   0.032  0.00  0.00    -0.216 N 
ATOM      6  C   UNL     1      -5.622   1.413   1.139  0.00  0.00    +0.310 C 
ATOM      7  O   UNL     1      -5.215   1.622   2.265  0.00  0.00    -0.252 OA
ATOM      8  N   UNL     1      -6.783   0.791   0.867  0.00  0.00    -0.281 N 
ATOM      9  H   UNL     1      -7.420   0.444   1.511  0.00  0.00    +0.152 HD
ENDROOT
BRANCH   2  10
ATOM     10  C   UNL     1      -8.119   1.494  -1.062  0.00  0.00    -0.015 A 
ATOM     11  C   UNL     1      -8.101   2.139  -2.298  0.00  0.00    +0.007 A 
ATOM     12  C   UNL     1      -9.187   2.825  -2.747  0.00  0.00    +0.009 A 
ATOM     13  C   UNL     1     -10.342   2.896  -1.950  0.00  0.00    -0.018 A 
ATOM     14  C   UNL     1     -11.481   3.600  -2.378  0.00  0.00    +0.008 A 
ATOM     15  C   UNL     1     -12.582   3.647  -1.579  0.00  0.00    +0.001 A 
ATOM     16  C   UNL     1     -12.599   3.008  -0.341  0.00  0.00    +0.001 A 
ATOM     17  C   UNL     1     -11.515   2.317   0.105  0.00  0.00    +0.008 A 
ATOM     18  C   UNL     1     -10.359   2.246  -0.691  0.00  0.00    -0.018 A 
ATOM     19  C   UNL     1      -9.220   1.542  -0.264  0.00  0.00    +0.014 A 
ENDBRANCH   2  10
BRANCH   5  20
ATOM     20  C   UNL     1      -3.674   2.469   0.030  0.00  0.00    +0.197 C 
BRANCH  20  21
ATOM     21  C   UNL     1      -2.558   1.456   0.020  0.00  0.00    +0.182 C 
ATOM     22  O   UNL     1      -2.816   0.270   0.015  0.00  0.00    -0.290 OA
BRANCH  21  23
ATOM     23  C   UNL     1      -1.162   1.903   0.017  0.00  0.00    +0.037 A 
ATOM     24  C   UNL     1      -0.013   1.076   0.008  0.00  0.00    +0.043 A 
ATOM     25  C   UNL     1       1.071   1.901   0.002  0.00  0.00    +0.103 A 
ATOM     26  N   UNL     1       0.625   3.205   0.013  0.00  0.00    -0.356 N 
ATOM     27  H   UNL     1       1.192   3.992   0.011  0.00  0.00    +0.165 HD
ATOM     28  C   UNL     1      -0.716   3.215   0.025  0.00  0.00    +0.094 A 
BRANCH  25  29
ATOM     29  C   UNL     1       2.476   1.474  -0.013  0.00  0.00    +0.263 C 
ATOM     30  O   UNL     1       2.752   0.289  -0.021  0.00  0.00    -0.268 OA
ATOM     31  N   UNL     1       3.461   2.395  -0.017  0.00  0.00    -0.296 N 
ATOM     32  C   UNL     1       3.270   3.853  -0.015  0.00  0.00    +0.108 C 
ATOM     33  C   UNL     1       4.671   4.498  -0.047  0.00  0.00    +0.020 C 
ATOM     34  C   UNL     1       5.556   3.372  -0.645  0.00  0.00    +0.020 C 
ATOM     35  C   UNL     1       4.906   2.107  -0.032  0.00  0.00    +0.108 C 
ENDBRANCH  25  29
ENDBRANCH  21  23
ENDBRANCH  20  21
ENDBRANCH   5  20
TORSDOF 5
