REMARK  Name = ZINC35966685
REMARK  11 active torsions:
REMARK  status: ('A' for Active; 'I' for Inactive)
REMARK    1  A    between atoms: C_1  and  C_2
REMARK    2  A    between atoms: C_2  and  N_3
REMARK    3  A    between atoms: C_6  and  C_11
REMARK    4  A    between atoms: C_16  and  C_17
REMARK    5  A    between atoms: N_23  and  C_25
REMARK    6  A    between atoms: C_25  and  C_27
REMARK    7  A    between atoms: C_25  and  C_31
REMARK    8  A    between atoms: C_27  and  C_28
REMARK    9  A    between atoms: C_28  and  C_29
REMARK   10  A    between atoms: C_28  and  C_30
REMARK   11  A    between atoms: N_36  and  C_39
REMARK                            x       y       z     vdW  Elec       q    Type
REMARK                         _______ _______ _______ _____ _____    ______ ____
ROOT
ATOM      1  N   UNL     1       0.518   1.179  -0.662  0.00  0.00    -0.257 N 
ATOM      2  C   UNL     1      -0.104   0.757  -1.802  0.00  0.00    +0.042 C 
ATOM      3  C   UNL     1       0.498  -0.101  -2.651  0.00  0.00    +0.058 C 
ATOM      4  C   UNL     1       1.890  -0.582  -2.296  0.00  0.00    +0.142 C 
ATOM      5  N   UNL     1       2.474  -0.069  -1.046  0.00  0.00    -0.288 N 
ATOM      6  C   UNL     1       1.749   0.790  -0.303  0.00  0.00    +0.307 C 
ATOM      7  O   UNL     1       2.224   1.223   0.729  0.00  0.00    -0.252 OA
ATOM      8  C   UNL     1      -0.346  -0.381  -3.745  0.00  0.00    +0.247 C 
ATOM      9  O   UNL     1      -0.057  -1.125  -4.664  0.00  0.00    -0.270 OA
ATOM     10  N   UNL     1      -1.512   0.281  -3.642  0.00  0.00    -0.281 N 
ATOM     11  C   UNL     1      -1.461   1.063  -2.397  0.00  0.00    +0.160 C 
ATOM     12  H   UNL     1       3.362  -0.340  -0.765  0.00  0.00    +0.151 HD
ENDROOT
BRANCH   4  13
ATOM     13  C   UNL     1       1.854  -2.086  -2.208  0.00  0.00    -0.011 A 
ATOM     14  C   UNL     1       1.221  -2.701  -1.145  0.00  0.00    +0.006 A 
ATOM     15  C   UNL     1       1.188  -4.081  -1.064  0.00  0.00    +0.000 A 
ATOM     16  C   UNL     1       1.787  -4.845  -2.048  0.00  0.00    +0.001 A 
ATOM     17  C   UNL     1       2.420  -4.230  -3.111  0.00  0.00    +0.013 A 
ATOM     18  C   UNL     1       2.449  -2.850  -3.194  0.00  0.00    +0.060 A 
BRANCH  18  19
ATOM     19  C   UNL     1       3.134  -2.179  -4.357  0.00  0.00    +0.418 C 
ATOM     20  F   UNL     1       3.583  -3.151  -5.257  0.00  0.00    -0.166 F 
ATOM     21  F   UNL     1       2.231  -1.328  -5.003  0.00  0.00    -0.166 F 
ATOM     22  F   UNL     1       4.224  -1.436  -3.891  0.00  0.00    -0.166 F 
ENDBRANCH  18  19
ENDBRANCH   4  13
BRANCH   1  24
ATOM     23  C   UNL     1       0.118   3.549  -0.209  0.00  0.00    +0.025 C 
ATOM     24  C   UNL     1      -0.196   2.112   0.212  0.00  0.00    +0.111 C 
ENDBRANCH   1  24
BRANCH  10  25
ATOM     25  C   UNL     1      -2.626   0.233  -4.592  0.00  0.00    +0.163 C 
BRANCH  25  26
ATOM     26  C   UNL     1      -2.205   0.869  -5.892  0.00  0.00    +0.236 C 
ATOM     27  O   UNL     1      -1.037   1.125  -6.091  0.00  0.00    -0.274 OA
ATOM     28  N   UNL     1      -3.127   1.153  -6.833  0.00  0.00    -0.298 N 
ATOM     29  C   UNL     1      -4.561   0.956  -6.569  0.00  0.00    +0.123 C 
ATOM     30  C   UNL     1      -5.304   2.247  -6.929  0.00  0.00    +0.103 C 
ATOM     31  N   UNL     1      -4.973   2.630  -8.308  0.00  0.00    -0.302 NA
ATOM     32  C   UNL     1      -3.542   2.930  -8.449  0.00  0.00    +0.103 C 
ATOM     33  C   UNL     1      -2.727   1.673  -8.149  0.00  0.00    +0.123 C 
ATOM     34  C   UNL     1      -5.795   3.764  -8.751  0.00  0.00    +0.105 C 
ENDBRANCH  25  26
BRANCH  25  35
ATOM     35  C   UNL     1      -3.022  -1.224  -4.841  0.00  0.00    +0.035 C 
BRANCH  35  36
ATOM     36  C   UNL     1      -3.623  -1.814  -3.564  0.00  0.00    -0.015 C 
ATOM     37  C   UNL     1      -4.230  -3.184  -3.873  0.00  0.00    +0.007 C 
ATOM     38  C   UNL     1      -2.527  -1.968  -2.508  0.00  0.00    +0.007 C 
ENDBRANCH  35  36
ENDBRANCH  25  35
ENDBRANCH  10  25
TORSDOF 7
