REMARK  Name = ZINC13060451
REMARK  6 active torsions:
REMARK  status: ('A' for Active; 'I' for Inactive)
REMARK    1  A    between atoms: C_1  and  C_2
REMARK    2  A    between atoms: C_9  and  C_14
REMARK    3  A    between atoms: N_16  and  C_17
REMARK    4  A    between atoms: C_17  and  C_18
REMARK    5  A    between atoms: C_18  and  C_20
REMARK    6  A    between atoms: C_18  and  C_27
REMARK                            x       y       z     vdW  Elec       q    Type
REMARK                         _______ _______ _______ _____ _____    ______ ____
ROOT
ATOM      1  C   UNL     1       1.106   3.970   1.262  0.00  0.00    +0.117 C 
ENDROOT
BRANCH   1   4
ATOM      2  C   UNL     1       1.252   6.142   2.355  0.00  0.00    +0.244 C 
ATOM      3  O   UNL     1       0.523   5.718   3.231  0.00  0.00    -0.270 OA
ATOM      4  N   UNL     1       1.603   5.346   1.326  0.00  0.00    -0.310 N 
ATOM      5  H   UNL     1       2.185   5.685   0.627  0.00  0.00    +0.149 HD
BRANCH   2  13
ATOM      6  C   UNL     1       2.436  13.994   4.012  0.00  0.00    +0.029 C 
ATOM      7  C   UNL     1       1.936  12.644   3.494  0.00  0.00    +0.134 C 
ATOM      8  C   UNL     1       1.497  11.791   4.652  0.00  0.00    +0.230 C 
ATOM      9  O   UNL     1       1.135  12.346   5.668  0.00  0.00    -0.274 OA
ATOM     10  N   UNL     1       1.486  10.461   4.625  0.00  0.00    -0.284 N 
ATOM     11  C   UNL     1       1.855   9.655   3.550  0.00  0.00    +0.048 A 
ATOM     12  C   UNL     1       1.389   8.352   3.487  0.00  0.00    +0.037 A 
ATOM     13  C   UNL     1       1.753   7.528   2.419  0.00  0.00    +0.039 A 
ATOM     14  C   UNL     1       2.596   8.013   1.415  0.00  0.00    +0.014 A 
ATOM     15  C   UNL     1       3.056   9.310   1.474  0.00  0.00    +0.017 A 
ATOM     16  C   UNL     1       2.692  10.129   2.534  0.00  0.00    +0.030 A 
ATOM     17  S   UNL     1       3.280  11.792   2.614  0.00  0.00    -0.111 S 
ATOM     18  H   UNL     1       1.191  10.009   5.431  0.00  0.00    +0.155 HD
ENDBRANCH   2  13
ENDBRANCH   1   4
BRANCH   1  19
ATOM     19  C   UNL     1       1.649   3.289   0.004  0.00  0.00    +0.069 C 
BRANCH  19  20
ATOM     20  C   UNL     1       1.239   1.839   0.000  0.00  0.00    -0.013 A 
ATOM     21  C   UNL     1      -0.017   1.364   0.009  0.00  0.00    +0.088 A 
ATOM     22  N   UNL     1       0.002  -0.004   0.002  0.00  0.00    -0.360 N 
ATOM     23  H   UNL     1      -0.784  -0.572   0.006  0.00  0.00    +0.165 HD
ATOM     24  C   UNL     1       1.303  -0.455  -0.013  0.00  0.00    +0.047 A 
ATOM     25  C   UNL     1       2.135   0.680  -0.015  0.00  0.00    +0.003 A 
ATOM     26  C   UNL     1       3.522   0.527  -0.029  0.00  0.00    +0.010 A 
ATOM     27  C   UNL     1       4.066  -0.727  -0.041  0.00  0.00    +0.001 A 
ATOM     28  C   UNL     1       3.250  -1.850  -0.038  0.00  0.00    +0.002 A 
ATOM     29  C   UNL     1       1.878  -1.721  -0.025  0.00  0.00    +0.026 A 
ENDBRANCH  19  20
BRANCH  19  30
ATOM     30  C   UNL     1       1.090   3.972  -1.218  0.00  0.00    -0.020 A 
ATOM     31  C   UNL     1      -0.276   4.007  -1.426  0.00  0.00    +0.006 A 
ATOM     32  C   UNL     1      -0.789   4.637  -2.544  0.00  0.00    +0.000 A 
ATOM     33  C   UNL     1       0.064   5.224  -3.460  0.00  0.00    +0.001 A 
ATOM     34  C   UNL     1       1.430   5.186  -3.256  0.00  0.00    +0.020 A 
ATOM     35  C   UNL     1       1.944   4.559  -2.134  0.00  0.00    +0.045 A 
ATOM     36 CL   UNL     1       3.660   4.510  -1.877  0.00  0.00    -0.083 Cl
ENDBRANCH  19  30
ENDBRANCH   1  19
TORSDOF 5
