REMARK  Name = ZINC38650512
REMARK  12 active torsions:
REMARK  status: ('A' for Active; 'I' for Inactive)
REMARK    1  A    between atoms: C_1  and  C_2
REMARK    2  A    between atoms: C_2  and  O_3
REMARK    3  A    between atoms: O_3  and  C_4
REMARK    4  A    between atoms: C_9  and  C_10
REMARK    5  A    between atoms: C_15  and  O_24
REMARK    6  A    between atoms: C_19  and  N_23
REMARK    7  A    between atoms: C_20  and  C_21
REMARK    8  A    between atoms: O_24  and  C_25
REMARK    9  A    between atoms: C_25  and  C_27
REMARK   10  A    between atoms: C_30  and  O_33
REMARK   11  A    between atoms: O_33  and  C_34
REMARK   12  A    between atoms: C_34  and  C_35
REMARK                            x       y       z     vdW  Elec       q    Type
REMARK                         _______ _______ _______ _____ _____    ______ ____
ROOT
ATOM      1  C   UNL     1       2.093  -1.485   3.451  0.00  0.00    +0.101 C 
ATOM      2  C   UNL     1       1.442  -1.745   4.783  0.00  0.00    +0.008 A 
ATOM      3  C   UNL     1       0.209  -1.180   5.059  0.00  0.00    +0.012 A 
ATOM      4  C   UNL     1      -0.403  -1.406   6.276  0.00  0.00    +0.047 A 
ATOM      5  C   UNL     1       0.218  -2.203   7.228  0.00  0.00    +0.135 A 
ATOM      6  C   UNL     1       1.452  -2.770   6.954  0.00  0.00    +0.093 A 
ATOM      7  C   UNL     1       2.067  -2.542   5.729  0.00  0.00    +0.138 A 
ATOM      8  O   UNL     1       3.275  -3.104   5.477  0.00  0.00    -0.441 OA
ATOM      9  C   UNL     1       4.054  -2.608   4.502  0.00  0.00    +0.199 C 
ATOM     10  C   UNL     1       3.554  -1.835   3.513  0.00  0.00    +0.098 C 
ENDROOT
BRANCH   1  16
ATOM     11  C   UNL     1       0.800  -1.718   1.315  0.00  0.00    +0.125 A 
ATOM     12  C   UNL     1       0.188  -2.496   0.342  0.00  0.00    +0.046 A 
ATOM     13  C   UNL     1       0.196  -3.873   0.454  0.00  0.00    +0.004 A 
ATOM     14  C   UNL     1       0.813  -4.476   1.535  0.00  0.00    +0.001 A 
ATOM     15  C   UNL     1       1.423  -3.704   2.506  0.00  0.00    +0.008 A 
ATOM     16  C   UNL     1       1.423  -2.327   2.395  0.00  0.00    +0.007 A 
BRANCH  11  17
ATOM     17  O   UNL     1       0.794  -0.364   1.207  0.00  0.00    -0.492 OA
BRANCH  17  19
ATOM     18  C   UNL     1       0.231   1.719   0.119  0.00  0.00    +0.048 C 
ATOM     19  C   UNL     1       0.134   0.193   0.068  0.00  0.00    +0.225 C 
ENDBRANCH  17  19
ENDBRANCH  11  17
ENDBRANCH   1  16
BRANCH   9  20
ATOM     20  N   UNL     1       5.396  -2.897   4.510  0.00  0.00    -0.328 N 
ATOM     21  H   UNL     1       5.768  -3.451   5.213  0.00  0.00    +0.145 HD
ATOM     22  H   UNL     1       5.971  -2.546   3.812  0.00  0.00    +0.145 HD
ENDBRANCH   9  20
BRANCH  10  23
ATOM     23  C   UNL     1       4.438  -1.339   2.501  0.00  0.00    +0.101 C 
ATOM     24  N   UNL     1       5.139  -0.946   1.699  0.00  0.00    -0.191 NA
ENDBRANCH  10  23
BRANCH   5  25
ATOM     25  O   UNL     1      -0.383  -2.427   8.426  0.00  0.00    -0.422 OA
BRANCH  25  26
ATOM     26  C   UNL     1       0.168  -1.873   9.524  0.00  0.00    +0.344 C 
ATOM     27  O   UNL     1       1.109  -1.113   9.413  0.00  0.00    -0.245 OA
BRANCH  26  28
ATOM     28  C   UNL     1      -0.372  -2.189  10.859  0.00  0.00    +0.060 A 
ATOM     29  C   UNL     1      -1.451  -3.068  10.989  0.00  0.00    +0.018 A 
ATOM     30  C   UNL     1      -1.951  -3.361  12.238  0.00  0.00    +0.046 A 
ATOM     31  C   UNL     1      -1.385  -2.784  13.368  0.00  0.00    +0.121 A 
ATOM     32  C   UNL     1      -0.312  -1.909  13.244  0.00  0.00    +0.046 A 
ATOM     33  C   UNL     1       0.198  -1.615  11.999  0.00  0.00    +0.018 A 
BRANCH  31  34
ATOM     34  O   UNL     1      -1.881  -3.076  14.597  0.00  0.00    -0.488 OA
BRANCH  34  35
ATOM     35  C   UNL     1      -1.252  -2.448  15.716  0.00  0.00    +0.256 C 
BRANCH  35  36
ATOM     36  C   UNL     1      -1.933  -2.888  16.987  0.00  0.00    +0.006 C 
ATOM     37  C   UNL     1      -1.217  -3.239  18.026  0.00  0.00    +0.007 C 
ENDBRANCH  35  36
ENDBRANCH  34  35
ENDBRANCH  31  34
ENDBRANCH  26  28
ENDBRANCH  25  26
ENDBRANCH   5  25
TORSDOF 11
