REMARK  Name = ZINC41297626
REMARK  3 active torsions:
REMARK  status: ('A' for Active; 'I' for Inactive)
REMARK    1  A    between atoms: C_1  and  O_2
REMARK    2  A    between atoms: O_2  and  C_3
REMARK    3  A    between atoms: C_8  and  C_9
REMARK                            x       y       z     vdW  Elec       q    Type
REMARK                         _______ _______ _______ _____ _____    ______ ____
ROOT
ATOM      1  C   UNL     1      -0.012  -2.830  -0.013  0.00  0.00    +0.114 A 
ATOM      2  N   UNL     1       1.249  -2.418  -0.017  0.00  0.00    -0.224 NA
ATOM      3  C   UNL     1       2.266  -3.265  -0.031  0.00  0.00    +0.130 A 
ATOM      4  C   UNL     1       1.972  -4.603  -0.045  0.00  0.00    +0.031 A 
ATOM      5  S   UNL     1       0.201  -4.608  -0.025  0.00  0.00    -0.070 S 
ATOM      6  C   UNL     1       2.939  -5.736  -0.067  0.00  0.00    +0.047 C 
ATOM      7  C   UNL     1       4.312  -5.193  -0.494  0.00  0.00    +0.024 C 
ATOM      8  C   UNL     1       4.621  -3.922   0.303  0.00  0.00    +0.103 C 
ATOM      9  N   UNL     1       3.640  -2.879  -0.031  0.00  0.00    -0.328 N 
ATOM     10  H   UNL     1       3.913  -1.972  -0.240  0.00  0.00    +0.147 HD
ENDROOT
BRANCH   1  16
ATOM     11  C   UNL     1      -1.200  -0.637   0.010  0.00  0.00    +0.130 A 
ATOM     12  C   UNL     1      -2.373   0.099   0.019  0.00  0.00    +0.046 A 
ATOM     13  C   UNL     1      -3.595  -0.546   0.028  0.00  0.00    +0.004 A 
ATOM     14  C   UNL     1      -3.657  -1.929   0.028  0.00  0.00    +0.001 A 
ATOM     15  C   UNL     1      -2.497  -2.676   0.018  0.00  0.00    +0.014 A 
ATOM     16  C   UNL     1      -1.257  -2.036   0.003  0.00  0.00    +0.049 A 
BRANCH  11  18
ATOM     17  C   UNL     1      -0.017   1.425   0.010  0.00  0.00    +0.277 C 
ATOM     18  O   UNL     1       0.002  -0.004   0.002  0.00  0.00    -0.494 OA
ENDBRANCH  11  18
ENDBRANCH   1  16
TORSDOF 2
