REMARK  Name = ZINC39021448
REMARK  8 active torsions:
REMARK  status: ('A' for Active; 'I' for Inactive)
REMARK    1  A    between atoms: C_1  and  C_2
REMARK    2  A    between atoms: C_5  and  O_31
REMARK    3  A    between atoms: C_7  and  O_30
REMARK    4  A    between atoms: C_13  and  C_15
REMARK    5  A    between atoms: C_15  and  C_16
REMARK    6  A    between atoms: N_18  and  C_19
REMARK    7  A    between atoms: C_19  and  C_20
REMARK    8  A    between atoms: C_20  and  C_21
REMARK                            x       y       z     vdW  Elec       q    Type
REMARK                         _______ _______ _______ _____ _____    ______ ____
ROOT
ATOM      1  C   UNL     1       0.440  -1.995   1.458  0.00  0.00    +0.111 C 
ENDROOT
BRANCH   1  13
ATOM      2  C   UNL     1      -0.019   1.526   0.010  0.00  0.00    +0.013 C 
ATOM      3  C   UNL     1       0.002  -0.004   0.002  0.00  0.00    +0.037 C 
ATOM      4  C   UNL     1       0.705  -0.489  -1.241  0.00  0.00    +0.040 A 
ATOM      5  C   UNL     1      -0.006  -0.513  -2.437  0.00  0.00    +0.127 A 
ATOM      6  C   UNL     1       0.602  -0.945  -3.604  0.00  0.00    +0.091 A 
ATOM      7  C   UNL     1       1.927  -1.354  -3.582  0.00  0.00    +0.124 A 
ATOM      8  C   UNL     1       2.635  -1.332  -2.393  0.00  0.00    +0.092 A 
ATOM      9  C   UNL     1       2.024  -0.903  -1.219  0.00  0.00    +0.142 A 
ATOM     10  O   UNL     1       2.753  -0.917  -0.070  0.00  0.00    -0.425 OA
ATOM     11  C   UNL     1       2.223  -0.313   1.012  0.00  0.00    +0.317 C 
ATOM     12  O   UNL     1       2.898   0.353   1.759  0.00  0.00    -0.250 OA
ATOM     13  C   UNL     1       0.740  -0.510   1.246  0.00  0.00    +0.114 C 
BRANCH   7  14
ATOM     14  O   UNL     1       2.528  -1.775  -4.726  0.00  0.00    -0.507 OA
ATOM     15  H   UNL     1       2.960  -1.069  -5.226  0.00  0.00    +0.292 HD
ENDBRANCH   7  14
BRANCH   5  16
ATOM     16  O   UNL     1      -1.305  -0.112  -2.459  0.00  0.00    -0.506 OA
ATOM     17  H   UNL     1      -1.422   0.831  -2.637  0.00  0.00    +0.292 HD
ENDBRANCH   5  16
ENDBRANCH   1  13
BRANCH   1  18
ATOM     18  C   UNL     1       1.069  -2.454   2.749  0.00  0.00    +0.214 C 
ATOM     19  O   UNL     1       1.695  -1.671   3.431  0.00  0.00    -0.276 OA
ATOM     20  N   UNL     1       0.936  -3.736   3.145  0.00  0.00    -0.315 N 
ATOM     21  H   UNL     1       0.435  -4.362   2.599  0.00  0.00    +0.149 HD
BRANCH  20  22
ATOM     22  C   UNL     1       1.547  -4.182   4.399  0.00  0.00    +0.109 C 
BRANCH  22  23
ATOM     23  C   UNL     1       1.248  -5.667   4.612  0.00  0.00    +0.056 C 
BRANCH  23  24
ATOM     24  C   UNL     1       1.876  -6.126   5.902  0.00  0.00    -0.021 A 
ATOM     25  C   UNL     1       1.294  -6.017   7.242  0.00  0.00    +0.003 A 
ATOM     26  C   UNL     1       0.094  -5.508   7.740  0.00  0.00    +0.010 A 
ATOM     27  C   UNL     1      -0.159  -5.556   9.083  0.00  0.00    +0.001 A 
ATOM     28  C   UNL     1       0.770  -6.105   9.956  0.00  0.00    +0.002 A 
ATOM     29  C   UNL     1       1.962  -6.612   9.486  0.00  0.00    +0.026 A 
ATOM     30  C   UNL     1       2.239  -6.575   8.123  0.00  0.00    +0.047 A 
ATOM     31  N   UNL     1       3.309  -6.989   7.362  0.00  0.00    -0.360 N 
ATOM     32  C   UNL     1       3.073  -6.719   6.041  0.00  0.00    +0.087 A 
ATOM     33  H   UNL     1       4.110  -7.412   7.709  0.00  0.00    +0.165 HD
ENDBRANCH  23  24
ENDBRANCH  22  23
ENDBRANCH  20  22
ENDBRANCH   1  18
TORSDOF 7
