REMARK  Name = ZINC63698898
REMARK  7 active torsions:
REMARK  status: ('A' for Active; 'I' for Inactive)
REMARK    1  A    between atoms: C_1  and  C_2
REMARK    2  A    between atoms: C_2  and  C_3
REMARK    3  A    between atoms: C_3  and  C_5
REMARK    4  A    between atoms: C_3  and  N_16
REMARK    5  A    between atoms: C_17  and  C_19
REMARK    6  A    between atoms: C_19  and  S_20
REMARK    7  A    between atoms: S_20  and  C_21
REMARK                            x       y       z     vdW  Elec       q    Type
REMARK                         _______ _______ _______ _____ _____    ______ ____
ROOT
ATOM      1  N   UNL     1      -0.008  -0.140   2.444  0.00  0.00    -0.308 N 
ATOM      2  C   UNL     1       0.164   1.077   2.997  0.00  0.00    +0.223 C 
ATOM      3  O   UNL     1       0.941   1.865   2.500  0.00  0.00    -0.275 OA
ATOM      4  H   UNL     1      -0.629  -0.770   2.842  0.00  0.00    +0.149 HD
ENDROOT
BRANCH   1   5
ATOM      5  C   UNL     1       0.742  -0.511   1.242  0.00  0.00    +0.103 C 
BRANCH   5   6
ATOM      6  C   UNL     1       0.870  -2.011   1.172  0.00  0.00    -0.024 A 
ATOM      7  C   UNL     1      -0.203  -2.811   1.520  0.00  0.00    +0.009 A 
ATOM      8  C   UNL     1      -0.093  -4.188   1.458  0.00  0.00    +0.050 A 
ATOM      9  C   UNL     1       1.097  -4.764   1.045  0.00  0.00    +0.162 A 
ATOM     10  C   UNL     1       2.173  -3.961   0.696  0.00  0.00    +0.162 A 
ATOM     11  C   UNL     1       2.058  -2.583   0.754  0.00  0.00    +0.055 A 
ATOM     12  O   UNL     1       3.341  -4.539   0.289  0.00  0.00    -0.488 OA
ATOM     13  C   UNL     1       4.066  -5.255   1.291  0.00  0.00    +0.232 C 
ATOM     14  C   UNL     1       3.540  -6.676   1.425  0.00  0.00    +0.082 C 
ATOM     15  C   UNL     1       2.105  -6.717   1.928  0.00  0.00    +0.232 C 
ATOM     16  O   UNL     1       1.218  -6.122   0.979  0.00  0.00    -0.488 OA
ENDBRANCH   5   6
BRANCH   5  18
ATOM     17  C   UNL     1      -0.019   1.526   0.010  0.00  0.00    +0.006 C 
ATOM     18  C   UNL     1       0.002  -0.004   0.002  0.00  0.00    +0.024 C 
ENDBRANCH   5  18
ENDBRANCH   1   5
BRANCH   2  19
ATOM     19  C   UNL     1      -0.608   1.458   4.234  0.00  0.00    +0.168 C 
BRANCH  19  20
ATOM     20  S   UNL     1      -0.159   3.144   4.731  0.00  0.00    -0.106 S 
BRANCH  20  21
ATOM     21  C   UNL     1      -1.161   3.446   6.213  0.00  0.00    +0.236 C 
ATOM     22  N   UNL     1      -0.884   2.420   7.226  0.00  0.00    -0.355 N 
ATOM     23  C   UNL     1      -2.000   1.792   7.461  0.00  0.00    +0.061 A 
ATOM     24  C   UNL     1      -2.353   0.684   8.360  0.00  0.00    +0.027 A 
ATOM     25  C   UNL     1      -3.622   0.231   8.390  0.00  0.00    +0.002 A 
ATOM     26  C   UNL     1      -4.641   0.778   7.590  0.00  0.00    +0.002 A 
ATOM     27  C   UNL     1      -4.426   1.796   6.733  0.00  0.00    +0.027 A 
ATOM     28  C   UNL     1      -3.079   2.370   6.614  0.00  0.00    +0.061 A 
ATOM     29  N   UNL     1      -2.588   3.333   5.888  0.00  0.00    -0.355 N 
ATOM     30  H   UNL     1      -0.027   2.242   7.644  0.00  0.00    +0.162 HD
ATOM     31  H   UNL     1      -3.076   3.876   5.250  0.00  0.00    +0.162 HD
ENDBRANCH  20  21
ENDBRANCH  19  20
ENDBRANCH   2  19
TORSDOF 6
