REMARK  Name = ZINC22853073
REMARK  6 active torsions:
REMARK  status: ('A' for Active; 'I' for Inactive)
REMARK    1  A    between atoms: C_1  and  C_2
REMARK    2  A    between atoms: C_2  and  C_3
REMARK    3  A    between atoms: C_9  and  C_11
REMARK    4  A    between atoms: C_11  and  C_13
REMARK    5  A    between atoms: C_11  and  N_20
REMARK    6  A    between atoms: C_17  and  C_19
REMARK                            x       y       z     vdW  Elec       q    Type
REMARK                         _______ _______ _______ _____ _____    ______ ____
ROOT
ATOM      1  C   UNL     1       2.445   4.363   0.002  0.00  0.00    +0.006 C 
ENDROOT
BRANCH   1   8
ATOM      2  C   UNL     1       3.884   5.770  -5.611  0.00  0.00    +0.152 A 
ATOM      3  N   UNL     1       2.959   6.513  -5.006  0.00  0.00    -0.205 NA
ATOM      4  C   UNL     1       2.771   6.065  -3.795  0.00  0.00    +0.199 A 
ATOM      5  N   UNL     1       3.585   4.997  -3.571  0.00  0.00    -0.170 N 
ATOM      6  N   UNL     1       4.295   4.842  -4.790  0.00  0.00    -0.146 NA
ATOM      7  C   UNL     1       3.515   4.400  -2.335  0.00  0.00    +0.282 A 
ATOM      8  C   UNL     1       2.677   4.863  -1.401  0.00  0.00    +0.050 A 
ATOM      9  S   UNL     1       1.898   6.225  -2.256  0.00  0.00    -0.050 S 
ATOM     10  O   UNL     1       4.307   3.329  -2.059  0.00  0.00    -0.265 OA
BRANCH   2  12
ATOM     11  C   UNL     1       3.516   5.152  -7.984  0.00  0.00    +0.012 C 
ATOM     12  C   UNL     1       4.378   5.970  -7.021  0.00  0.00    +0.075 C 
ENDBRANCH   2  12
ENDBRANCH   1   8
BRANCH   1  13
ATOM     13  C   UNL     1       1.118   3.653   0.069  0.00  0.00    -0.056 A 
ATOM     14  C   UNL     1      -0.057   4.380   0.049  0.00  0.00    +0.002 A 
ATOM     15  C   UNL     1      -1.275   3.729   0.111  0.00  0.00    +0.000 A 
ATOM     16  C   UNL     1      -1.317   2.349   0.188  0.00  0.00    +0.003 A 
ATOM     17  C   UNL     1      -0.142   1.622   0.214  0.00  0.00    -0.050 A 
ATOM     18  C   UNL     1       1.076   2.274   0.152  0.00  0.00    +0.005 A 
ATOM     19  C   UNL     1      -0.188   0.118   0.304  0.00  0.00    +0.044 C 
ENDBRANCH   1  13
BRANCH   1  20
ATOM     20  N   UNL     1       2.440   5.500   0.932  0.00  0.00    +0.387 N 
ATOM     21  C   UNL     1       3.688   6.268   0.832  0.00  0.00    -0.077 C 
ATOM     22  C   UNL     1       3.589   7.521   1.705  0.00  0.00    -0.019 C 
ATOM     23  C   UNL     1       3.337   7.107   3.157  0.00  0.00    -0.004 C 
ATOM     24  C   UNL     1       2.058   6.269   3.226  0.00  0.00    -0.019 C 
ATOM     25  C   UNL     1       2.201   5.052   2.310  0.00  0.00    -0.077 C 
ATOM     26  H   UNL     1       1.613   6.167   0.649  0.00  0.00    -0.080 HD
ENDBRANCH   1  20
TORSDOF 4
