REMARK  Name = ZINC67381739
REMARK  10 active torsions:
REMARK  status: ('A' for Active; 'I' for Inactive)
REMARK    1  A    between atoms: C_1  and  C_2
REMARK    2  A    between atoms: C_2  and  C_3
REMARK    3  A    between atoms: C_2  and  C_4
REMARK    4  A    between atoms: C_2  and  N_11
REMARK    5  A    between atoms: N_14  and  C_15
REMARK    6  A    between atoms: C_15  and  C_16
REMARK    7  A    between atoms: C_16  and  C_18
REMARK    8  A    between atoms: C_16  and  N_23
REMARK    9  A    between atoms: N_23  and  C_24
REMARK   10  A    between atoms: N_23  and  C_25
REMARK                            x       y       z     vdW  Elec       q    Type
REMARK                         _______ _______ _______ _____ _____    ______ ____
ROOT
ATOM      1  N   UNL     1       0.410  -0.261  -1.280  0.00  0.00    -0.290 N 
ATOM      2  C   UNL     1       1.688   0.039  -1.587  0.00  0.00    +0.300 C 
ATOM      3  O   UNL     1       2.412   0.544  -0.750  0.00  0.00    -0.253 OA
ATOM      4  N   UNL     1       2.164  -0.221  -2.821  0.00  0.00    -0.301 N 
ATOM      5  H   UNL     1      -0.167  -0.664  -1.948  0.00  0.00    +0.151 HD
ATOM      6  H   UNL     1       1.586  -0.624  -3.488  0.00  0.00    +0.150 HD
ENDROOT
BRANCH   1   8
ATOM      7  C   UNL     1       0.046   1.513   0.363  0.00  0.00    +0.036 C 
ATOM      8  C   UNL     1      -0.107   0.021   0.061  0.00  0.00    +0.056 C 
ATOM      9  C   UNL     1       0.680  -0.791   1.092  0.00  0.00    +0.036 C 
BRANCH   8  10
ATOM     10  C   UNL     1      -1.564  -0.358   0.128  0.00  0.00    -0.025 A 
ATOM     11  C   UNL     1      -2.143  -0.663   1.346  0.00  0.00    +0.007 A 
ATOM     12  C   UNL     1      -3.479  -1.012   1.408  0.00  0.00    +0.020 A 
ATOM     13  C   UNL     1      -4.237  -1.055   0.251  0.00  0.00    +0.041 A 
ATOM     14  C   UNL     1      -3.656  -0.749  -0.967  0.00  0.00    +0.020 A 
ATOM     15  C   UNL     1      -2.322  -0.396  -1.027  0.00  0.00    +0.007 A 
ATOM     16 CL   UNL     1      -5.915  -1.492   0.328  0.00  0.00    -0.084 Cl
ENDBRANCH   8  10
ENDBRANCH   1   8
BRANCH   4  17
ATOM     17  C   UNL     1       3.552   0.105  -3.154  0.00  0.00    +0.098 C 
BRANCH  17  18
ATOM     18  C   UNL     1       3.805  -0.191  -4.634  0.00  0.00    +0.016 C 
BRANCH  18  19
ATOM     19  C   UNL     1       2.970   0.734  -5.481  0.00  0.00    +0.093 A 
ATOM     20  C   UNL     1       3.406   1.851  -6.091  0.00  0.00    +0.043 A 
ATOM     21  C   UNL     1       2.298   2.405  -6.772  0.00  0.00    +0.041 A 
ATOM     22  C   UNL     1       1.251   1.594  -6.538  0.00  0.00    +0.195 A 
ATOM     23  O   UNL     1       1.665   0.581  -5.760  0.00  0.00    -0.469 OA
ENDBRANCH  18  19
BRANCH  18  24
ATOM     24  N   UNL     1       3.439  -1.584  -4.924  0.00  0.00    +0.384 N 
ATOM     25  C   UNL     1       3.725  -1.883  -6.333  0.00  0.00    -0.096 C 
ATOM     26  C   UNL     1       4.219  -2.484  -4.064  0.00  0.00    -0.096 C 
ATOM     27  H   UNL     1       2.455  -1.718  -4.745  0.00  0.00    -0.082 HD
ENDBRANCH  18  24
ENDBRANCH  17  18
ENDBRANCH   4  17
TORSDOF 6
