REMARK  Name = ZINC63350073
REMARK  9 active torsions:
REMARK  status: ('A' for Active; 'I' for Inactive)
REMARK    1  A    between atoms: C_1  and  O_2
REMARK    2  A    between atoms: O_2  and  C_3
REMARK    3  A    between atoms: C_6  and  C_18
REMARK    4  A    between atoms: C_8  and  C_9
REMARK    5  A    between atoms: C_9  and  O_10
REMARK    6  A    between atoms: O_10  and  C_11
REMARK    7  A    between atoms: C_31  and  C_34
REMARK    8  A    between atoms: C_34  and  O_36
REMARK    9  A    between atoms: O_36  and  C_37
REMARK                            x       y       z     vdW  Elec       q    Type
REMARK                         _______ _______ _______ _____ _____    ______ ____
ROOT
ATOM      1  C   UNL     1       2.506  -2.503  -4.381  0.00  0.00    +0.111 C 
ATOM      2  C   UNL     1       4.023  -2.489  -4.185  0.00  0.00    +0.128 C 
ATOM      3  C   UNL     1       4.625  -3.022  -5.480  0.00  0.00    -0.035 C 
ATOM      4  C   UNL     1       5.420  -4.027  -5.138  0.00  0.00    -0.001 A 
ATOM      5  C   UNL     1       6.329  -4.872  -5.928  0.00  0.00    +0.010 A 
ATOM      6  C   UNL     1       6.995  -5.840  -5.244  0.00  0.00    +0.001 A 
ATOM      7  C   UNL     1       6.849  -6.049  -3.869  0.00  0.00    +0.002 A 
ATOM      8  C   UNL     1       6.040  -5.316  -3.064  0.00  0.00    +0.026 A 
ATOM      9  C   UNL     1       5.292  -4.264  -3.667  0.00  0.00    +0.043 A 
ATOM     10  N   UNL     1       4.463  -3.393  -3.124  0.00  0.00    -0.376 N 
ATOM     11  C   UNL     1       4.218  -2.476  -6.827  0.00  0.00    +0.063 C 
ATOM     12  C   UNL     1       2.679  -2.436  -6.827  0.00  0.00    +0.168 C 
ATOM     13  N   UNL     1       2.191  -1.769  -5.617  0.00  0.00    -0.295 NA
ATOM     14  H   UNL     1       1.202  -1.579  -5.682  0.00  0.00    +0.123 HD
ATOM     15  H   UNL     1       4.186  -3.356  -2.195  0.00  0.00    +0.160 HD
ENDROOT
BRANCH   1  19
ATOM     16  C   UNL     1       0.606  -0.607  -1.056  0.00  0.00    +0.126 A 
ATOM     17  C   UNL     1       1.173   0.161  -2.063  0.00  0.00    +0.046 A 
ATOM     18  C   UNL     1       1.786  -0.455  -3.136  0.00  0.00    +0.009 A 
ATOM     19  C   UNL     1       1.836  -1.835  -3.208  0.00  0.00    -0.028 A 
ATOM     20  C   UNL     1       1.271  -2.602  -2.207  0.00  0.00    +0.015 A 
ATOM     21  C   UNL     1       0.661  -1.991  -1.128  0.00  0.00    +0.032 A 
BRANCH  16  23
ATOM     22  C   UNL     1      -0.017   1.425   0.010  0.00  0.00    +0.277 C 
ATOM     23  O   UNL     1       0.002  -0.004   0.002  0.00  0.00    -0.495 OA
ENDBRANCH  16  23
BRANCH  21  24
ATOM     24  C   UNL     1       0.051  -2.828  -0.033  0.00  0.00    +0.268 C 
BRANCH  24  25
ATOM     25  O   UNL     1       0.235  -4.213  -0.334  0.00  0.00    -0.484 OA
BRANCH  25  26
ATOM     26  C   UNL     1      -0.261  -5.110   0.560  0.00  0.00    +0.156 A 
ATOM     27  C   UNL     1      -0.916  -4.666   1.699  0.00  0.00    +0.048 A 
ATOM     28  C   UNL     1      -1.419  -5.579   2.606  0.00  0.00    +0.004 A 
ATOM     29  C   UNL     1      -1.270  -6.935   2.380  0.00  0.00    +0.003 A 
ATOM     30  C   UNL     1      -0.617  -7.382   1.246  0.00  0.00    +0.042 A 
ATOM     31  C   UNL     1      -0.117  -6.472   0.331  0.00  0.00    +0.165 A 
ATOM     32  F   UNL     1       0.515  -6.909  -0.780  0.00  0.00    -0.202 F 
ENDBRANCH  25  26
ENDBRANCH  24  25
ENDBRANCH  21  24
ENDBRANCH   1  19
BRANCH  12  33
ATOM     33  C   UNL     1       2.199  -1.681  -8.039  0.00  0.00    +0.324 C 
ATOM     34  O   UNL     1       1.857  -0.527  -7.935  0.00  0.00    -0.249 OA
BRANCH  33  35
ATOM     35  O   UNL     1       2.151  -2.290  -9.234  0.00  0.00    -0.467 OA
ATOM     36  C   UNL     1       1.686  -1.513 -10.340  0.00  0.00    +0.280 C 
ENDBRANCH  33  35
ENDBRANCH  12  33
TORSDOF 7
