REMARK  Name = ZINC37125192
REMARK  8 active torsions:
REMARK  status: ('A' for Active; 'I' for Inactive)
REMARK    1  A    between atoms: C_1  and  C_2
REMARK    2  A    between atoms: C_5  and  O_22
REMARK    3  A    between atoms: C_6  and  C_8
REMARK    4  A    between atoms: C_8  and  C_10
REMARK    5  A    between atoms: C_8  and  N_11
REMARK    6  A    between atoms: N_11  and  C_12
REMARK    7  A    between atoms: C_17  and  C_18
REMARK    8  A    between atoms: C_18  and  C_19
REMARK                            x       y       z     vdW  Elec       q    Type
REMARK                         _______ _______ _______ _____ _____    ______ ____
ROOT
ATOM      1  N   UNL     1       0.630  -1.997   3.542  0.00  0.00    -0.337 N 
ATOM      2  H   UNL     1       0.532  -1.033   3.499  0.00  0.00    +0.147 HD
ENDROOT
BRANCH   1   3
ATOM      3  C   UNL     1       1.322  -2.581   4.606  0.00  0.00    +0.031 A 
ATOM      4  C   UNL     1       1.468  -3.962   4.667  0.00  0.00    +0.023 A 
ATOM      5  C   UNL     1       2.153  -4.536   5.720  0.00  0.00    +0.002 A 
ATOM      6  C   UNL     1       2.693  -3.738   6.713  0.00  0.00    +0.000 A 
ATOM      7  C   UNL     1       2.549  -2.365   6.655  0.00  0.00    +0.006 A 
ATOM      8  C   UNL     1       1.870  -1.783   5.602  0.00  0.00    -0.018 A 
BRANCH   8   9
ATOM      9  C   UNL     1       1.720  -0.285   5.536  0.00  0.00    +0.132 C 
BRANCH   9  10
ATOM     10  C   UNL     1       0.400   0.114   6.144  0.00  0.00    +0.215 C 
ATOM     11  O   UNL     1      -0.345  -0.734   6.587  0.00  0.00    -0.276 OA
ATOM     12  N   UNL     1       0.047   1.414   6.196  0.00  0.00    -0.329 N 
ATOM     13  H   UNL     1       0.643   2.092   5.842  0.00  0.00    +0.145 HD
ATOM     14  H   UNL     1      -0.802   1.671   6.587  0.00  0.00    +0.145 HD
ENDBRANCH   9  10
ENDBRANCH   8   9
ENDBRANCH   1   3
BRANCH   1  15
ATOM     15  C   UNL     1       0.052  -2.841   2.493  0.00  0.00    +0.101 C 
ATOM     16  C   UNL     1      -1.335  -3.317   2.928  0.00  0.00    +0.033 C 
BRANCH  15  22
ATOM     17  C   UNL     1      -0.481   1.554   0.161  0.00  0.00    +0.044 C 
ATOM     18  C   UNL     1      -0.321   0.057   0.101  0.00  0.00    -0.050 A 
ATOM     19  C   UNL     1      -0.284  -0.585  -1.123  0.00  0.00    +0.007 A 
ATOM     20  C   UNL     1      -0.138  -1.958  -1.181  0.00  0.00    +0.046 A 
ATOM     21  C   UNL     1      -0.029  -2.692  -0.009  0.00  0.00    +0.122 A 
ATOM     22  C   UNL     1      -0.066  -2.046   1.218  0.00  0.00    +0.014 A 
ATOM     23  C   UNL     1      -0.207  -0.672   1.270  0.00  0.00    +0.012 A 
BRANCH  21  24
ATOM     24  O   UNL     1       0.114  -4.043  -0.062  0.00  0.00    -0.506 OA
ATOM     25  H   UNL     1       1.034  -4.339  -0.101  0.00  0.00    +0.292 HD
ENDBRANCH  21  24
ENDBRANCH  15  22
ENDBRANCH   1  15
TORSDOF 6
