REMARK  Name = ZINC40003807
REMARK  13 active torsions:
REMARK  status: ('A' for Active; 'I' for Inactive)
REMARK    1  A    between atoms: C_1  and  C_2
REMARK    2  A    between atoms: C_2  and  N_3
REMARK    3  A    between atoms: N_3  and  C_4
REMARK    4  A    between atoms: N_3  and  C_6
REMARK    5  A    between atoms: C_4  and  C_5
REMARK    6  A    between atoms: C_6  and  C_7
REMARK    7  A    between atoms: C_7  and  N_8
REMARK    8  A    between atoms: C_9  and  C_29
REMARK    9  A    between atoms: C_11  and  C_16
REMARK   10  A    between atoms: C_16  and  C_18
REMARK   11  A    between atoms: C_19  and  C_28
REMARK   12  A    between atoms: C_26  and  C_27
REMARK   13  A    between atoms: C_33  and  N_35
REMARK                            x       y       z     vdW  Elec       q    Type
REMARK                         _______ _______ _______ _____ _____    ______ ____
ROOT
ATOM      1  N   UNL     1      -1.911  -3.499  -0.839  0.00  0.00    -0.285 N 
ATOM      2  C   UNL     1      -1.910  -3.923  -2.244  0.00  0.00    +0.145 C 
ATOM      3  C   UNL     1      -2.342  -5.371  -2.245  0.00  0.00    +0.078 C 
ATOM      4  C   UNL     1      -2.562  -5.714  -0.956  0.00  0.00    +0.249 C 
ATOM      5  C   UNL     1      -2.288  -4.551  -0.090  0.00  0.00    +0.288 C 
ATOM      6  O   UNL     1      -2.390  -4.545   1.121  0.00  0.00    -0.266 OA
ATOM      7  O   UNL     1      -2.967  -6.934  -0.527  0.00  0.00    -0.282 OA
ENDROOT
BRANCH   2   8
ATOM      8  C   UNL     1      -2.882  -3.089  -3.038  0.00  0.00    -0.020 A 
ATOM      9  C   UNL     1      -4.090  -2.717  -2.479  0.00  0.00    +0.006 A 
ATOM     10  C   UNL     1      -4.982  -1.952  -3.207  0.00  0.00    +0.003 A 
ATOM     11  C   UNL     1      -4.665  -1.559  -4.494  0.00  0.00    +0.033 A 
ATOM     12  C   UNL     1      -3.457  -1.931  -5.053  0.00  0.00    +0.127 A 
ATOM     13  C   UNL     1      -2.563  -2.693  -4.323  0.00  0.00    +0.038 A 
BRANCH  12  14
ATOM     14  N   UNL     1      -3.118  -1.511  -6.431  0.00  0.00    +0.056 N 
ATOM     15  O   UNL     1      -3.898  -0.843  -7.069  0.00  0.00    -0.126 OA
ATOM     16  O   UNL     1      -2.061  -1.837  -6.920  0.00  0.00    -0.126 OA
ENDBRANCH  12  14
ENDBRANCH   2   8
BRANCH   3  17
ATOM     17  C   UNL     1      -2.496  -6.238  -3.421  0.00  0.00    +0.213 C 
ATOM     18  O   UNL     1      -3.490  -6.146  -4.121  0.00  0.00    -0.285 OA
BRANCH  17  19
ATOM     19  C   UNL     1      -1.488  -7.182  -3.741  0.00  0.00    +0.116 A 
ATOM     20  C   UNL     1      -0.256  -7.328  -3.116  0.00  0.00    +0.068 A 
ATOM     21  N   UNL     1       0.391  -8.318  -3.707  0.00  0.00    -0.232 NA
ATOM     22  C   UNL     1      -0.357  -8.826  -4.687  0.00  0.00    +0.141 A 
ATOM     23  N   UNL     1      -1.540  -8.144  -4.733  0.00  0.00    -0.296 N 
ATOM     24  C   UNL     1      -2.493  -8.469  -5.646  0.00  0.00    +0.093 A 
ATOM     25  C   UNL     1      -2.289  -9.476  -6.527  0.00  0.00    +0.018 A 
ATOM     26  C   UNL     1      -1.089 -10.198  -6.504  0.00  0.00    +0.008 A 
ATOM     27  C   UNL     1      -0.124  -9.873  -5.595  0.00  0.00    -0.008 A 
ATOM     28  C   UNL     1       1.173 -10.640  -5.556  0.00  0.00    +0.047 C 
ATOM     29  C   UNL     1       0.255  -6.502  -1.964  0.00  0.00    +0.068 C 
ENDBRANCH  17  19
ENDBRANCH   3  17
BRANCH   1  30
ATOM     30  C   UNL     1      -1.558  -2.168  -0.339  0.00  0.00    +0.090 C 
BRANCH  30  31
ATOM     31  C   UNL     1      -0.057  -2.115  -0.047  0.00  0.00    -0.060 C 
BRANCH  31  32
ATOM     32  N   UNL     1       0.298  -0.780   0.454  0.00  0.00    +0.380 N 
ATOM     33  H   UNL     1      -0.009  -0.081  -0.206  0.00  0.00    -0.082 HD
BRANCH  32  35
ATOM     34  C   UNL     1      -0.115   0.890   2.197  0.00  0.00    -0.017 C 
ATOM     35  C   UNL     1      -0.359  -0.552   1.748  0.00  0.00    -0.082 C 
ENDBRANCH  32  35
BRANCH  32  36
ATOM     36  C   UNL     1       1.754  -0.691   0.621  0.00  0.00    -0.082 C 
ATOM     37  C   UNL     1       2.431  -0.775  -0.748  0.00  0.00    -0.017 C 
ENDBRANCH  32  36
ENDBRANCH  31  32
ENDBRANCH  30  31
ENDBRANCH   1  30
TORSDOF 9
