REMARK  Name = ZINC39362096
REMARK  5 active torsions:
REMARK  status: ('A' for Active; 'I' for Inactive)
REMARK    1  A    between atoms: C_1  and  C_2
REMARK    2  A    between atoms: C_2  and  C_3
REMARK    3  A    between atoms: C_3  and  C_4
REMARK    4  A    between atoms: N_13  and  C_14
REMARK    5  A    between atoms: C_20  and  C_22
REMARK                            x       y       z     vdW  Elec       q    Type
REMARK                         _______ _______ _______ _____ _____    ______ ____
ROOT
ATOM      1  C   UNL     1       3.043  -2.180   2.623  0.00  0.00    +0.080 C 
ATOM      2  C   UNL     1       3.790  -3.512   2.719  0.00  0.00    +0.041 C 
ATOM      3  C   UNL     1       5.226  -3.255   3.189  0.00  0.00    +0.110 C 
ATOM      4  N   UNL     1       5.182  -2.495   4.446  0.00  0.00    -0.297 N 
ATOM      5  C   UNL     1       4.414  -1.244   4.490  0.00  0.00    +0.110 C 
ATOM      6  C   UNL     1       2.988  -1.524   4.005  0.00  0.00    +0.041 C 
ATOM      7  C   UNL     1       5.834  -2.939   5.539  0.00  0.00    +0.252 C 
ATOM      8  O   UNL     1       5.867  -2.258   6.546  0.00  0.00    -0.270 OA
ENDROOT
BRANCH   7   9
ATOM      9  C   UNL     1       6.507  -4.247   5.513  0.00  0.00    +0.101 A 
ATOM     10  C   UNL     1       7.762  -4.389   4.932  0.00  0.00    +0.023 A 
ATOM     11  C   UNL     1       8.384  -5.646   4.923  0.00  0.00    -0.027 A 
ATOM     12  C   UNL     1       9.735  -5.740   4.264  0.00  0.00    +0.037 C 
ATOM     13  C   UNL     1      10.461  -7.012   4.698  0.00  0.00    +0.005 C 
ATOM     14  C   UNL     1       9.509  -8.198   4.499  0.00  0.00    +0.006 C 
ATOM     15  C   UNL     1       8.382  -8.084   5.523  0.00  0.00    +0.053 C 
ATOM     16  C   UNL     1       7.763  -6.709   5.484  0.00  0.00    +0.022 A 
ATOM     17  N   UNL     1       6.529  -6.572   6.048  0.00  0.00    -0.325 N 
ATOM     18  C   UNL     1       5.893  -5.390   6.087  0.00  0.00    +0.261 A 
ATOM     19  O   UNL     1       4.794  -5.302   6.606  0.00  0.00    -0.267 OA
ATOM     20  H   UNL     1       6.100  -7.350   6.436  0.00  0.00    +0.169 HD
ENDBRANCH   7   9
BRANCH   1  29
ATOM     21  C   UNL     1       1.083  -1.870   0.919  0.00  0.00    +0.160 C 
ATOM     22  N   UNL     1      -0.288  -2.394   0.872  0.00  0.00    -0.323 N 
ATOM     23  C   UNL     1      -0.462  -3.196   2.006  0.00  0.00    +0.067 A 
ATOM     24  C   UNL     1      -1.561  -3.924   2.446  0.00  0.00    +0.028 A 
ATOM     25  C   UNL     1      -1.451  -4.642   3.628  0.00  0.00    +0.019 A 
ATOM     26  C   UNL     1      -0.261  -4.612   4.326  0.00  0.00    +0.084 A 
ATOM     27  N   UNL     1       0.768  -3.912   3.887  0.00  0.00    -0.348 N 
ATOM     28  C   UNL     1       0.710  -3.210   2.762  0.00  0.00    +0.122 A 
ATOM     29  N   UNL     1       1.680  -2.419   2.142  0.00  0.00    -0.294 N 
ATOM     30  H   UNL     1      -0.949  -2.217   0.185  0.00  0.00    +0.148 HD
ATOM     31  H   UNL     1       1.590  -3.911   4.401  0.00  0.00    +0.167 HD
BRANCH  21  32
ATOM     32  C   UNL     1       1.062  -0.341   0.982  0.00  0.00    +0.042 C 
BRANCH  32  34
ATOM     33  C   UNL     1       0.391   1.741  -0.225  0.00  0.00    +0.004 C 
ATOM     34  C   UNL     1       0.412   0.213  -0.288  0.00  0.00    +0.000 C 
ENDBRANCH  32  34
ENDBRANCH  21  32
ENDBRANCH   1  29
TORSDOF 4
