REMARK  Name = ZINC39695725
REMARK  6 active torsions:
REMARK  status: ('A' for Active; 'I' for Inactive)
REMARK    1  A    between atoms: C_1  and  C_2
REMARK    2  A    between atoms: C_9  and  C_11
REMARK    3  A    between atoms: C_11  and  C_13
REMARK    4  A    between atoms: C_11  and  N_14
REMARK    5  A    between atoms: C_15  and  C_17
REMARK    6  A    between atoms: C_28  and  C_30
REMARK                            x       y       z     vdW  Elec       q    Type
REMARK                         _______ _______ _______ _____ _____    ______ ____
ROOT
ATOM      1  C   UNL     1      -1.626  -8.773   1.002  0.00  0.00    +0.100 C 
ATOM      2  C   UNL     1      -2.899  -8.238   0.309  0.00  0.00    +0.121 C 
ATOM      3  N   UNL     1      -3.816  -9.402   0.262  0.00  0.00    -0.296 N 
ATOM      4  C   UNL     1      -3.618 -10.081   1.564  0.00  0.00    +0.115 C 
ATOM      5  C   UNL     1      -2.102  -9.982   1.825  0.00  0.00    -0.004 C 
ATOM      6  C   UNL     1      -1.837  -9.748   3.309  0.00  0.00    -0.010 C 
ATOM      7  C   UNL     1      -2.264 -10.987   4.101  0.00  0.00    -0.082 C 
ATOM      8  N   UNL     1      -1.514 -12.156   3.628  0.00  0.00    +0.379 N 
ATOM      9  C   UNL     1      -1.846 -12.430   2.224  0.00  0.00    -0.082 C 
ATOM     10  C   UNL     1      -1.401 -11.252   1.353  0.00  0.00    -0.010 C 
ATOM     11  C   UNL     1      -4.643  -9.761  -0.740  0.00  0.00    +0.249 C 
ATOM     12  O   UNL     1      -4.622  -9.154  -1.793  0.00  0.00    -0.270 OA
ATOM     13  H   UNL     1      -0.524 -11.974   3.708  0.00  0.00    -0.086 HD
ATOM     14  H   UNL     1      -1.752 -12.958   4.191  0.00  0.00    -0.086 HD
ENDROOT
BRANCH  11  15
ATOM     15  C   UNL     1      -5.574 -10.892  -0.559  0.00  0.00    +0.072 A 
ATOM     16  C   UNL     1      -6.157 -11.127   0.689  0.00  0.00    +0.019 A 
ATOM     17  C   UNL     1      -7.025 -12.184   0.853  0.00  0.00    +0.039 A 
ATOM     18  C   UNL     1      -7.322 -13.015  -0.218  0.00  0.00    +0.126 A 
ATOM     19  C   UNL     1      -6.748 -12.789  -1.458  0.00  0.00    +0.077 A 
ATOM     20  C   UNL     1      -5.880 -11.729  -1.637  0.00  0.00    +0.138 A 
ATOM     21  F   UNL     1      -5.324 -11.505  -2.848  0.00  0.00    -0.205 F 
ATOM     22  F   UNL     1      -8.174 -14.050  -0.050  0.00  0.00    -0.205 F 
ENDBRANCH  11  15
BRANCH   1  24
ATOM     23  N   UNL     1       0.255  -7.796   2.278  0.00  0.00    -0.305 N 
ATOM     24  C   UNL     1      -1.039  -7.720   1.907  0.00  0.00    +0.219 C 
ATOM     25  O   UNL     1      -1.730  -6.805   2.300  0.00  0.00    -0.275 OA
ATOM     26  H   UNL     1       0.808  -8.528   1.963  0.00  0.00    +0.149 HD
BRANCH  23  27
ATOM     27  C   UNL     1       0.825  -6.773   3.158  0.00  0.00    +0.136 C 
ATOM     28  C   UNL     1       0.537  -7.135   4.616  0.00  0.00    +0.036 C 
BRANCH  27  37
ATOM     29  C   UNL     1       8.064  -5.157   2.542  0.00  0.00    +0.044 C 
ATOM     30  C   UNL     1       6.750  -5.894   2.503  0.00  0.00    -0.048 A 
ATOM     31  C   UNL     1       6.711  -7.210   2.063  0.00  0.00    +0.005 A 
ATOM     32  C   UNL     1       5.530  -7.896   2.020  0.00  0.00    +0.030 A 
ATOM     33  C   UNL     1       4.347  -7.270   2.423  0.00  0.00    +0.089 A 
ATOM     34  C   UNL     1       4.386  -5.938   2.869  0.00  0.00    +0.067 A 
ATOM     35  C   UNL     1       5.596  -5.259   2.910  0.00  0.00    +0.031 A 
ATOM     36  N   UNL     1       3.085  -5.606   3.190  0.00  0.00    -0.340 N 
ATOM     37  C   UNL     1       2.315  -6.699   2.943  0.00  0.00    +0.128 A 
ATOM     38  N   UNL     1       3.052  -7.673   2.494  0.00  0.00    -0.231 NA
ATOM     39  H   UNL     1       2.778  -4.751   3.530  0.00  0.00    +0.167 HD
ENDBRANCH  27  37
ENDBRANCH  23  27
ENDBRANCH   1  24
TORSDOF 4
