REMARK  Name = ZINC19931944
REMARK  8 active torsions:
REMARK  status: ('A' for Active; 'I' for Inactive)
REMARK    1  A    between atoms: C_1  and  C_2
REMARK    2  A    between atoms: C_2  and  C_31
REMARK    3  A    between atoms: C_6  and  C_19
REMARK    4  A    between atoms: C_9  and  N_18
REMARK    5  A    between atoms: C_10  and  C_16
REMARK    6  A    between atoms: C_22  and  N_25
REMARK    7  A    between atoms: N_25  and  C_26
REMARK    8  A    between atoms: N_25  and  C_27
REMARK                            x       y       z     vdW  Elec       q    Type
REMARK                         _______ _______ _______ _____ _____    ______ ____
ROOT
ATOM      1  C   UNL     1      -0.012   1.038   2.509  0.00  0.00    +0.012 C 
ATOM      2  C   UNL     1      -0.726   1.578   1.268  0.00  0.00    -0.021 C 
ATOM      3  C   UNL     1      -0.013   1.086   0.008  0.00  0.00    +0.081 C 
ATOM      4  C   UNL     1      -0.742   1.585  -1.218  0.00  0.00    +0.115 C 
ATOM      5  C   UNL     1      -2.073   1.780  -1.192  0.00  0.00    +0.045 C 
ATOM      6  C   UNL     1      -2.804   2.276  -2.415  0.00  0.00    +0.093 C 
ATOM      7  C   UNL     1      -1.840   2.912  -3.377  0.00  0.00    +0.048 A 
ATOM      8  C   UNL     1      -2.312   3.766  -4.368  0.00  0.00    +0.055 A 
ATOM      9  C   UNL     1      -1.378   4.345  -5.251  0.00  0.00    +0.112 A 
ATOM     10  C   UNL     1      -0.018   4.034  -5.088  0.00  0.00    +0.139 A 
ATOM     11  N   UNL     1       0.374   3.215  -4.128  0.00  0.00    -0.196 NA
ATOM     12  C   UNL     1      -0.483   2.652  -3.282  0.00  0.00    +0.228 A 
ATOM     13  O   UNL     1      -0.015   1.821  -2.325  0.00  0.00    -0.441 OA
ATOM     14  N   UNL     1       0.920   4.590  -5.941  0.00  0.00    -0.342 N 
ATOM     15  C   UNL     1      -2.826   1.531  -0.029  0.00  0.00    +0.164 C 
ATOM     16  O   UNL     1      -4.029   1.697  -0.051  0.00  0.00    -0.292 OA
ATOM     17  C   UNL     1      -2.169   1.063   1.241  0.00  0.00    +0.086 C 
ATOM     18  C   UNL     1      -0.725   3.108   1.297  0.00  0.00    +0.012 C 
ATOM     19  H   UNL     1       1.986   4.350  -5.818  0.00  0.00    +0.144 HD
ATOM     20  H   UNL     1       0.599   5.273  -6.742  0.00  0.00    +0.144 HD
ENDROOT
BRANCH   6  21
ATOM     21  C   UNL     1      -3.488   1.115  -3.089  0.00  0.00    -0.035 A 
ATOM     22  C   UNL     1      -2.739   0.057  -3.570  0.00  0.00    +0.006 A 
ATOM     23  C   UNL     1      -3.363  -1.012  -4.183  0.00  0.00    +0.023 A 
ATOM     24  C   UNL     1      -4.744  -1.018  -4.326  0.00  0.00    +0.029 A 
ATOM     25  C   UNL     1      -5.494   0.049  -3.847  0.00  0.00    +0.023 A 
ATOM     26  C   UNL     1      -4.864   1.112  -3.230  0.00  0.00    +0.006 A 
BRANCH  24  27
ATOM     27  N   UNL     1      -5.378  -2.095  -4.950  0.00  0.00    -0.336 N 
ATOM     28  C   UNL     1      -6.836  -2.100  -5.100  0.00  0.00    +0.129 C 
ATOM     29  C   UNL     1      -4.586  -3.219  -5.455  0.00  0.00    +0.129 C 
ENDBRANCH  24  27
ENDBRANCH   6  21
BRANCH   8  30
ATOM     30  N   UNL     1      -3.666   4.042  -4.483  0.00  0.00    -0.357 N 
ATOM     31  H   UNL     1      -4.023   4.720  -5.272  0.00  0.00    +0.142 HD
ATOM     32  H   UNL     1      -4.382   3.583  -3.786  0.00  0.00    +0.142 HD
ENDBRANCH   8  30
BRANCH   9  33
ATOM     33  C   UNL     1      -1.807   5.231  -6.292  0.00  0.00    +0.104 C 
ATOM     34  N   UNL     1      -2.148   5.933  -7.117  0.00  0.00    -0.191 NA
ENDBRANCH   9  33
TORSDOF 4
