REMARK  Name = ZINC23361919
REMARK  13 active torsions:
REMARK  status: ('A' for Active; 'I' for Inactive)
REMARK    1  A    between atoms: C_1  and  C_2
REMARK    2  A    between atoms: C_2  and  N_3
REMARK    3  A    between atoms: C_4  and  C_6
REMARK    4  A    between atoms: C_9  and  N_24
REMARK    5  A    between atoms: N_12  and  C_13
REMARK    6  A    between atoms: C_13  and  C_14
REMARK    7  A    between atoms: N_24  and  C_25
REMARK    8  A    between atoms: C_25  and  C_26
REMARK    9  A    between atoms: C_29  and  O_35
REMARK   10  A    between atoms: C_30  and  C_34
REMARK   11  A    between atoms: C_31  and  O_32
REMARK   12  A    between atoms: O_32  and  C_33
REMARK   13  A    between atoms: O_35  and  C_36
REMARK                            x       y       z     vdW  Elec       q    Type
REMARK                         _______ _______ _______ _____ _____    ______ ____
ROOT
ATOM      1  C   UNL     1      -3.317  -2.396   0.076  0.00  0.00    +0.021 C 
ATOM      2  C   UNL     1      -4.214  -2.064   1.294  0.00  0.00    +0.010 C 
ATOM      3  C   UNL     1      -5.237  -3.229   1.257  0.00  0.00    +0.036 C 
ATOM      4  C   UNL     1      -4.387  -4.424   0.778  0.00  0.00    -0.059 C 
ATOM      5  N   UNL     1      -3.215  -3.871   0.071  0.00  0.00    +0.391 N 
ATOM      6  H   UNL     1      -2.369  -4.155   0.543  0.00  0.00    -0.080 HD
ENDROOT
BRANCH   1   8
ATOM      7  N   UNL     1      -1.826  -0.436   0.306  0.00  0.00    -0.317 N 
ATOM      8  C   UNL     1      -1.954  -1.776   0.243  0.00  0.00    +0.200 C 
ATOM      9  O   UNL     1      -0.972  -2.484   0.322  0.00  0.00    -0.278 OA
ATOM     10  H   UNL     1      -2.611   0.129   0.243  0.00  0.00    +0.149 HD
BRANCH   7  12
ATOM     11  C   UNL     1      -0.634   1.690   0.510  0.00  0.00    +0.024 C 
ATOM     12  C   UNL     1      -0.500   0.166   0.469  0.00  0.00    +0.101 C 
ENDBRANCH   7  12
ENDBRANCH   1   8
BRANCH   3  13
ATOM     13  N   UNL     1      -5.786  -3.481   2.596  0.00  0.00    -0.311 NA
ATOM     14  H   UNL     1      -6.028  -4.454   2.711  0.00  0.00    +0.122 HD
BRANCH  13  15
ATOM     15  C   UNL     1      -6.943  -2.616   2.863  0.00  0.00    +0.120 C 
BRANCH  15  16
ATOM     16  C   UNL     1      -7.477  -2.903   4.243  0.00  0.00    +0.009 A 
ATOM     17  C   UNL     1      -8.583  -3.716   4.400  0.00  0.00    +0.012 A 
ATOM     18  C   UNL     1      -9.075  -3.980   5.663  0.00  0.00    +0.046 A 
ATOM     19  C   UNL     1      -8.459  -3.430   6.779  0.00  0.00    +0.126 A 
ATOM     20  C   UNL     1      -7.349  -2.614   6.624  0.00  0.00    +0.033 A 
ATOM     21  C   UNL     1      -6.854  -2.355   5.355  0.00  0.00    +0.131 A 
ATOM     22  C   UNL     1      -6.679  -2.015   7.833  0.00  0.00    +0.051 C 
BRANCH  21  23
ATOM     23  O   UNL     1      -5.763  -1.560   5.201  0.00  0.00    -0.494 OA
ATOM     24  C   UNL     1      -5.997  -0.159   5.046  0.00  0.00    +0.277 C 
ENDBRANCH  21  23
BRANCH  19  25
ATOM     25  O   UNL     1      -8.944  -3.690   8.021  0.00  0.00    -0.495 OA
ATOM     26  C   UNL     1     -10.091  -4.539   8.105  0.00  0.00    +0.277 C 
ENDBRANCH  19  25
ENDBRANCH  15  16
ENDBRANCH  13  15
ENDBRANCH   3  13
BRANCH   5  27
ATOM     27  C   UNL     1      -3.194  -4.361  -1.314  0.00  0.00    -0.041 C 
BRANCH  27  28
ATOM     28  C   UNL     1      -2.952  -5.848  -1.318  0.00  0.00    -0.056 A 
ATOM     29  C   UNL     1      -3.989  -6.709  -1.509  0.00  0.00    +0.002 A 
ATOM     30  C   UNL     1      -3.785  -8.087  -1.516  0.00  0.00    +0.001 A 
ATOM     31  C   UNL     1      -2.544  -8.613  -1.330  0.00  0.00    +0.008 A 
ATOM     32  C   UNL     1      -1.449  -7.756  -1.130  0.00  0.00    -0.018 A 
ATOM     33  C   UNL     1      -1.655  -6.354  -1.129  0.00  0.00    -0.017 A 
ATOM     34  C   UNL     1      -0.559  -5.496  -0.934  0.00  0.00    +0.009 A 
ATOM     35  C   UNL     1       0.684  -6.021  -0.755  0.00  0.00    +0.001 A 
ATOM     36  C   UNL     1       0.888  -7.400  -0.762  0.00  0.00    +0.001 A 
ATOM     37  C   UNL     1      -0.152  -8.261  -0.934  0.00  0.00    +0.008 A 
ENDBRANCH  27  28
ENDBRANCH   5  27
TORSDOF 9
