REMARK  Name = ZINC44483944
REMARK  8 active torsions:
REMARK  status: ('A' for Active; 'I' for Inactive)
REMARK    1  A    between atoms: C_1  and  C_2
REMARK    2  A    between atoms: C_2  and  C_3
REMARK    3  A    between atoms: C_3  and  C_4
REMARK    4  A    between atoms: C_4  and  C_6
REMARK    5  A    between atoms: C_4  and  N_9
REMARK    6  A    between atoms: C_6  and  N_8
REMARK    7  A    between atoms: C_10  and  C_12
REMARK    8  A    between atoms: C_17  and  O_18
REMARK                            x       y       z     vdW  Elec       q    Type
REMARK                         _______ _______ _______ _____ _____    ______ ____
ROOT
ATOM      1  N   UNL     1      -0.834  -2.537  -1.256  0.00  0.00    -0.303 N 
ATOM      2  C   UNL     1      -0.252  -3.751  -1.315  0.00  0.00    +0.248 C 
ATOM      3  O   UNL     1      -0.206  -4.453  -0.324  0.00  0.00    -0.270 OA
ATOM      4  H   UNL     1      -0.871  -1.977  -2.047  0.00  0.00    +0.150 HD
ENDROOT
BRANCH   2   5
ATOM      5  C   UNL     1       0.331  -4.228  -2.584  0.00  0.00    +0.078 A 
ATOM      6  C   UNL     1       0.285  -3.422  -3.724  0.00  0.00    +0.018 A 
ATOM      7  C   UNL     1       0.831  -3.872  -4.906  0.00  0.00    +0.016 A 
ATOM      8  C   UNL     1       1.426  -5.123  -4.970  0.00  0.00    +0.021 A 
ATOM      9  C   UNL     1       1.477  -5.930  -3.849  0.00  0.00    +0.061 A 
ATOM     10  C   UNL     1       0.937  -5.490  -2.650  0.00  0.00    +0.130 A 
ATOM     11 BR   UNL     1       2.171  -5.728  -6.599  0.00  0.00    -0.050 Br
BRANCH  10  12
ATOM     12  O   UNL     1       0.992  -6.278  -1.548  0.00  0.00    -0.506 OA
ATOM     13  H   UNL     1       0.232  -6.868  -1.449  0.00  0.00    +0.292 HD
ENDBRANCH  10  12
ENDBRANCH   2   5
BRANCH   1  14
ATOM     14  C   UNL     1      -1.413  -2.063   0.004  0.00  0.00    +0.125 C 
BRANCH  14  15
ATOM     15  C   UNL     1      -2.820  -2.586   0.139  0.00  0.00    +0.067 C 
ATOM     16  S   UNL     1      -3.486  -3.406  -1.061  0.00  0.00    -0.039 S 
BRANCH  15  17
ATOM     17  N   UNL     1      -3.517  -2.361   1.270  0.00  0.00    -0.354 N 
ATOM     18  H   UNL     1      -3.113  -1.863   1.998  0.00  0.00    +0.143 HD
ATOM     19  H   UNL     1      -4.423  -2.697   1.357  0.00  0.00    +0.143 HD
ENDBRANCH  15  17
ENDBRANCH  14  15
BRANCH  14  20
ATOM     20  C   UNL     1      -1.433  -0.534   0.013  0.00  0.00    +0.028 C 
BRANCH  20  22
ATOM     21  C   UNL     1      -0.019   1.526   0.010  0.00  0.00    +0.004 C 
ATOM     22  C   UNL     1       0.002  -0.004   0.002  0.00  0.00    -0.001 C 
ENDBRANCH  20  22
ENDBRANCH  14  20
ENDBRANCH   1  14
TORSDOF 7
