REMARK  Name = ZINC13064272
REMARK  12 active torsions:
REMARK  status: ('A' for Active; 'I' for Inactive)
REMARK    1  A    between atoms: C_1  and  C_2
REMARK    2  A    between atoms: C_2  and  C_3
REMARK    3  A    between atoms: C_3  and  C_5
REMARK    4  A    between atoms: C_3  and  N_73
REMARK    5  A    between atoms: N_9  and  C_10
REMARK    6  A    between atoms: C_16  and  C_17
REMARK    7  A    between atoms: C_16  and  N_73
REMARK    8  A    between atoms: C_17  and  C_18
REMARK    9  A    between atoms: C_24  and  C_25
REMARK   10  A    between atoms: C_24  and  N_73
REMARK   11  A    between atoms: C_30  and  O_37
REMARK   12  A    between atoms: O_37  and  C_38
REMARK                            x       y       z     vdW  Elec       q    Type
REMARK                         _______ _______ _______ _____ _____    ______ ____
ROOT
ATOM      1  N   UNL     1      -3.427   9.559   2.424  0.00  0.00    +0.389 N 
ATOM      2  H   UNL     1      -3.708   9.337   1.462  0.00  0.00    -0.080 HD
ENDROOT
BRANCH   1   3
ATOM      3  C   UNL     1      -3.509  11.021   2.624  0.00  0.00    +0.003 C 
BRANCH   3   4
ATOM      4  C   UNL     1      -3.135  11.704   1.335  0.00  0.00    +0.138 A 
ATOM      5  N   UNL     1      -2.151  11.379   0.533  0.00  0.00    -0.115 NA
ATOM      6  N   UNL     1      -2.159  12.198  -0.461  0.00  0.00    -0.023 NA
ATOM      7  N   UNL     1      -3.119  13.043  -0.311  0.00  0.00    -0.044 NA
ATOM      8  N   UNL     1      -3.744  12.772   0.785  0.00  0.00    -0.228 N 
BRANCH   8   9
ATOM      9  C   UNL     1      -4.899  13.490   1.328  0.00  0.00    +0.111 C 
ATOM     10  C   UNL     1      -6.055  13.429   0.327  0.00  0.00    +0.027 C 
ATOM     11  C   UNL     1      -7.261  14.180   0.894  0.00  0.00    +0.002 C 
ATOM     12  C   UNL     1      -6.881  15.640   1.147  0.00  0.00    +0.000 C 
ATOM     13  C   UNL     1      -5.726  15.701   2.148  0.00  0.00    +0.002 C 
ATOM     14  C   UNL     1      -4.519  14.950   1.581  0.00  0.00    +0.027 C 
ENDBRANCH   8   9
ENDBRANCH   3   4
BRANCH   3  16
ATOM     15  C   UNL     1      -3.015  10.882   5.070  0.00  0.00    +0.002 C 
ATOM     16  C   UNL     1      -2.551  11.463   3.732  0.00  0.00    -0.011 C 
ENDBRANCH   3  16
ENDBRANCH   1   3
BRANCH   1  17
ATOM     17  C   UNL     1      -4.338   8.868   3.361  0.00  0.00    -0.073 C 
BRANCH  17  18
ATOM     18  C   UNL     1      -5.782   9.194   2.976  0.00  0.00    +0.016 C 
BRANCH  18  19
ATOM     19  C   UNL     1      -6.724   8.385   3.830  0.00  0.00    -0.049 A 
ATOM     20  C   UNL     1      -7.143   7.138   3.406  0.00  0.00    +0.003 A 
ATOM     21  C   UNL     1      -8.003   6.394   4.191  0.00  0.00    +0.000 A 
ATOM     22  C   UNL     1      -8.454   6.902   5.395  0.00  0.00    +0.000 A 
ATOM     23  C   UNL     1      -8.040   8.151   5.816  0.00  0.00    +0.000 A 
ATOM     24  C   UNL     1      -7.175   8.893   5.034  0.00  0.00    +0.003 A 
ENDBRANCH  18  19
ENDBRANCH  17  18
ENDBRANCH   1  17
BRANCH   1  25
ATOM     25  C   UNL     1      -2.039   9.097   2.637  0.00  0.00    -0.037 C 
BRANCH  25  26
ATOM     26  C   UNL     1      -1.910   7.691   2.111  0.00  0.00    +0.001 A 
ATOM     27  C   UNL     1      -1.468   7.481   0.845  0.00  0.00    +0.017 A 
ATOM     28  C   UNL     1      -1.353   6.104   0.364  0.00  0.00    -0.001 A 
ATOM     29  C   UNL     1      -0.903   5.827  -0.933  0.00  0.00    +0.013 A 
ATOM     30  C   UNL     1      -0.802   4.533  -1.352  0.00  0.00    +0.046 A 
ATOM     31  C   UNL     1      -1.153   3.483  -0.504  0.00  0.00    +0.122 A 
ATOM     32  C   UNL     1      -1.600   3.737   0.781  0.00  0.00    +0.072 A 
ATOM     33  C   UNL     1      -1.705   5.048   1.228  0.00  0.00    +0.053 A 
ATOM     34  N   UNL     1      -2.147   5.330   2.503  0.00  0.00    -0.322 N 
ATOM     35  H   UNL     1      -2.388   4.602   3.097  0.00  0.00    +0.169 HD
ATOM     36  C   UNL     1      -2.249   6.599   2.935  0.00  0.00    +0.251 A 
ATOM     37  O   UNL     1      -2.644   6.811   4.069  0.00  0.00    -0.268 OA
BRANCH  31  38
ATOM     38  O   UNL     1      -1.051   2.202  -0.940  0.00  0.00    -0.495 OA
ATOM     39  C   UNL     1      -0.583   2.007  -2.276  0.00  0.00    +0.277 C 
ENDBRANCH  31  38
ENDBRANCH  25  26
ENDBRANCH   1  25
TORSDOF 10
