REMARK  Name = ZINC63405930
REMARK  8 active torsions:
REMARK  status: ('A' for Active; 'I' for Inactive)
REMARK    1  A    between atoms: C_1  and  C_2
REMARK    2  A    between atoms: C_2  and  C_3
REMARK    3  A    between atoms: N_5  and  C_6
REMARK    4  A    between atoms: C_10  and  C_12
REMARK    5  A    between atoms: C_16  and  S_20
REMARK    6  A    between atoms: N_18  and  C_19
REMARK    7  A    between atoms: S_20  and  C_21
REMARK    8  A    between atoms: C_21  and  C_22
REMARK                            x       y       z     vdW  Elec       q    Type
REMARK                         _______ _______ _______ _____ _____    ______ ____
ROOT
ATOM      1  C   UNL     1      -4.575  -5.778   0.407  0.00  0.00    +0.171 C 
ATOM      2  N   UNL     1      -3.449  -6.398   1.155  0.00  0.00    -0.233 NA
ATOM      3  N   UNL     1      -4.037  -7.646   1.665  0.00  0.00    -0.229 NA
ATOM      4  C   UNL     1      -5.425  -7.280   2.029  0.00  0.00    +0.200 C 
ATOM      5  N   UNL     1      -5.771  -6.089   1.223  0.00  0.00    -0.260 NA
ATOM      6  C   UNL     1      -6.938  -6.349   0.369  0.00  0.00    +0.109 C 
ATOM      7  H   UNL     1      -2.670  -6.588   0.543  0.00  0.00    +0.143 HD
ATOM      8  H   UNL     1      -4.026  -8.366   0.959  0.00  0.00    +0.143 HD
ENDROOT
BRANCH   1  13
ATOM      9  C   UNL     1      -2.929  -2.389   0.107  0.00  0.00    +0.034 A 
ATOM     10  C   UNL     1      -4.034  -1.547   0.111  0.00  0.00    +0.023 A 
ATOM     11  C   UNL     1      -5.305  -2.078   0.210  0.00  0.00    +0.002 A 
ATOM     12  C   UNL     1      -5.478  -3.446   0.305  0.00  0.00    +0.006 A 
ATOM     13  C   UNL     1      -4.381  -4.287   0.303  0.00  0.00    -0.013 A 
ATOM     14  C   UNL     1      -3.107  -3.763   0.198  0.00  0.00    +0.029 A 
BRANCH   9  17
ATOM     15  C   UNL     1      -1.352  -0.676   0.596  0.00  0.00    +0.217 C 
ATOM     16  O   UNL     1      -2.229  -0.039   1.140  0.00  0.00    -0.275 OA
ATOM     17  N   UNL     1      -1.640  -1.854   0.008  0.00  0.00    -0.285 N 
ATOM     18  H   UNL     1      -0.954  -2.331  -0.485  0.00  0.00    +0.155 HD
BRANCH  15  20
ATOM     19  C   UNL     1       0.114   1.192   1.309  0.00  0.00    +0.013 C 
ATOM     20  C   UNL     1       0.061  -0.151   0.578  0.00  0.00    +0.093 C 
ENDBRANCH  15  20
ENDBRANCH   9  17
ENDBRANCH   1  13
BRANCH   4  21
ATOM     21  S   UNL     1      -5.521  -6.889   3.798  0.00  0.00    -0.121 S 
BRANCH  21  22
ATOM     22  C   UNL     1      -4.346  -5.524   4.010  0.00  0.00    +0.118 C 
BRANCH  22  23
ATOM     23  C   UNL     1      -4.328  -5.090   5.477  0.00  0.00    +0.184 C 
ATOM     24  N   UNL     1      -3.991  -6.232   6.336  0.00  0.00    -0.363 N 
ATOM     25  C   UNL     1      -4.997  -6.426   7.140  0.00  0.00    +0.060 A 
ATOM     26  C   UNL     1      -5.248  -7.402   8.208  0.00  0.00    +0.027 A 
ATOM     27  C   UNL     1      -6.412  -7.360   8.888  0.00  0.00    +0.002 A 
ATOM     28  C   UNL     1      -7.413  -6.410   8.619  0.00  0.00    +0.002 A 
ATOM     29  C   UNL     1      -7.285  -5.470   7.661  0.00  0.00    +0.027 A 
ATOM     30  C   UNL     1      -6.057  -5.420   6.855  0.00  0.00    +0.060 A 
ATOM     31  N   UNL     1      -5.665  -4.643   5.887  0.00  0.00    -0.363 N 
ATOM     32  H   UNL     1      -3.171  -6.748   6.310  0.00  0.00    +0.162 HD
ATOM     33  H   UNL     1      -6.165  -3.904   5.506  0.00  0.00    +0.162 HD
ENDBRANCH  22  23
ENDBRANCH  21  22
ENDBRANCH   4  21
TORSDOF 6
