REMARK  Name = ZINC63746420
REMARK  11 active torsions:
REMARK  status: ('A' for Active; 'I' for Inactive)
REMARK    1  A    between atoms: C_1  and  C_2
REMARK    2  A    between atoms: C_5  and  C_31
REMARK    3  A    between atoms: C_6  and  C_17
REMARK    4  A    between atoms: C_10  and  N_12
REMARK    5  A    between atoms: N_15  and  C_16
REMARK    6  A    between atoms: N_19  and  C_20
REMARK    7  A    between atoms: C_20  and  C_21
REMARK    8  A    between atoms: C_24  and  O_27
REMARK    9  A    between atoms: O_27  and  C_28
REMARK   10  A    between atoms: C_28  and  C_29
REMARK   11  A    between atoms: C_28  and  C_30
REMARK                            x       y       z     vdW  Elec       q    Type
REMARK                         _______ _______ _______ _____ _____    ______ ____
ROOT
ATOM      1  C   UNL     1      -2.706   1.976   0.592  0.00  0.00    +0.044 C 
ATOM      2  C   UNL     1      -2.699   0.483   0.390  0.00  0.00    -0.048 A 
ATOM      3  C   UNL     1      -2.449  -0.006  -0.846  0.00  0.00    +0.013 A 
ATOM      4  C   UNL     1      -2.434  -1.404  -1.073  0.00  0.00    +0.006 A 
ATOM      5  C   UNL     1      -2.213  -2.168  -2.206  0.00  0.00    -0.000 C 
ATOM      6  C   UNL     1      -2.341  -3.608  -1.761  0.00  0.00    +0.198 C 
ATOM      7  N   UNL     1      -2.643  -3.562  -0.326  0.00  0.00    -0.368 N 
ATOM      8  C   UNL     1      -2.695  -2.310   0.062  0.00  0.00    +0.065 A 
ATOM      9  C   UNL     1      -2.958  -1.701   1.375  0.00  0.00    +0.059 A 
ATOM     10  C   UNL     1      -2.945  -0.346   1.489  0.00  0.00    +0.028 A 
ATOM     11  H   UNL     1      -2.782  -4.334   0.244  0.00  0.00    +0.161 HD
ENDROOT
BRANCH   9  12
ATOM     12  N   UNL     1      -3.213  -2.504   2.491  0.00  0.00    -0.268 N 
ATOM     13  C   UNL     1      -3.007  -2.019   3.732  0.00  0.00    +0.304 C 
ATOM     14  O   UNL     1      -2.499  -0.924   3.880  0.00  0.00    -0.253 OA
ATOM     15  N   UNL     1      -3.365  -2.747   4.808  0.00  0.00    -0.302 N 
ATOM     16  C   UNL     1      -3.141  -2.220   6.157  0.00  0.00    +0.129 C 
ATOM     17  H   UNL     1      -3.538  -3.410   2.373  0.00  0.00    +0.156 HD
ATOM     18  H   UNL     1      -3.770  -3.621   4.690  0.00  0.00    +0.150 HD
ENDBRANCH   9  12
BRANCH   5  19
ATOM     19  C   UNL     1      -1.917  -1.682  -3.556  0.00  0.00    -0.019 A 
ATOM     20  C   UNL     1      -1.255  -0.460  -3.736  0.00  0.00    +0.008 A 
ATOM     21  C   UNL     1      -0.981  -0.011  -5.010  0.00  0.00    +0.001 A 
ATOM     22  C   UNL     1      -1.357  -0.764  -6.110  0.00  0.00    +0.000 A 
ATOM     23  C   UNL     1      -2.012  -1.973  -5.941  0.00  0.00    +0.001 A 
ATOM     24  C   UNL     1      -2.289  -2.440  -4.676  0.00  0.00    +0.008 A 
ENDBRANCH   5  19
BRANCH   6  25
ATOM     25  C   UNL     1      -1.047  -4.342  -1.997  0.00  0.00    +0.240 C 
ATOM     26  O   UNL     1      -0.258  -4.488  -1.088  0.00  0.00    -0.273 OA
ATOM     27  N   UNL     1      -0.765  -4.836  -3.219  0.00  0.00    -0.309 N 
ATOM     28  H   UNL     1      -1.360  -4.654  -3.964  0.00  0.00    +0.149 HD
BRANCH  27  29
ATOM     29  C   UNL     1       0.438  -5.647  -3.423  0.00  0.00    +0.139 C 
BRANCH  29  30
ATOM     30  C   UNL     1       0.519  -6.072  -4.866  0.00  0.00    -0.030 A 
ATOM     31  C   UNL     1      -0.073  -7.254  -5.272  0.00  0.00    +0.009 A 
ATOM     32  C   UNL     1       0.000  -7.646  -6.594  0.00  0.00    +0.046 A 
ATOM     33  C   UNL     1       0.668  -6.853  -7.516  0.00  0.00    +0.121 A 
ATOM     34  C   UNL     1       1.261  -5.667  -7.106  0.00  0.00    +0.046 A 
ATOM     35  C   UNL     1       1.180  -5.277  -5.784  0.00  0.00    +0.009 A 
BRANCH  33  36
ATOM     36  O   UNL     1       0.742  -7.237  -8.817  0.00  0.00    -0.489 OA
BRANCH  36  37
ATOM     37  C   UNL     1       0.138  -8.485  -9.161  0.00  0.00    +0.167 C 
ATOM     38  C   UNL     1      -1.361  -8.280  -9.390  0.00  0.00    +0.051 C 
ATOM     39  C   UNL     1       0.780  -9.028 -10.439  0.00  0.00    +0.051 C 
ENDBRANCH  36  37
ENDBRANCH  33  36
ENDBRANCH  29  30
ENDBRANCH  27  29
ENDBRANCH   6  25
TORSDOF 7
