REMARK  Name = ZINC43746601
REMARK  11 active torsions:
REMARK  status: ('A' for Active; 'I' for Inactive)
REMARK    1  A    between atoms: C_1  and  C_2
REMARK    2  A    between atoms: C_2  and  C_3
REMARK    3  A    between atoms: C_3  and  C_4
REMARK    4  A    between atoms: C_4  and  N_5
REMARK    5  A    between atoms: C_6  and  C_8
REMARK    6  A    between atoms: C_8  and  C_10
REMARK    7  A    between atoms: C_8  and  N_14
REMARK    8  A    between atoms: C_10  and  C_11
REMARK    9  A    between atoms: C_11  and  C_12
REMARK   10  A    between atoms: C_11  and  C_13
REMARK   11  A    between atoms: C_15  and  C_17
REMARK                            x       y       z     vdW  Elec       q    Type
REMARK                         _______ _______ _______ _____ _____    ______ ____
ROOT
ATOM      1  C   UNL     1       2.267  -8.080  -4.846  0.00  0.00    +0.167 C 
ATOM      2  C   UNL     1       0.776  -8.250  -5.171  0.00  0.00    +0.069 C 
ATOM      3  C   UNL     1       0.543  -8.089  -6.652  0.00  0.00    -0.015 A 
ATOM      4  C   UNL     1      -0.725  -7.857  -7.322  0.00  0.00    +0.003 A 
ATOM      5  C   UNL     1      -2.030  -7.707  -6.844  0.00  0.00    +0.010 A 
ATOM      6  C   UNL     1      -3.012  -7.497  -7.781  0.00  0.00    +0.001 A 
ATOM      7  C   UNL     1      -2.734  -7.436  -9.137  0.00  0.00    +0.002 A 
ATOM      8  C   UNL     1      -1.452  -7.580  -9.636  0.00  0.00    +0.026 A 
ATOM      9  C   UNL     1      -0.434  -7.793  -8.708  0.00  0.00    +0.047 A 
ATOM     10  N   UNL     1       0.912  -7.968  -8.849  0.00  0.00    -0.356 N 
ATOM     11  H   UNL     1       1.389  -7.975  -9.693  0.00  0.00    +0.166 HD
ATOM     12  C   UNL     1       1.488  -8.133  -7.618  0.00  0.00    +0.046 A 
ATOM     13  C   UNL     1       2.956  -8.317  -7.323  0.00  0.00    +0.155 C 
ATOM     14  N   UNL     1       3.037  -8.741  -5.904  0.00  0.00    -0.273 N 
ATOM     15  C   UNL     1       3.864  -9.791  -5.820  0.00  0.00    +0.248 C 
ATOM     16  O   UNL     1       4.324 -10.240  -4.789  0.00  0.00    -0.270 OA
ATOM     17  C   UNL     1       4.129 -10.317  -7.164  0.00  0.00    +0.042 A 
ATOM     18  C   UNL     1       3.570  -9.413  -8.125  0.00  0.00    -0.009 A 
ATOM     19  C   UNL     1       3.649  -9.633  -9.482  0.00  0.00    +0.006 A 
ATOM     20  C   UNL     1       4.325 -10.775  -9.900  0.00  0.00    +0.000 A 
ATOM     21  C   UNL     1       4.895 -11.654  -9.001  0.00  0.00    +0.001 A 
ATOM     22  C   UNL     1       4.810 -11.463  -7.577  0.00  0.00    +0.013 A 
ENDROOT
BRANCH   1  24
ATOM     23  N   UNL     1       2.010  -5.805  -3.909  0.00  0.00    -0.302 N 
ATOM     24  C   UNL     1       2.615  -6.614  -4.801  0.00  0.00    +0.235 C 
ATOM     25  O   UNL     1       3.439  -6.163  -5.569  0.00  0.00    -0.274 OA
ATOM     26  H   UNL     1       1.404  -6.177  -3.249  0.00  0.00    +0.150 HD
BRANCH  23  27
ATOM     27  C   UNL     1       2.269  -4.363  -3.936  0.00  0.00    +0.159 C 
BRANCH  27  29
ATOM     28  N   UNL     1       2.332  -2.514  -2.294  0.00  0.00    -0.314 N 
ATOM     29  C   UNL     1       1.940  -3.769  -2.590  0.00  0.00    +0.233 C 
ATOM     30  O   UNL     1       1.323  -4.421  -1.774  0.00  0.00    -0.274 OA
ATOM     31  H   UNL     1       2.865  -2.010  -2.928  0.00  0.00    +0.149 HD
BRANCH  28  32
ATOM     32  C   UNL     1       1.951  -1.911  -1.014  0.00  0.00    +0.104 C 
BRANCH  32  33
ATOM     33  C   UNL     1       2.519  -0.493  -0.929  0.00  0.00    +0.018 C 
BRANCH  33  35
ATOM     34  C   UNL     1       2.689   1.555   0.491  0.00  0.00    +0.004 C 
ATOM     35  C   UNL     1       2.122   0.137   0.407  0.00  0.00    -0.002 C 
ENDBRANCH  33  35
ENDBRANCH  32  33
ENDBRANCH  28  32
ENDBRANCH  27  29
BRANCH  27  36
ATOM     36  C   UNL     1       1.397  -3.708  -5.009  0.00  0.00    +0.034 C 
BRANCH  36  37
ATOM     37  C   UNL     1       1.692  -2.208  -5.060  0.00  0.00    -0.015 C 
ATOM     38  C   UNL     1       3.125  -1.986  -5.549  0.00  0.00    +0.007 C 
ATOM     39  C   UNL     1       0.714  -1.528  -6.021  0.00  0.00    +0.007 C 
ENDBRANCH  36  37
ENDBRANCH  27  36
ENDBRANCH  23  27
ENDBRANCH   1  24
TORSDOF 8
