REMARK  Name = ZINC23875422
REMARK  10 active torsions:
REMARK  status: ('A' for Active; 'I' for Inactive)
REMARK    1  A    between atoms: C_1  and  C_2
REMARK    2  A    between atoms: C_11  and  N_30
REMARK    3  A    between atoms: C_13  and  S_15
REMARK    4  A    between atoms: S_15  and  C_16
REMARK    5  A    between atoms: C_16  and  C_18
REMARK    6  A    between atoms: C_16  and  C_19
REMARK    7  A    between atoms: N_21  and  C_22
REMARK    8  A    between atoms: N_26  and  C_27
REMARK    9  A    between atoms: C_27  and  C_28
REMARK   10  A    between atoms: C_27  and  C_29
REMARK                            x       y       z     vdW  Elec       q    Type
REMARK                         _______ _______ _______ _____ _____    ______ ____
ROOT
ATOM      1  C   UNL     1       2.367  -5.966  -2.305  0.00  0.00    +0.008 C 
ATOM      2  C   UNL     1       1.950  -4.508  -2.101  0.00  0.00    -0.009 C 
ATOM      3  C   UNL     1       0.896  -4.424  -0.993  0.00  0.00    +0.008 C 
ATOM      4  C   UNL     1       0.298  -3.018  -0.951  0.00  0.00    +0.037 C 
ATOM      5  C   UNL     1       1.432  -2.002  -0.858  0.00  0.00    -0.025 A 
ATOM      6  C   UNL     1       2.692  -2.344  -1.194  0.00  0.00    -0.004 A 
ATOM      7  S   UNL     1       3.655  -0.877  -0.935  0.00  0.00    -0.073 S 
ATOM      8  C   UNL     1       2.359   0.197  -0.376  0.00  0.00    +0.115 A 
ATOM      9  C   UNL     1       1.215  -0.625  -0.408  0.00  0.00    +0.051 A 
ATOM     10  C   UNL     1       0.002  -0.004   0.002  0.00  0.00    +0.129 A 
ATOM     11  N   UNL     1       0.019   1.264   0.376  0.00  0.00    -0.207 NA
ATOM     12  C   UNL     1       1.135   1.983   0.382  0.00  0.00    +0.192 A 
ATOM     13  N   UNL     1       2.295   1.457   0.010  0.00  0.00    -0.214 NA
ATOM     14  C   UNL     1       3.172  -3.677  -1.681  0.00  0.00    +0.046 C 
ENDROOT
BRANCH  10  15
ATOM     15  N   UNL     1      -1.181  -0.720   0.010  0.00  0.00    -0.343 N 
ATOM     16  H   UNL     1      -2.116  -0.234   0.328  0.00  0.00    +0.144 HD
ATOM     17  H   UNL     1      -1.189  -1.774  -0.302  0.00  0.00    +0.144 HD
ENDBRANCH  10  15
BRANCH  12  18
ATOM     18  S   UNL     1       1.075   3.669   0.893  0.00  0.00    -0.073 S 
BRANCH  18  19
ATOM     19  C   UNL     1      -0.689   3.821   1.266  0.00  0.00    +0.137 C 
ATOM     20  C   UNL     1      -1.041   2.915   2.447  0.00  0.00    +0.029 C 
BRANCH  19  21
ATOM     21  C   UNL     1      -1.006   5.252   1.618  0.00  0.00    +0.231 C 
ATOM     22  O   UNL     1      -0.120   6.000   1.972  0.00  0.00    -0.274 OA
ATOM     23  N   UNL     1      -2.275   5.700   1.540  0.00  0.00    -0.270 N 
ATOM     24  H   UNL     1      -3.079   5.021   1.220  0.00  0.00    +0.156 HD
BRANCH  23  25
ATOM     25  C   UNL     1      -2.569   7.024   1.866  0.00  0.00    +0.123 A 
ATOM     26  C   UNL     1      -1.679   7.966   2.281  0.00  0.00    +0.065 A 
ATOM     27  C   UNL     1      -2.382   9.154   2.496  0.00  0.00    +0.136 A 
ATOM     28  N   UNL     1      -3.645   8.938   2.232  0.00  0.00    -0.178 NA
ATOM     29  N   UNL     1      -3.791   7.603   1.833  0.00  0.00    -0.248 N 
BRANCH  29  30
ATOM     30  C   UNL     1      -5.044   6.950   1.446  0.00  0.00    +0.103 C 
ATOM     31  C   UNL     1      -6.028   7.003   2.616  0.00  0.00    +0.032 C 
ATOM     32  C   UNL     1      -5.645   7.674   0.240  0.00  0.00    +0.032 C 
ENDBRANCH  29  30
ENDBRANCH  23  25
ENDBRANCH  19  21
ENDBRANCH  18  19
ENDBRANCH  12  18
TORSDOF 6
