REMARK  Name = ZINC36643177
REMARK  13 active torsions:
REMARK  status: ('A' for Active; 'I' for Inactive)
REMARK    1  A    between atoms: C_1  and  C_2
REMARK    2  A    between atoms: N_11  and  C_12
REMARK    3  A    between atoms: C_12  and  C_13
REMARK    4  A    between atoms: C_13  and  C_14
REMARK    5  A    between atoms: C_14  and  N_15
REMARK    6  A    between atoms: N_15  and  C_16
REMARK    7  A    between atoms: N_15  and  C_17
REMARK    8  A    between atoms: C_18  and  C_20
REMARK    9  A    between atoms: C_23  and  S_26
REMARK   10  A    between atoms: S_26  and  N_29
REMARK   11  A    between atoms: N_29  and  C_30
REMARK   12  A    between atoms: N_29  and  C_31
REMARK   13  A    between atoms: C_31  and  C_32
REMARK                            x       y       z     vdW  Elec       q    Type
REMARK                         _______ _______ _______ _____ _____    ______ ____
ROOT
ATOM      1  C   UNL     1       2.044   0.320   3.552  0.00  0.00    +0.044 C 
ATOM      2  C   UNL     1       1.681  -1.050   3.040  0.00  0.00    -0.049 A 
ATOM      3  C   UNL     1       1.406  -1.245   1.694  0.00  0.00    +0.005 A 
ATOM      4  C   UNL     1       1.075  -2.481   1.202  0.00  0.00    +0.029 A 
ATOM      5  C   UNL     1       1.002  -3.604   2.059  0.00  0.00    +0.080 A 
ATOM      6  C   UNL     1       1.289  -3.368   3.423  0.00  0.00    +0.041 A 
ATOM      7  C   UNL     1       1.625  -2.127   3.905  0.00  0.00    +0.020 A 
ATOM      8  S   UNL     1       1.094  -4.983   4.136  0.00  0.00    -0.052 S 
ATOM      9  C   UNL     1       0.659  -5.842   2.630  0.00  0.00    +0.168 A 
ATOM     10  N   UNL     1       0.693  -4.879   1.738  0.00  0.00    -0.224 NA
ATOM     11  N   UNL     1       0.361  -7.182   2.449  0.00  0.00    -0.246 N 
ATOM     12  C   UNL     1       0.378  -8.024   3.501  0.00  0.00    +0.252 C 
ATOM     13  O   UNL     1       0.592  -7.596   4.619  0.00  0.00    -0.270 OA
ENDROOT
BRANCH  12  14
ATOM     14  C   UNL     1       0.138  -9.467   3.297  0.00  0.00    +0.037 A 
ATOM     15  C   UNL     1      -0.805 -10.139   4.078  0.00  0.00    +0.015 A 
ATOM     16  C   UNL     1      -1.025 -11.486   3.881  0.00  0.00    +0.029 A 
ATOM     17  C   UNL     1      -0.314 -12.173   2.913  0.00  0.00    +0.106 A 
ATOM     18  C   UNL     1       0.622 -11.513   2.135  0.00  0.00    +0.029 A 
ATOM     19  C   UNL     1       0.848 -10.165   2.317  0.00  0.00    +0.015 A 
BRANCH  17  20
ATOM     20  S   UNL     1      -0.600 -13.894   2.669  0.00  0.00    +0.061 S 
ATOM     21  O   UNL     1       0.624 -14.448   2.208  0.00  0.00    -0.153 OA
ATOM     22  O   UNL     1      -1.257 -14.366   3.837  0.00  0.00    -0.153 OA
BRANCH  20  23
ATOM     23  N   UNL     1      -1.684 -14.039   1.425  0.00  0.00    -0.177 NA
ATOM     24  C   UNL     1      -1.204 -14.176   0.048  0.00  0.00    +0.131 C 
BRANCH  23  25
ATOM     25  C   UNL     1      -3.122 -14.030   1.702  0.00  0.00    +0.140 C 
BRANCH  25  26
ATOM     26  C   UNL     1      -3.743 -12.752   1.133  0.00  0.00    +0.134 C 
ATOM     27  C   UNL     1      -5.265 -12.720   1.420  0.00  0.00    +0.035 C 
ATOM     28  C   UNL     1      -5.541 -11.192   1.381  0.00  0.00    +0.031 C 
ATOM     29  C   UNL     1      -4.234 -10.609   1.961  0.00  0.00    +0.160 C 
ATOM     30  O   UNL     1      -3.209 -11.598   1.801  0.00  0.00    -0.375 OA
ENDBRANCH  25  26
ENDBRANCH  23  25
ENDBRANCH  20  23
ENDBRANCH  17  20
ENDBRANCH  12  14
BRANCH  11  31
ATOM     31  C   UNL     1       0.026  -7.684   1.114  0.00  0.00    +0.114 C 
BRANCH  31  32
ATOM     32  C   UNL     1       1.303  -7.804   0.280  0.00  0.00    +0.001 C 
BRANCH  32  33
ATOM     33  C   UNL     1       0.977  -8.467  -1.060  0.00  0.00    -0.078 C 
BRANCH  33  34
ATOM     34  N   UNL     1       2.175  -8.469  -1.910  0.00  0.00    +0.376 N 
ATOM     35  C   UNL     1       3.211  -9.308  -1.294  0.00  0.00    -0.097 C 
ATOM     36  C   UNL     1       1.834  -9.005  -3.235  0.00  0.00    -0.097 C 
ATOM     37  H   UNL     1       2.520  -7.526  -2.008  0.00  0.00    -0.083 HD
ENDBRANCH  33  34
ENDBRANCH  32  33
ENDBRANCH  31  32
ENDBRANCH  11  31
TORSDOF 9
