REMARK  Name = ZINC02482866
REMARK  3 active torsions:
REMARK  status: ('A' for Active; 'I' for Inactive)
REMARK    1  A    between atoms: C_1  and  O_2
REMARK    2  A    between atoms: O_2  and  C_3
REMARK    3  A    between atoms: C_7  and  N_9
REMARK                            x       y       z     vdW  Elec       q    Type
REMARK                         _______ _______ _______ _____ _____    ______ ____
ROOT
ATOM      1  N   UNL     1      -2.552  -4.033   0.015  0.00  0.00    -0.216 NA
ATOM      2  C   UNL     1      -3.308  -4.661   0.895  0.00  0.00    +0.197 C 
ATOM      3  N   UNL     1      -3.290  -6.046   0.970  0.00  0.00    -0.294 N 
ATOM      4  C   UNL     1      -3.705  -6.653   2.240  0.00  0.00    +0.101 C 
ATOM      5  C   UNL     1      -4.055  -8.134   2.031  0.00  0.00    +0.045 C 
ATOM      6  C   UNL     1      -2.765  -8.888   2.446  0.00  0.00    +0.004 C 
ATOM      7  C   UNL     1      -2.253  -8.057   3.649  0.00  0.00    +0.004 C 
ATOM      8  C   UNL     1      -2.563  -6.595   3.260  0.00  0.00    +0.045 C 
ATOM      9  N   UNL     1      -4.874  -5.920   2.736  0.00  0.00    -0.298 N 
ATOM     10  C   UNL     1      -4.861  -4.551   2.627  0.00  0.00    +0.159 C 
ATOM     11  N   UNL     1      -4.097  -3.963   1.728  0.00  0.00    -0.304 N 
ATOM     12  N   UNL     1      -5.639  -3.795   3.458  0.00  0.00    -0.332 N 
ATOM     13  H   UNL     1      -5.630  -6.385   3.127  0.00  0.00    +0.151 HD
ATOM     14  H   UNL     1      -6.200  -4.225   4.123  0.00  0.00    +0.145 HD
ATOM     15  H   UNL     1      -5.632  -2.828   3.383  0.00  0.00    +0.145 HD
ATOM     16  H   UNL     1      -3.015  -6.590   0.215  0.00  0.00    +0.151 HD
ATOM     17  H   UNL     1      -4.109  -2.995   1.664  0.00  0.00    +0.171 HD
ENDROOT
BRANCH   1  22
ATOM     18  C   UNL     1      -2.013  -0.620   1.205  0.00  0.00    +0.122 A 
ATOM     19  C   UNL     1      -2.317   0.101   0.056  0.00  0.00    +0.046 A 
ATOM     20  C   UNL     1      -2.696  -0.557  -1.099  0.00  0.00    +0.006 A 
ATOM     21  C   UNL     1      -2.777  -1.935  -1.119  0.00  0.00    +0.028 A 
ATOM     22  C   UNL     1      -2.473  -2.668   0.031  0.00  0.00    +0.071 A 
ATOM     23  C   UNL     1      -2.085  -2.002   1.195  0.00  0.00    +0.073 A 
BRANCH  18  25
ATOM     24  C   UNL     1      -1.588   1.460   2.276  0.00  0.00    +0.277 C 
ATOM     25  O   UNL     1      -1.641   0.033   2.337  0.00  0.00    -0.495 OA
ENDBRANCH  18  25
ENDBRANCH   1  22
TORSDOF 2
