REMARK  Name = ZINC60498857
REMARK  6 active torsions:
REMARK  status: ('A' for Active; 'I' for Inactive)
REMARK    1  A    between atoms: C_1  and  C_2
REMARK    2  A    between atoms: C_5  and  C_8
REMARK    3  A    between atoms: N_12  and  S_13
REMARK    4  A    between atoms: S_13  and  C_16
REMARK    5  A    between atoms: C_19  and  S_23
REMARK    6  A    between atoms: S_23  and  N_26
REMARK                            x       y       z     vdW  Elec       q    Type
REMARK                         _______ _______ _______ _____ _____    ______ ____
ROOT
ATOM      1  S   UNL     1      -2.450  -4.541   1.151  0.00  0.00    +0.064 S 
ATOM      2  O   UNL     1      -2.793  -4.699   2.521  0.00  0.00    -0.153 OA
ATOM      3  O   UNL     1      -2.727  -3.349   0.429  0.00  0.00    -0.153 OA
ENDROOT
BRANCH   1   4
ATOM      4  C   UNL     1      -3.240  -5.853   0.280  0.00  0.00    +0.141 A 
ATOM      5  C   UNL     1      -4.035  -6.755   0.961  0.00  0.00    +0.033 A 
ATOM      6  C   UNL     1      -4.654  -7.785   0.278  0.00  0.00    +0.030 A 
ATOM      7  C   UNL     1      -4.480  -7.913  -1.087  0.00  0.00    +0.108 A 
ATOM      8  C   UNL     1      -3.686  -7.012  -1.771  0.00  0.00    +0.068 A 
ATOM      9  C   UNL     1      -3.069  -5.978  -1.088  0.00  0.00    +0.151 A 
ATOM     10  F   UNL     1      -2.296  -5.093  -1.756  0.00  0.00    -0.203 F 
BRANCH   7  11
ATOM     11  S   UNL     1      -5.270  -9.227  -1.956  0.00  0.00    +0.056 S 
ATOM     12  O   UNL     1      -4.509  -9.449  -3.136  0.00  0.00    -0.153 OA
ATOM     13  O   UNL     1      -5.516 -10.253  -1.004  0.00  0.00    -0.153 OA
BRANCH  11  14
ATOM     14  N   UNL     1      -6.750  -8.670  -2.446  0.00  0.00    -0.204 NA
ATOM     15  H   UNL     1      -7.022  -7.763  -2.232  0.00  0.00    +0.144 HD
ATOM     16  H   UNL     1      -7.346  -9.250  -2.946  0.00  0.00    +0.144 HD
ENDBRANCH  11  14
ENDBRANCH   7  11
ENDBRANCH   1   4
BRANCH   1  21
ATOM     17  C   UNL     1       0.059  -4.275  -0.021  0.00  0.00    +0.110 C 
ATOM     18  C   UNL     1       1.486  -4.783   0.274  0.00  0.00    +0.027 C 
ATOM     19  C   UNL     1       1.234  -6.024   1.171  0.00  0.00    +0.019 C 
ATOM     20  C   UNL     1      -0.001  -5.572   1.989  0.00  0.00    +0.110 C 
ATOM     21  N   UNL     1      -0.817  -4.793   1.040  0.00  0.00    -0.169 NA
BRANCH  17  26
ATOM     22  C   UNL     1      -0.018   1.503   0.010  0.00  0.00    +0.044 C 
ATOM     23  C   UNL     1       0.002  -0.004   0.002  0.00  0.00    -0.050 A 
ATOM     24  C   UNL     1       0.006  -0.689  -1.199  0.00  0.00    +0.003 A 
ATOM     25  C   UNL     1       0.025  -2.071  -1.206  0.00  0.00    +0.005 A 
ATOM     26  C   UNL     1       0.040  -2.768  -0.013  0.00  0.00    -0.029 A 
ATOM     27  C   UNL     1       0.037  -2.084   1.188  0.00  0.00    +0.005 A 
ATOM     28  C   UNL     1       0.023  -0.702   1.195  0.00  0.00    +0.003 A 
ENDBRANCH  17  26
ENDBRANCH   1  21
TORSDOF 5
