REMARK  Name = ZINC20232155
REMARK  15 active torsions:
REMARK  status: ('A' for Active; 'I' for Inactive)
REMARK    1  A    between atoms: C_1  and  C_2
REMARK    2  A    between atoms: C_2  and  C_3
REMARK    3  A    between atoms: C_2  and  C_4
REMARK    4  A    between atoms: C_4  and  C_6
REMARK    5  A    between atoms: C_4  and  N_21
REMARK    6  A    between atoms: N_8  and  C_9
REMARK    7  A    between atoms: C_9  and  C_10
REMARK    8  A    between atoms: C_10  and  C_11
REMARK    9  A    between atoms: C_11  and  N_12
REMARK   10  A    between atoms: N_12  and  C_13
REMARK   11  A    between atoms: N_12  and  C_14
REMARK   12  A    between atoms: C_14  and  C_15
REMARK   13  A    between atoms: N_21  and  S_22
REMARK   14  A    between atoms: S_22  and  C_25
REMARK   15  A    between atoms: C_34  and  C_36
REMARK                            x       y       z     vdW  Elec       q    Type
REMARK                         _______ _______ _______ _____ _____    ______ ____
ROOT
ATOM      1  C   UNL     1      -1.107   3.253   2.470  0.00  0.00    +0.165 C 
ENDROOT
BRANCH   1   2
ATOM      2  C   UNL     1      -0.964   2.719   3.872  0.00  0.00    +0.232 C 
ATOM      3  O   UNL     1      -1.613   1.756   4.223  0.00  0.00    -0.274 OA
ATOM      4  N   UNL     1      -0.116   3.311   4.736  0.00  0.00    -0.314 N 
ATOM      5  H   UNL     1       0.411   4.232   4.445  0.00  0.00    +0.149 HD
BRANCH   4   6
ATOM      6  C   UNL     1       0.105   2.728   6.061  0.00  0.00    +0.102 C 
BRANCH   6   7
ATOM      7  C   UNL     1       1.105   3.589   6.837  0.00  0.00    +0.000 C 
BRANCH   7   8
ATOM      8  C   UNL     1       1.336   2.980   8.221  0.00  0.00    -0.077 C 
BRANCH   8   9
ATOM      9  N   UNL     1       2.296   3.806   8.965  0.00  0.00    +0.381 N 
ATOM     10  C   UNL     1       1.735   5.133   9.256  0.00  0.00    -0.096 C 
ATOM     11  H   UNL     1       3.184   3.946   8.332  0.00  0.00    -0.082 HD
BRANCH   9  12
ATOM     12  C   UNL     1       2.724   3.134  10.200  0.00  0.00    -0.043 C 
BRANCH  12  13
ATOM     13  C   UNL     1       3.879   3.886  10.807  0.00  0.00    -0.064 A 
ATOM     14  C   UNL     1       5.176   3.559  10.460  0.00  0.00    +0.002 A 
ATOM     15  C   UNL     1       6.236   4.253  11.014  0.00  0.00    +0.000 A 
ATOM     16  C   UNL     1       5.999   5.267  11.923  0.00  0.00    +0.000 A 
ATOM     17  C   UNL     1       4.702   5.590  12.274  0.00  0.00    +0.000 A 
ATOM     18  C   UNL     1       3.642   4.900  11.716  0.00  0.00    +0.002 A 
ENDBRANCH  12  13
ENDBRANCH   9  12
ENDBRANCH   8   9
ENDBRANCH   7   8
ENDBRANCH   6   7
ENDBRANCH   4   6
ENDBRANCH   1   2
BRANCH   1  20
ATOM     19  C   UNL     1      -2.078   5.083   1.074  0.00  0.00    +0.009 C 
ATOM     20  C   UNL     1      -1.953   4.528   2.494  0.00  0.00    +0.010 C 
ATOM     21  C   UNL     1      -3.345   4.205   3.039  0.00  0.00    +0.009 C 
ENDBRANCH   1  20
BRANCH   1  22
ATOM     22  N   UNL     1      -1.762   2.248   1.629  0.00  0.00    -0.178 NA
ATOM     23  H   UNL     1      -2.739   1.837   1.922  0.00  0.00    +0.149 HD
BRANCH  22  24
ATOM     24  S   UNL     1      -0.933   1.548   0.378  0.00  0.00    +0.059 S 
ATOM     25  O   UNL     1      -0.304   2.605  -0.334  0.00  0.00    -0.153 OA
ATOM     26  O   UNL     1      -1.829   0.638  -0.244  0.00  0.00    -0.153 OA
BRANCH  24  27
ATOM     27  C   UNL     1       0.358   0.580   1.085  0.00  0.00    +0.106 A 
ATOM     28  C   UNL     1       0.134  -0.746   1.407  0.00  0.00    +0.030 A 
ATOM     29  C   UNL     1       1.143  -1.508   1.955  0.00  0.00    +0.026 A 
ATOM     30  C   UNL     1       2.400  -0.947   2.190  0.00  0.00    +0.040 A 
ATOM     31  C   UNL     1       2.615   0.383   1.865  0.00  0.00    -0.023 A 
ATOM     32  C   UNL     1       1.600   1.142   1.315  0.00  0.00    +0.034 A 
ATOM     33  C   UNL     1       4.042   0.739   2.215  0.00  0.00    +0.056 C 
ATOM     34  C   UNL     1       4.635  -0.557   2.789  0.00  0.00    +0.118 C 
ATOM     35  N   UNL     1       3.547  -1.537   2.732  0.00  0.00    -0.271 N 
ATOM     36  C   UNL     1       3.637  -2.817   3.141  0.00  0.00    +0.217 C 
ATOM     37  O   UNL     1       2.676  -3.552   3.052  0.00  0.00    -0.276 OA
ATOM     38  C   UNL     1       4.932  -3.337   3.709  0.00  0.00    +0.109 C 
ENDBRANCH  24  27
ENDBRANCH  22  24
ENDBRANCH   1  22
TORSDOF 11
