REMARK  Name = ZINC14460616
REMARK  5 active torsions:
REMARK  status: ('A' for Active; 'I' for Inactive)
REMARK    1  A    between atoms: C_3  and  C_8
REMARK    2  A    between atoms: C_19  and  S_24
REMARK    3  A    between atoms: S_24  and  N_27
REMARK    4  A    between atoms: N_27  and  C_28
REMARK    5  A    between atoms: C_28  and  C_29
REMARK                            x       y       z     vdW  Elec       q    Type
REMARK                         _______ _______ _______ _____ _____    ______ ____
ROOT
ATOM      1  C   UNL     1       1.420  -0.264   2.064  0.00  0.00    +0.105 C 
ATOM      2  C   UNL     1       1.401  -0.367   0.536  0.00  0.00    +0.029 C 
ATOM      3  C   UNL     1       2.210   0.841  -0.020  0.00  0.00    +0.033 C 
ATOM      4  C   UNL     1       1.205   1.976   0.001  0.00  0.00    -0.030 C 
ATOM      5  C   UNL     1      -0.018   1.506   0.010  0.00  0.00    -0.023 C 
ATOM      6  C   UNL     1       0.002  -0.004   0.002  0.00  0.00    +0.049 C 
ATOM      7  C   UNL     1      -1.105  -0.571   0.833  0.00  0.00    -0.018 A 
ATOM      8  C   UNL     1      -2.399  -0.537   0.331  0.00  0.00    +0.034 A 
ATOM      9  C   UNL     1      -3.450  -1.050   1.064  0.00  0.00    +0.106 A 
ATOM     10  C   UNL     1      -3.225  -1.605   2.311  0.00  0.00    +0.030 A 
ATOM     11  C   UNL     1      -1.942  -1.644   2.821  0.00  0.00    +0.025 A 
ATOM     12  C   UNL     1      -0.884  -1.128   2.083  0.00  0.00    +0.031 A 
ATOM     13  N   UNL     1       0.409  -1.172   2.614  0.00  0.00    -0.336 N 
ATOM     14  H   UNL     1       0.631  -1.789   3.329  0.00  0.00    +0.147 HD
ENDROOT
BRANCH   1  17
ATOM     15  C   UNL     1       1.845   3.301   3.231  0.00  0.00    +0.002 A 
ATOM     16  C   UNL     1       2.131   2.003   2.849  0.00  0.00    +0.005 A 
ATOM     17  C   UNL     1       1.108   1.150   2.481  0.00  0.00    -0.026 A 
ATOM     18  C   UNL     1      -0.201   1.596   2.488  0.00  0.00    +0.025 A 
ATOM     19  C   UNL     1      -0.487   2.893   2.875  0.00  0.00    +0.041 A 
ATOM     20  C   UNL     1       0.537   3.746   3.244  0.00  0.00    +0.020 A 
ATOM     21 CL   UNL     1      -2.131   3.451   2.891  0.00  0.00    -0.084 Cl
ENDBRANCH   1  17
BRANCH   9  22
ATOM     22  S   UNL     1      -5.085  -0.998   0.409  0.00  0.00    +0.058 S 
ATOM     23  O   UNL     1      -5.969  -1.048   1.521  0.00  0.00    -0.153 OA
ATOM     24  O   UNL     1      -5.109   0.063  -0.536  0.00  0.00    -0.153 OA
BRANCH  22  25
ATOM     25  N   UNL     1      -5.316  -2.398  -0.443  0.00  0.00    -0.187 NA
ATOM     26  H   UNL     1      -5.450  -2.365  -1.403  0.00  0.00    +0.148 HD
BRANCH  25  27
ATOM     27  C   UNL     1      -5.317  -3.688   0.253  0.00  0.00    +0.137 C 
BRANCH  27  28
ATOM     28  C   UNL     1      -5.910  -4.760  -0.663  0.00  0.00    +0.134 C 
ATOM     29  C   UNL     1      -6.022  -6.097   0.101  0.00  0.00    +0.035 C 
ATOM     30  C   UNL     1      -5.619  -7.132  -0.985  0.00  0.00    +0.031 C 
ATOM     31  C   UNL     1      -4.561  -6.327  -1.781  0.00  0.00    +0.160 C 
ATOM     32  O   UNL     1      -5.045  -4.974  -1.785  0.00  0.00    -0.375 OA
ENDBRANCH  27  28
ENDBRANCH  25  27
ENDBRANCH  22  25
ENDBRANCH   9  22
TORSDOF 5
