REMARK  Name = ZINC39663700
REMARK  11 active torsions:
REMARK  status: ('A' for Active; 'I' for Inactive)
REMARK    1  A    between atoms: C_1  and  N_2
REMARK    2  A    between atoms: N_2  and  C_3
REMARK    3  A    between atoms: N_2  and  C_4
REMARK    4  A    between atoms: C_4  and  C_6
REMARK    5  A    between atoms: C_4  and  C_33
REMARK    6  A    between atoms: C_6  and  N_7
REMARK    7  A    between atoms: C_8  and  C_10
REMARK    8  A    between atoms: C_21  and  C_23
REMARK    9  A    between atoms: C_28  and  C_29
REMARK   10  A    between atoms: C_36  and  O_39
REMARK   11  A    between atoms: O_39  and  C_40
REMARK                            x       y       z     vdW  Elec       q    Type
REMARK                         _______ _______ _______ _____ _____    ______ ____
ROOT
ATOM      1  C   UNL     1      -0.393  -4.128   4.400  0.00  0.00    +0.100 C 
ATOM      2  C   UNL     1       0.970  -3.403   4.360  0.00  0.00    +0.121 C 
ATOM      3  N   UNL     1       1.940  -4.401   4.868  0.00  0.00    -0.296 N 
ATOM      4  C   UNL     1       1.493  -5.684   4.275  0.00  0.00    +0.115 C 
ATOM      5  C   UNL     1      -0.046  -5.625   4.343  0.00  0.00    -0.004 C 
ATOM      6  C   UNL     1      -0.653  -6.262   3.096  0.00  0.00    -0.010 C 
ATOM      7  C   UNL     1      -0.344  -7.761   3.092  0.00  0.00    -0.082 C 
ATOM      8  N   UNL     1      -0.898  -8.381   4.302  0.00  0.00    +0.379 N 
ATOM      9  C   UNL     1      -0.241  -7.829   5.493  0.00  0.00    -0.082 C 
ATOM     10  C   UNL     1      -0.546  -6.332   5.599  0.00  0.00    -0.010 C 
ATOM     11  C   UNL     1       2.992  -4.190   5.684  0.00  0.00    +0.247 C 
ATOM     12  O   UNL     1       3.759  -5.099   5.934  0.00  0.00    -0.270 OA
ATOM     13  H   UNL     1      -1.889  -8.196   4.349  0.00  0.00    -0.086 HD
ATOM     14  H   UNL     1      -0.746  -9.378   4.267  0.00  0.00    -0.086 HD
ENDROOT
BRANCH  11  15
ATOM     15  C   UNL     1       3.212  -2.853   6.275  0.00  0.00    +0.049 A 
ATOM     16  C   UNL     1       2.933  -1.704   5.534  0.00  0.00    +0.013 A 
ATOM     17  C   UNL     1       3.140  -0.460   6.092  0.00  0.00    +0.001 A 
ATOM     18  C   UNL     1       3.625  -0.349   7.383  0.00  0.00    +0.001 A 
ATOM     19  C   UNL     1       3.904  -1.484   8.123  0.00  0.00    +0.013 A 
ATOM     20  C   UNL     1       3.695  -2.735   7.579  0.00  0.00    +0.067 A 
BRANCH  20  21
ATOM     21  C   UNL     1       3.994  -3.970   8.389  0.00  0.00    +0.418 C 
ATOM     22  F   UNL     1       4.463  -3.597   9.653  0.00  0.00    -0.166 F 
ATOM     23  F   UNL     1       2.828  -4.729   8.529  0.00  0.00    -0.166 F 
ATOM     24  F   UNL     1       4.970  -4.731   7.736  0.00  0.00    -0.166 F 
ENDBRANCH  20  21
ENDBRANCH  11  15
BRANCH   1  26
ATOM     25  N   UNL     1      -2.575  -3.752   3.297  0.00  0.00    -0.316 N 
ATOM     26  C   UNL     1      -1.230  -3.738   3.209  0.00  0.00    +0.218 C 
ATOM     27  O   UNL     1      -0.694  -3.412   2.171  0.00  0.00    -0.275 OA
ATOM     28  H   UNL     1      -3.004  -4.013   4.127  0.00  0.00    +0.149 HD
BRANCH  25  29
ATOM     29  C   UNL     1      -3.389  -3.373   2.139  0.00  0.00    +0.093 C 
BRANCH  29  30
ATOM     30  C   UNL     1      -4.868  -3.589   2.462  0.00  0.00    -0.021 C 
BRANCH  30  31
ATOM     31  C   UNL     1      -5.125  -5.058   2.684  0.00  0.00    -0.059 A 
ATOM     32  C   UNL     1      -5.267  -5.904   1.601  0.00  0.00    +0.005 A 
ATOM     33  C   UNL     1      -5.503  -7.251   1.801  0.00  0.00    +0.046 A 
ATOM     34  C   UNL     1      -5.596  -7.753   3.091  0.00  0.00    +0.120 A 
ATOM     35  C   UNL     1      -5.452  -6.901   4.176  0.00  0.00    +0.046 A 
ATOM     36  C   UNL     1      -5.211  -5.557   3.971  0.00  0.00    +0.005 A 
BRANCH  34  37
ATOM     37  O   UNL     1      -5.827  -9.077   3.291  0.00  0.00    -0.495 OA
ATOM     38  C   UNL     1      -5.911  -9.524   4.646  0.00  0.00    +0.277 C 
ENDBRANCH  34  37
ENDBRANCH  30  31
BRANCH  30  40
ATOM     39  C   UNL     1      -7.107  -3.364   1.631  0.00  0.00    -0.096 C 
ATOM     40  N   UNL     1      -5.690  -3.112   1.342  0.00  0.00    +0.382 N 
ATOM     41  C   UNL     1      -5.476  -1.671   1.157  0.00  0.00    -0.096 C 
ATOM     42  H   UNL     1      -5.426  -3.602   0.500  0.00  0.00    -0.082 HD
ENDBRANCH  30  40
ENDBRANCH  29  30
ENDBRANCH  25  29
ENDBRANCH   1  26
TORSDOF 8
