REMARK  Name = ZINC20344225
REMARK  6 active torsions:
REMARK  status: ('A' for Active; 'I' for Inactive)
REMARK    1  A    between atoms: C_1  and  C_2
REMARK    2  A    between atoms: C_4  and  O_5
REMARK    3  A    between atoms: N_13  and  C_14
REMARK    4  A    between atoms: C_14  and  N_16
REMARK    5  A    between atoms: N_19  and  C_22
REMARK    6  A    between atoms: C_22  and  C_23
REMARK                            x       y       z     vdW  Elec       q    Type
REMARK                         _______ _______ _______ _____ _____    ______ ____
ROOT
ATOM      1  C   UNL     1      -0.422   3.635   2.104  0.00  0.00    +0.137 C 
ATOM      2  S   UNL     1      -0.691   5.281   1.718  0.00  0.00    -0.018 S 
ENDROOT
BRANCH   1  14
ATOM      3  C   UNL     1      -5.108   0.440   6.353  0.00  0.00    +0.045 C 
ATOM      4  C   UNL     1      -3.669   0.652   6.750  0.00  0.00    -0.033 A 
ATOM      5  C   UNL     1      -3.202   0.208   7.946  0.00  0.00    +0.091 A 
ATOM      6  C   UNL     1      -1.852   0.418   8.293  0.00  0.00    +0.285 A 
ATOM      7  O   UNL     1      -1.002   1.050   7.469  0.00  0.00    -0.425 OA
ATOM      8  C   UNL     1      -1.401   1.515   6.266  0.00  0.00    +0.141 A 
ATOM      9  C   UNL     1      -2.736   1.340   5.855  0.00  0.00    +0.021 A 
ATOM     10  C   UNL     1      -3.155   1.821   4.609  0.00  0.00    +0.013 A 
ATOM     11  C   UNL     1      -2.267   2.463   3.796  0.00  0.00    +0.024 A 
ATOM     12  C   UNL     1      -0.942   2.635   4.195  0.00  0.00    +0.036 A 
ATOM     13  C   UNL     1      -0.510   2.165   5.427  0.00  0.00    +0.070 A 
ATOM     14  N   UNL     1      -0.044   3.288   3.351  0.00  0.00    -0.297 N 
ATOM     15  H   UNL     1       0.972   3.521   3.702  0.00  0.00    +0.154 HD
BRANCH   6  16
ATOM     16  O   UNL     1      -1.447   0.015   9.369  0.00  0.00    -0.480 OA
ATOM     17  H   UNL     1      -0.396   0.171   9.655  0.00  0.00    +0.295 HD
ENDBRANCH   6  16
ENDBRANCH   1  14
BRANCH   1  18
ATOM     18  N   UNL     1      -0.589   2.686   1.162  0.00  0.00    -0.310 N 
ATOM     19  C   UNL     1      -0.247   1.282   1.437  0.00  0.00    +0.122 C 
ATOM     20  C   UNL     1       0.660   0.772   0.313  0.00  0.00    +0.103 C 
ATOM     21  N   UNL     1       0.011   1.012  -0.983  0.00  0.00    -0.295 NA
ATOM     22  C   UNL     1      -0.175   2.449  -1.228  0.00  0.00    +0.103 C 
ATOM     23  C   UNL     1      -1.117   3.026  -0.167  0.00  0.00    +0.122 C 
BRANCH  21  24
ATOM     24  C   UNL     1       0.769   0.386  -2.075  0.00  0.00    +0.122 C 
BRANCH  24  25
ATOM     25  C   UNL     1       0.220   0.852  -3.399  0.00  0.00    +0.003 A 
ATOM     26  C   UNL     1      -0.796   0.144  -4.015  0.00  0.00    +0.047 A 
ATOM     27  C   UNL     1      -1.302   0.575  -5.229  0.00  0.00    +0.020 A 
ATOM     28  C   UNL     1      -0.786   1.708  -5.830  0.00  0.00    +0.003 A 
ATOM     29  C   UNL     1       0.233   2.413  -5.217  0.00  0.00    +0.020 A 
ATOM     30  C   UNL     1       0.737   1.985  -4.001  0.00  0.00    +0.047 A 
ATOM     31 CL   UNL     1       2.017   2.870  -3.232  0.00  0.00    -0.083 Cl
ATOM     32 CL   UNL     1      -1.440  -1.282  -3.263  0.00  0.00    -0.083 Cl
ENDBRANCH  24  25
ENDBRANCH  21  24
ENDBRANCH   1  18
TORSDOF 5
