REMARK  Name = ZINC35747593
REMARK  11 active torsions:
REMARK  status: ('A' for Active; 'I' for Inactive)
REMARK    1  A    between atoms: C_1  and  O_2
REMARK    2  A    between atoms: O_2  and  C_3
REMARK    3  A    between atoms: C_3  and  C_4
REMARK    4  A    between atoms: C_4  and  C_6
REMARK    5  A    between atoms: C_4  and  O_33
REMARK    6  A    between atoms: C_6  and  N_7
REMARK    7  A    between atoms: N_7  and  C_8
REMARK    8  A    between atoms: N_7  and  C_14
REMARK    9  A    between atoms: C_8  and  C_9
REMARK   10  A    between atoms: C_14  and  C_15
REMARK   11  A    between atoms: C_21  and  C_26
REMARK                            x       y       z     vdW  Elec       q    Type
REMARK                         _______ _______ _______ _____ _____    ______ ____
ROOT
ATOM      1  C   UNL     1       2.202  -6.619   2.202  0.00  0.00    +0.094 A 
ATOM      2  N   UNL     1       2.880  -7.551   2.920  0.00  0.00    -0.312 N 
ATOM      3  H   UNL     1       3.436  -7.267   3.662  0.00  0.00    +0.170 HD
ATOM      4  C   UNL     1       2.796  -8.861   2.622  0.00  0.00    +0.260 A 
ATOM      5  O   UNL     1       3.412  -9.685   3.277  0.00  0.00    -0.267 OA
ATOM      6  C   UNL     1       1.973  -9.271   1.526  0.00  0.00    +0.080 A 
ATOM      7  C   UNL     1       1.721 -10.613   1.013  0.00  0.00    +0.004 A 
ATOM      8  C   UNL     1       0.893 -10.759  -0.050  0.00  0.00    +0.056 A 
ATOM      9  S   UNL     1       0.402  -9.087  -0.424  0.00  0.00    -0.076 S 
ATOM     10  C   UNL     1       1.310  -8.239   0.842  0.00  0.00    +0.116 A 
ATOM     11  N   UNL     1       1.438  -6.964   1.200  0.00  0.00    -0.229 NA
ENDROOT
BRANCH   7  12
ATOM     12  C   UNL     1       2.359 -11.794   1.642  0.00  0.00    -0.015 A 
ATOM     13  C   UNL     1       3.732 -11.802   1.883  0.00  0.00    +0.008 A 
ATOM     14  C   UNL     1       4.321 -12.904   2.469  0.00  0.00    +0.002 A 
ATOM     15  C   UNL     1       3.552 -14.000   2.817  0.00  0.00    +0.020 A 
ATOM     16  C   UNL     1       2.188 -13.998   2.580  0.00  0.00    +0.042 A 
ATOM     17  C   UNL     1       1.587 -12.898   2.000  0.00  0.00    +0.028 A 
ATOM     18 CL   UNL     1       1.230 -15.378   3.019  0.00  0.00    -0.084 Cl
ENDBRANCH   7  12
BRANCH   1  19
ATOM     19  C   UNL     1       2.326  -5.164   2.572  0.00  0.00    -0.003 C 
BRANCH  19  20
ATOM     20  N   UNL     1       1.502  -4.355   1.664  0.00  0.00    +0.391 N 
ATOM     21  H   UNL     1       1.763  -4.551   0.709  0.00  0.00    -0.080 HD
BRANCH  20  22
ATOM     22  C   UNL     1       1.716  -2.930   1.947  0.00  0.00    -0.044 C 
BRANCH  22  23
ATOM     23  C   UNL     1       3.158  -2.552   1.602  0.00  0.00    +0.124 C 
BRANCH  23  24
ATOM     24  O   UNL     1       3.388  -2.769   0.209  0.00  0.00    -0.391 OA
ATOM     25  H   UNL     1       2.860  -2.202  -0.370  0.00  0.00    +0.210 HD
ENDBRANCH  23  24
BRANCH  23  26
ATOM     26  C   UNL     1       3.392  -1.077   1.934  0.00  0.00    +0.188 C 
BRANCH  26  28
ATOM     27  C   UNL     1       5.095   0.609   2.005  0.00  0.00    +0.194 C 
ATOM     28  O   UNL     1       4.768  -0.754   1.723  0.00  0.00    -0.381 OA
ENDBRANCH  26  28
ENDBRANCH  23  26
ENDBRANCH  22  23
ENDBRANCH  20  22
BRANCH  20  29
ATOM     29  C   UNL     1       0.085  -4.687   1.862  0.00  0.00    -0.002 C 
BRANCH  29  30
ATOM     30  C   UNL     1      -0.749  -3.966   0.834  0.00  0.00    +0.089 A 
ATOM     31  C   UNL     1      -0.993  -4.391  -0.418  0.00  0.00    +0.042 A 
ATOM     32  C   UNL     1      -1.813  -3.414  -1.029  0.00  0.00    +0.041 A 
ATOM     33  C   UNL     1      -2.020  -2.451  -0.113  0.00  0.00    +0.195 A 
ATOM     34  O   UNL     1      -1.378  -2.793   1.016  0.00  0.00    -0.470 OA
ENDBRANCH  29  30
ENDBRANCH  20  29
ENDBRANCH  19  20
ENDBRANCH   1  19
TORSDOF 10
