REMARK  Name = ZINC65978768
REMARK  8 active torsions:
REMARK  status: ('A' for Active; 'I' for Inactive)
REMARK    1  A    between atoms: N_9  and  C_10
REMARK    2  A    between atoms: C_13  and  C_16
REMARK    3  A    between atoms: C_16  and  N_17
REMARK    4  A    between atoms: N_17  and  C_18
REMARK    5  A    between atoms: C_18  and  C_19
REMARK    6  A    between atoms: C_22  and  O_25
REMARK    7  A    between atoms: O_25  and  C_26
REMARK    8  A    between atoms: C_26  and  C_27
REMARK                            x       y       z     vdW  Elec       q    Type
REMARK                         _______ _______ _______ _____ _____    ______ ____
ROOT
ATOM      1  N   UNL     1       9.297   1.329   0.809  0.00  0.00    +0.384 N 
ATOM      2  H   UNL     1       8.793   2.145   0.497  0.00  0.00    -0.085 HD
ATOM      3  H   UNL     1       9.010   1.093   1.747  0.00  0.00    -0.085 HD
ENDROOT
BRANCH   1   4
ATOM      4  C   UNL     1       9.009   0.202  -0.089  0.00  0.00    -0.046 C 
BRANCH   4   8
ATOM      5  C   UNL     1       4.815  -0.617  -0.049  0.00  0.00    +0.048 A 
ATOM      6  C   UNL     1       5.339   0.284  -0.967  0.00  0.00    +0.026 A 
ATOM      7  C   UNL     1       6.695   0.547  -0.977  0.00  0.00    +0.004 A 
ATOM      8  C   UNL     1       7.530  -0.086  -0.075  0.00  0.00    -0.064 A 
ATOM      9  C   UNL     1       7.011  -0.984   0.840  0.00  0.00    +0.004 A 
ATOM     10  C   UNL     1       5.656  -1.246   0.859  0.00  0.00    +0.026 A 
BRANCH   5  19
ATOM     11  C   UNL     1      -0.017   1.362   0.009  0.00  0.00    +0.002 A 
ATOM     12  C   UNL     1       1.167   2.086   0.002  0.00  0.00    +0.002 A 
ATOM     13  C   UNL     1       2.384   1.436  -0.013  0.00  0.00    +0.028 A 
ATOM     14  C   UNL     1       2.422   0.049  -0.021  0.00  0.00    +0.073 A 
ATOM     15  C   UNL     1       1.223  -0.684  -0.013  0.00  0.00    +0.089 A 
ATOM     16  C   UNL     1       0.002  -0.004   0.002  0.00  0.00    +0.030 A 
ATOM     17  N   UNL     1       1.562  -1.999  -0.024  0.00  0.00    -0.235 NA
ATOM     18  C   UNL     1       2.857  -2.118  -0.038  0.00  0.00    +0.205 A 
ATOM     19  N   UNL     1       3.440  -0.886  -0.037  0.00  0.00    -0.299 N 
ENDBRANCH   5  19
ENDBRANCH   4   8
ENDBRANCH   1   4
BRANCH   1  20
ATOM     20  C   UNL     1      10.739   1.610   0.795  0.00  0.00    -0.046 C 
BRANCH  20  21
ATOM     21  C   UNL     1      11.035   2.765   1.716  0.00  0.00    -0.064 A 
ATOM     22  C   UNL     1      11.006   4.059   1.231  0.00  0.00    +0.005 A 
ATOM     23  C   UNL     1      11.277   5.120   2.074  0.00  0.00    +0.046 A 
ATOM     24  C   UNL     1      11.578   4.886   3.408  0.00  0.00    +0.121 A 
ATOM     25  C   UNL     1      11.605   3.586   3.892  0.00  0.00    +0.046 A 
ATOM     26  C   UNL     1      11.328   2.529   3.047  0.00  0.00    +0.005 A 
BRANCH  24  27
ATOM     27  O   UNL     1      11.845   5.928   4.238  0.00  0.00    -0.483 OA
BRANCH  27  28
ATOM     28  C   UNL     1      12.146   5.612   5.599  0.00  0.00    +0.324 C 
BRANCH  28  29
ATOM     29  C   UNL     1      12.413   6.883   6.363  0.00  0.00    +0.248 C 
ATOM     30  O   UNL     1      12.351   7.954   5.797  0.00  0.00    -0.272 OA
ATOM     31  N   UNL     1      12.720   6.830   7.674  0.00  0.00    -0.327 N 
ATOM     32  H   UNL     1      12.769   5.973   8.126  0.00  0.00    +0.145 HD
ATOM     33  H   UNL     1      12.892   7.648   8.166  0.00  0.00    +0.145 HD
ENDBRANCH  28  29
ENDBRANCH  27  28
ENDBRANCH  24  27
ENDBRANCH  20  21
ENDBRANCH   1  20
TORSDOF 8
