REMARK  Name = ZINC63941243
REMARK  11 active torsions:
REMARK  status: ('A' for Active; 'I' for Inactive)
REMARK    1  A    between atoms: C_1  and  C_2
REMARK    2  A    between atoms: C_2  and  C_3
REMARK    3  A    between atoms: C_3  and  C_4
REMARK    4  A    between atoms: C_4  and  C_5
REMARK    5  A    between atoms: C_5  and  C_6
REMARK    6  A    between atoms: C_10  and  N_13
REMARK    7  A    between atoms: C_14  and  C_16
REMARK    8  A    between atoms: N_21  and  C_23
REMARK    9  A    between atoms: C_23  and  C_24
REMARK   10  A    between atoms: C_24  and  C_25
REMARK   11  A    between atoms: C_28  and  C_34
REMARK                            x       y       z     vdW  Elec       q    Type
REMARK                         _______ _______ _______ _____ _____    ______ ____
ROOT
ATOM      1  C   UNL     1      -3.852  -9.249   3.694  0.00  0.00    +0.101 C 
ATOM      2  C   UNL     1      -3.267 -10.168   2.597  0.00  0.00    +0.110 C 
ATOM      3  C   UNL     1      -3.779 -11.546   2.956  0.00  0.00    +0.216 C 
ATOM      4  O   UNL     1      -3.333 -12.587   2.522  0.00  0.00    -0.276 OA
ATOM      5  N   UNL     1      -4.798 -11.448   3.827  0.00  0.00    -0.300 N 
ATOM      6  C   UNL     1      -5.096 -10.046   4.144  0.00  0.00    +0.121 C 
ENDROOT
BRANCH   1   8
ATOM      7  N   UNL     1      -3.305  -7.091   2.615  0.00  0.00    -0.290 N 
ATOM      8  C   UNL     1      -4.246  -7.911   3.123  0.00  0.00    +0.220 C 
ATOM      9  O   UNL     1      -5.411  -7.573   3.120  0.00  0.00    -0.275 OA
ATOM     10  H   UNL     1      -2.373  -7.362   2.618  0.00  0.00    +0.151 HD
BRANCH   7  14
ATOM     11  C   UNL     1      -2.827  -4.123   0.007  0.00  0.00    +0.130 C 
ATOM     12  N   UNL     1      -4.210  -4.676  -0.024  0.00  0.00    -0.241 NA
ATOM     13  N   UNL     1      -4.306  -5.936   0.704  0.00  0.00    -0.227 NA
ATOM     14  C   UNL     1      -3.688  -5.790   2.060  0.00  0.00    +0.216 C 
ATOM     15  S   UNL     1      -2.206  -4.785   1.610  0.00  0.00    -0.102 S 
ATOM     16  H   UNL     1      -4.876  -4.005   0.325  0.00  0.00    +0.142 HD
ATOM     17  H   UNL     1      -3.872  -6.686   0.188  0.00  0.00    +0.143 HD
BRANCH  11  18
ATOM     18  C   UNL     1      -2.848  -2.593   0.015  0.00  0.00    +0.031 C 
BRANCH  18  19
ATOM     19  C   UNL     1      -1.413  -2.063   0.004  0.00  0.00    +0.002 C 
BRANCH  19  20
ATOM     20  C   UNL     1      -1.433  -0.534   0.013  0.00  0.00    -0.000 C 
BRANCH  20  22
ATOM     21  C   UNL     1      -0.019   1.526   0.010  0.00  0.00    +0.004 C 
ATOM     22  C   UNL     1       0.002  -0.004   0.002  0.00  0.00    -0.003 C 
ENDBRANCH  20  22
ENDBRANCH  19  20
ENDBRANCH  18  19
ENDBRANCH  11  18
ENDBRANCH   7  14
ENDBRANCH   1   8
BRANCH   5  23
ATOM     23  C   UNL     1      -5.518 -12.594   4.388  0.00  0.00    +0.112 C 
BRANCH  23  24
ATOM     24  C   UNL     1      -4.836 -13.041   5.682  0.00  0.00    +0.052 C 
BRANCH  24  25
ATOM     25  C   UNL     1      -5.577 -14.220   6.259  0.00  0.00    -0.040 C 
ATOM     26  C   UNL     1      -5.286 -15.529   6.084  0.00  0.00    -0.001 A 
ATOM     27  C   UNL     1      -4.232 -16.221   5.332  0.00  0.00    +0.013 A 
ATOM     28  C   UNL     1      -4.197 -17.573   5.345  0.00  0.00    -0.050 A 
ATOM     29  C   UNL     1      -5.139 -18.328   6.057  0.00  0.00    +0.005 A 
ATOM     30  C   UNL     1      -6.136 -17.764   6.772  0.00  0.00    +0.026 A 
ATOM     31  C   UNL     1      -6.268 -16.349   6.828  0.00  0.00    +0.043 A 
ATOM     32  N   UNL     1      -7.134 -15.577   7.439  0.00  0.00    -0.380 N 
ATOM     33  C   UNL     1      -6.794 -14.178   7.157  0.00  0.00    +0.144 C 
ATOM     34  C   UNL     1      -3.117 -18.286   4.574  0.00  0.00    +0.044 C 
ATOM     35  H   UNL     1      -7.873 -15.880   7.990  0.00  0.00    +0.160 HD
ENDBRANCH  24  25
ENDBRANCH  23  24
ENDBRANCH   5  23
TORSDOF 9
