REMARK  Name = ZINC20168521
REMARK  9 active torsions:
REMARK  status: ('A' for Active; 'I' for Inactive)
REMARK    1  A    between atoms: C_1  and  C_2
REMARK    2  A    between atoms: C_2  and  O_3
REMARK    3  A    between atoms: O_3  and  C_4
REMARK    4  A    between atoms: C_4  and  C_6
REMARK    5  A    between atoms: C_10  and  N_11
REMARK    6  A    between atoms: N_11  and  C_12
REMARK    7  A    between atoms: C_12  and  N_14
REMARK    8  A    between atoms: N_18  and  C_20
REMARK    9  A    between atoms: C_20  and  C_21
REMARK                            x       y       z     vdW  Elec       q    Type
REMARK                         _______ _______ _______ _____ _____    ______ ____
ROOT
ATOM      1  N   UNL     1       5.328  -2.504   2.003  0.00  0.00    -0.291 N 
ATOM      2  H   UNL     1       5.059  -3.232   2.783  0.00  0.00    +0.154 HD
ENDROOT
BRANCH   1   7
ATOM      3  C   UNL     1       2.998  -1.648   1.741  0.00  0.00    +0.091 A 
ATOM      4  C   UNL     1       2.178  -0.691   1.010  0.00  0.00    -0.021 A 
ATOM      5  C   UNL     1       2.845   0.055   0.104  0.00  0.00    -0.004 A 
ATOM      6  S   UNL     1       4.529  -0.483   0.221  0.00  0.00    -0.077 S 
ATOM      7  C   UNL     1       4.353  -1.692   1.449  0.00  0.00    +0.086 A 
ATOM      8  C   UNL     1       2.286   1.098  -0.812  0.00  0.00    +0.043 C 
ATOM      9  C   UNL     1       1.402   2.060  -0.007  0.00  0.00    +0.005 C 
ATOM     10  C   UNL     1      -0.022   1.514   0.002  0.00  0.00    +0.001 C 
ATOM     11  C   UNL     1       0.001  -0.013  -0.006  0.00  0.00    +0.005 C 
ATOM     12  C   UNL     1       0.680  -0.543   1.251  0.00  0.00    +0.037 C 
BRANCH   3  13
ATOM     13  C   UNL     1       2.412  -2.533   2.750  0.00  0.00    +0.342 C 
ATOM     14  O   UNL     1       1.984  -3.625   2.427  0.00  0.00    -0.245 OA
BRANCH  13  15
ATOM     15  O   UNL     1       2.345  -2.136   4.038  0.00  0.00    -0.461 OA
BRANCH  15  17
ATOM     16  C   UNL     1       1.764  -2.445   6.382  0.00  0.00    +0.048 C 
ATOM     17  C   UNL     1       1.752  -3.065   4.983  0.00  0.00    +0.229 C 
ENDBRANCH  15  17
ENDBRANCH  13  15
ENDBRANCH   3  13
ENDBRANCH   1   7
BRANCH   1  18
ATOM     18  C   UNL     1       6.606  -2.403   1.588  0.00  0.00    +0.140 C 
ATOM     19  S   UNL     1       7.025  -1.270   0.375  0.00  0.00    -0.018 S 
BRANCH  18  20
ATOM     20  N   UNL     1       7.555  -3.193   2.128  0.00  0.00    -0.280 N 
ATOM     21  C   UNL     1       8.862  -3.164   1.623  0.00  0.00    +0.146 A 
ATOM     22  C   UNL     1       9.918  -4.000   2.019  0.00  0.00    +0.065 A 
ATOM     23  C   UNL     1      11.010  -3.660   1.297  0.00  0.00    +0.110 A 
ATOM     24  N   UNL     1      10.665  -2.643   0.480  0.00  0.00    -0.265 N 
ATOM     25  N   UNL     1       9.314  -2.348   0.700  0.00  0.00    -0.156 NA
ATOM     26  H   UNL     1       7.304  -3.861   2.965  0.00  0.00    +0.155 HD
BRANCH  24  27
ATOM     27  C   UNL     1      11.550  -1.966  -0.472  0.00  0.00    +0.178 C 
BRANCH  27  28
ATOM     28  C   UNL     1      10.937  -2.012  -1.848  0.00  0.00    -0.026 A 
ATOM     29  C   UNL     1      11.222  -3.066  -2.696  0.00  0.00    +0.007 A 
ATOM     30  C   UNL     1      10.656  -3.111  -3.956  0.00  0.00    +0.020 A 
ATOM     31  C   UNL     1       9.813  -2.096  -4.372  0.00  0.00    +0.041 A 
ATOM     32  C   UNL     1       9.533  -1.039  -3.525  0.00  0.00    +0.020 A 
ATOM     33  C   UNL     1      10.095  -0.997  -2.263  0.00  0.00    +0.007 A 
ATOM     34 CL   UNL     1       9.106  -2.150  -5.957  0.00  0.00    -0.084 Cl
ENDBRANCH  27  28
ENDBRANCH  24  27
ENDBRANCH  18  20
ENDBRANCH   1  18
TORSDOF 8
