REMARK  Name = ZINC52094315
REMARK  3 active torsions:
REMARK  status: ('A' for Active; 'I' for Inactive)
REMARK    1  A    between atoms: C_3  and  C_9
REMARK    2  A    between atoms: C_9  and  C_11
REMARK    3  A    between atoms: C_9  and  N_24
REMARK                            x       y       z     vdW  Elec       q    Type
REMARK                         _______ _______ _______ _____ _____    ______ ____
ROOT
ATOM      1  C   UNL     1       4.215   2.240  -1.426  0.00  0.00    -0.010 A 
ATOM      2  C   UNL     1       4.125   3.410  -2.155  0.00  0.00    +0.034 A 
ATOM      3  C   UNL     1       4.625   3.459  -3.447  0.00  0.00    +0.067 A 
ATOM      4  C   UNL     1       5.219   2.325  -4.006  0.00  0.00    +0.068 A 
ATOM      5  C   UNL     1       5.305   1.155  -3.268  0.00  0.00    +0.043 A 
ATOM      6  C   UNL     1       4.809   1.117  -1.978  0.00  0.00    +0.025 A 
ATOM      7 BR   UNL     1       4.933  -0.476  -0.967  0.00  0.00    -0.050 Br
ATOM      8  N   UNL     1       5.620   2.674  -5.294  0.00  0.00    -0.306 N 
ATOM      9  H   UNL     1       6.064   2.090  -5.928  0.00  0.00    +0.170 HD
ATOM     10  C   UNL     1       5.286   3.961  -5.508  0.00  0.00    +0.325 A 
ATOM     11  O   UNL     1       5.495   4.577  -6.536  0.00  0.00    -0.247 OA
ATOM     12  N   UNL     1       4.684   4.462  -4.412  0.00  0.00    -0.306 N 
ATOM     13  H   UNL     1       4.349   5.366  -4.312  0.00  0.00    +0.170 HD
ENDROOT
BRANCH   1  14
ATOM     14  C   UNL     1       3.671   2.187  -0.022  0.00  0.00    +0.116 C 
BRANCH  14  17
ATOM     15  C   UNL     1       0.257   1.158  -1.262  0.00  0.00    +0.016 A 
ATOM     16  C   UNL     1       1.551   1.643  -1.236  0.00  0.00    +0.009 A 
ATOM     17  C   UNL     1       2.260   1.659  -0.049  0.00  0.00    +0.009 A 
ATOM     18  C   UNL     1       1.673   1.190   1.114  0.00  0.00    +0.129 A 
ATOM     19  C   UNL     1       0.377   0.704   1.087  0.00  0.00    +0.054 A 
ATOM     20  C   UNL     1      -0.331   0.689  -0.101  0.00  0.00    +0.021 A 
ATOM     21 BR   UNL     1      -2.101   0.026  -0.138  0.00  0.00    -0.050 Br
ATOM     22  F   UNL     1       2.366   1.205   2.274  0.00  0.00    -0.205 F 
ENDBRANCH  14  17
BRANCH  14  23
ATOM     23  N   UNL     1       3.677   3.537   0.557  0.00  0.00    -0.320 NA
ATOM     24  H   UNL     1       4.619   3.888   0.646  0.00  0.00    +0.119 HD
ATOM     25  H   UNL     1       3.107   4.167   0.013  0.00  0.00    +0.119 HD
ENDBRANCH  14  23
ENDBRANCH   1  14
TORSDOF 3
