REMARK  Name = ZINC32074778
REMARK  5 active torsions:
REMARK  status: ('A' for Active; 'I' for Inactive)
REMARK    1  A    between atoms: C_1  and  C_2
REMARK    2  A    between atoms: C_2  and  C_29
REMARK    3  A    between atoms: C_6  and  C_22
REMARK    4  A    between atoms: C_10  and  N_21
REMARK    5  A    between atoms: C_11  and  C_13
REMARK                            x       y       z     vdW  Elec       q    Type
REMARK                         _______ _______ _______ _____ _____    ______ ____
ROOT
ATOM      1  C   UNL     1       4.340   0.413   2.248  0.00  0.00    +0.041 C 
ATOM      2  C   UNL     1       4.726   1.024   0.899  0.00  0.00    +0.068 C 
ATOM      3  C   UNL     1       3.664   2.038   0.471  0.00  0.00    +0.070 C 
ATOM      4  C   UNL     1       2.400   1.319   0.082  0.00  0.00    -0.023 A 
ATOM      5  C   UNL     1       2.391  -0.016  -0.192  0.00  0.00    +0.011 A 
ATOM      6  C   UNL     1       1.182  -0.630  -0.556  0.00  0.00    +0.115 A 
ATOM      7  N   UNL     1       0.052   0.060  -0.636  0.00  0.00    -0.209 NA
ATOM      8  C   UNL     1       0.013   1.358  -0.376  0.00  0.00    +0.231 A 
ATOM      9  C   UNL     1       1.195   2.027  -0.007  0.00  0.00    +0.065 A 
ATOM     10  C   UNL     1       0.818   3.427   0.208  0.00  0.00    +0.085 A 
ATOM     11  C   UNL     1      -0.538   3.491  -0.045  0.00  0.00    +0.213 A 
ATOM     12  O   UNL     1      -0.986   2.262  -0.391  0.00  0.00    -0.430 OA
ATOM     13  C   UNL     1       3.643  -0.847  -0.111  0.00  0.00    +0.198 C 
ATOM     14  O   UNL     1       4.796  -0.006  -0.094  0.00  0.00    -0.369 OA
ATOM     15  C   UNL     1       6.084   1.718   1.018  0.00  0.00    +0.041 C 
ENDROOT
BRANCH  11  16
ATOM     16  C   UNL     1      -1.333   4.658   0.040  0.00  0.00    +0.284 C 
ATOM     17  O   UNL     1      -0.804   5.745   0.194  0.00  0.00    -0.267 OA
ATOM     18  N   UNL     1      -2.675   4.568  -0.050  0.00  0.00    -0.295 N 
ATOM     19  C   UNL     1      -3.338   3.257  -0.059  0.00  0.00    +0.108 C 
ATOM     20  C   UNL     1      -4.407   3.243   1.044  0.00  0.00    +0.019 C 
ATOM     21  C   UNL     1      -5.355   4.428   0.843  0.00  0.00    +0.003 C 
ATOM     22  C   UNL     1      -4.569   5.736   0.951  0.00  0.00    +0.019 C 
ATOM     23  C   UNL     1      -3.502   5.779  -0.147  0.00  0.00    +0.108 C 
ENDBRANCH  11  16
BRANCH   6  24
ATOM     24  C   UNL     1       1.169  -2.074  -0.854  0.00  0.00    +0.153 A 
ATOM     25  C   UNL     1       0.155  -2.939  -0.573  0.00  0.00    +0.051 A 
ATOM     26  C   UNL     1       0.566  -4.206  -1.028  0.00  0.00    +0.042 A 
ATOM     27  C   UNL     1       1.796  -4.056  -1.560  0.00  0.00    +0.196 A 
ATOM     28  O   UNL     1       2.154  -2.767  -1.458  0.00  0.00    -0.461 OA
ENDBRANCH   6  24
BRANCH  10  29
ATOM     29  N   UNL     1       1.649   4.470   0.585  0.00  0.00    -0.354 N 
ATOM     30  H   UNL     1       1.238   5.482   0.714  0.00  0.00    +0.142 HD
ATOM     31  H   UNL     1       2.720   4.285   0.757  0.00  0.00    +0.142 HD
ENDBRANCH  10  29
TORSDOF 3
