REMARK  Name = ZINC39840972
REMARK  11 active torsions:
REMARK  status: ('A' for Active; 'I' for Inactive)
REMARK    1  A    between atoms: C_1  and  C_2
REMARK    2  A    between atoms: C_2  and  C_3
REMARK    3  A    between atoms: C_3  and  C_4
REMARK    4  A    between atoms: C_4  and  C_5
REMARK    5  A    between atoms: C_5  and  N_6
REMARK    6  A    between atoms: C_7  and  N_8
REMARK    7  A    between atoms: C_9  and  C_22
REMARK    8  A    between atoms: N_24  and  C_25
REMARK    9  A    between atoms: C_26  and  C_34
REMARK   10  A    between atoms: C_34  and  O_36
REMARK   11  A    between atoms: O_36  and  C_37
REMARK                            x       y       z     vdW  Elec       q    Type
REMARK                         _______ _______ _______ _____ _____    ______ ____
ROOT
ATOM      1  N   UNL     1      -2.843  -4.059   0.105  0.00  0.00    -0.313 N 
ATOM      2  C   UNL     1      -2.848  -4.612  -1.092  0.00  0.00    +0.110 A 
ATOM      3  C   UNL     1      -2.814  -6.016  -1.253  0.00  0.00    +0.076 A 
ATOM      4  C   UNL     1      -2.776  -6.831  -0.119  0.00  0.00    +0.033 A 
ATOM      5  C   UNL     1      -2.772  -6.214   1.130  0.00  0.00    +0.083 A 
ATOM      6  C   UNL     1      -2.801  -4.796   1.217  0.00  0.00    +0.150 A 
ATOM      7  N   UNL     1      -2.792  -4.223   2.425  0.00  0.00    -0.211 NA
ATOM      8  C   UNL     1      -2.751  -4.935   3.545  0.00  0.00    +0.143 A 
ATOM      9  C   UNL     1      -2.744  -4.249   4.779  0.00  0.00    +0.047 A 
ATOM     10  C   UNL     1      -2.703  -4.954   5.941  0.00  0.00    +0.005 A 
ATOM     11  C   UNL     1      -2.668  -6.357   5.901  0.00  0.00    +0.018 A 
ATOM     12  C   UNL     1      -2.674  -7.000   4.714  0.00  0.00    +0.096 A 
ATOM     13  N   UNL     1      -2.716  -6.304   3.541  0.00  0.00    -0.268 N 
ATOM     14  C   UNL     1      -2.732  -6.987   2.372  0.00  0.00    +0.268 A 
ATOM     15  O   UNL     1      -2.702  -8.203   2.355  0.00  0.00    -0.267 OA
ENDROOT
BRANCH   3  16
ATOM     16  C   UNL     1      -2.821  -6.612  -2.598  0.00  0.00    +0.252 C 
ATOM     17  O   UNL     1      -2.746  -5.898  -3.579  0.00  0.00    -0.270 OA
ATOM     18  N   UNL     1      -2.910  -7.949  -2.742  0.00  0.00    -0.275 N 
ATOM     19  H   UNL     1      -2.970  -8.518  -1.959  0.00  0.00    +0.156 HD
BRANCH  18  20
ATOM     20  C   UNL     1      -2.916  -8.510  -4.008  0.00  0.00    +0.087 A 
ATOM     21  C   UNL     1      -3.007  -9.852  -4.346  0.00  0.00    +0.091 A 
ATOM     22  C   UNL     1      -2.992 -10.183  -5.761  0.00  0.00    -0.021 A 
ATOM     23  C   UNL     1      -2.890  -9.112  -6.577  0.00  0.00    -0.004 A 
ATOM     24  S   UNL     1      -2.824  -7.721  -5.487  0.00  0.00    -0.077 S 
ATOM     25  C   UNL     1      -2.848  -9.123  -8.074  0.00  0.00    +0.043 C 
ATOM     26  C   UNL     1      -2.558 -10.558  -8.538  0.00  0.00    +0.005 C 
ATOM     27  C   UNL     1      -3.489 -11.518  -7.791  0.00  0.00    +0.005 C 
ATOM     28  C   UNL     1      -3.083 -11.596  -6.317  0.00  0.00    +0.037 C 
BRANCH  21  29
ATOM     29  C   UNL     1      -3.112 -10.892  -3.321  0.00  0.00    +0.342 C 
ATOM     30  O   UNL     1      -4.205 -11.246  -2.923  0.00  0.00    -0.245 OA
BRANCH  29  31
ATOM     31  O   UNL     1      -1.995 -11.457  -2.816  0.00  0.00    -0.464 OA
ATOM     32  C   UNL     1      -2.172 -12.465  -1.819  0.00  0.00    +0.280 C 
ENDBRANCH  29  31
ENDBRANCH  21  29
ENDBRANCH  18  20
ENDBRANCH   3  16
BRANCH   2  33
ATOM     33  N   UNL     1      -2.886  -3.805  -2.210  0.00  0.00    -0.344 N 
ATOM     34  H   UNL     1      -2.988  -2.846  -2.112  0.00  0.00    +0.144 HD
ATOM     35  H   UNL     1      -2.811  -4.198  -3.094  0.00  0.00    +0.144 HD
ENDBRANCH   2  33
BRANCH   1  36
ATOM     36  C   UNL     1      -2.877  -2.598   0.217  0.00  0.00    +0.125 C 
BRANCH  36  37
ATOM     37  C   UNL     1      -1.447  -2.054   0.227  0.00  0.00    +0.022 C 
BRANCH  37  38
ATOM     38  C   UNL     1      -1.484  -0.528   0.344  0.00  0.00    +0.001 C 
BRANCH  38  40
ATOM     39  C   UNL     1      -0.090   1.542   0.470  0.00  0.00    +0.004 C 
ATOM     40  C   UNL     1      -0.054   0.016   0.353  0.00  0.00    -0.003 C 
ENDBRANCH  38  40
ENDBRANCH  37  38
ENDBRANCH  36  37
ENDBRANCH   1  36
TORSDOF 9
