REMARK  Name = ZINC63686675
REMARK  11 active torsions:
REMARK  status: ('A' for Active; 'I' for Inactive)
REMARK    1  A    between atoms: C_1  and  C_2
REMARK    2  A    between atoms: C_4  and  O_10
REMARK    3  A    between atoms: C_6  and  C_9
REMARK    4  A    between atoms: O_10  and  C_11
REMARK    5  A    between atoms: C_11  and  C_12
REMARK    6  A    between atoms: C_16  and  S_20
REMARK    7  A    between atoms: N_18  and  C_19
REMARK    8  A    between atoms: S_20  and  C_21
REMARK    9  A    between atoms: C_21  and  C_22
REMARK   10  A    between atoms: C_29  and  O_30
REMARK   11  A    between atoms: O_30  and  C_31
REMARK                            x       y       z     vdW  Elec       q    Type
REMARK                         _______ _______ _______ _____ _____    ______ ____
ROOT
ATOM      1  C   UNL     1       0.034  -4.744  -3.746  0.00  0.00    +0.178 C 
ATOM      2  N   UNL     1      -1.189  -4.344  -4.490  0.00  0.00    -0.234 NA
ATOM      3  N   UNL     1      -0.773  -4.453  -5.897  0.00  0.00    -0.229 NA
ATOM      4  C   UNL     1       0.629  -3.977  -5.906  0.00  0.00    +0.200 C 
ATOM      5  N   UNL     1       1.147  -4.166  -4.534  0.00  0.00    -0.261 NA
ATOM      6  C   UNL     1       1.591  -2.889  -3.959  0.00  0.00    +0.109 C 
ATOM      7  H   UNL     1      -1.955  -4.970  -4.289  0.00  0.00    +0.142 HD
ATOM      8  H   UNL     1      -1.354  -3.881  -6.491  0.00  0.00    +0.143 HD
ENDROOT
BRANCH   1   9
ATOM      9  C   UNL     1       0.017  -4.159  -2.333  0.00  0.00    +0.265 C 
BRANCH   9  10
ATOM     10  O   UNL     1      -0.982  -4.820  -1.555  0.00  0.00    -0.489 OA
BRANCH  10  14
ATOM     11  C   UNL     1      -3.261  -5.255   2.739  0.00  0.00    +0.045 C 
ATOM     12  C   UNL     1      -2.227  -4.604   1.857  0.00  0.00    -0.028 A 
ATOM     13  C   UNL     1      -2.080  -5.016   0.546  0.00  0.00    +0.050 A 
ATOM     14  C   UNL     1      -1.129  -4.416  -0.266  0.00  0.00    +0.121 A 
ATOM     15  C   UNL     1      -0.326  -3.404   0.240  0.00  0.00    +0.050 A 
ATOM     16  C   UNL     1      -0.476  -2.995   1.551  0.00  0.00    -0.028 A 
ATOM     17  C   UNL     1      -1.430  -3.590   2.358  0.00  0.00    +0.047 A 
ATOM     18 CL   UNL     1      -1.621  -3.070   4.003  0.00  0.00    -0.083 Cl
ATOM     19  C   UNL     1       0.395  -1.895   2.101  0.00  0.00    +0.045 C 
ENDBRANCH  10  14
ENDBRANCH   9  10
ENDBRANCH   1   9
BRANCH   4  20
ATOM     20  S   UNL     1       1.609  -4.953  -7.080  0.00  0.00    -0.119 S 
BRANCH  20  21
ATOM     21  C   UNL     1       1.440  -6.657  -6.481  0.00  0.00    +0.125 C 
BRANCH  21  22
ATOM     22  C   UNL     1       2.218  -7.585  -7.380  0.00  0.00    +0.030 A 
ATOM     23  N   UNL     1       1.715  -7.881  -8.602  0.00  0.00    -0.354 N 
ATOM     24  C   UNL     1       2.376  -8.722  -9.470  0.00  0.00    +0.093 A 
ATOM     25  C   UNL     1       3.603  -9.289  -9.086  0.00  0.00    +0.049 A 
ATOM     26  C   UNL     1       4.282 -10.143  -9.956  0.00  0.00    +0.014 A 
ATOM     27  C   UNL     1       3.750 -10.425 -11.183  0.00  0.00    +0.004 A 
ATOM     28  C   UNL     1       2.539  -9.870 -11.573  0.00  0.00    +0.048 A 
ATOM     29  C   UNL     1       1.849  -9.021 -10.728  0.00  0.00    +0.144 A 
ATOM     30  C   UNL     1       4.142  -8.960  -7.755  0.00  0.00    +0.190 A 
ATOM     31  O   UNL     1       5.203  -9.425  -7.371  0.00  0.00    -0.287 OA
ATOM     32  C   UNL     1       3.391  -8.084  -6.937  0.00  0.00    +0.073 A 
ATOM     33  H   UNL     1       0.868  -7.492  -8.872  0.00  0.00    +0.166 HD
BRANCH  29  34
ATOM     34  O   UNL     1       0.664  -8.483 -11.119  0.00  0.00    -0.493 OA
ATOM     35  C   UNL     1       0.188  -8.835 -12.419  0.00  0.00    +0.277 C 
ENDBRANCH  29  34
ENDBRANCH  21  22
ENDBRANCH  20  21
ENDBRANCH   4  20
TORSDOF 7
