REMARK  Name = ZINC39671066
REMARK  6 active torsions:
REMARK  status: ('A' for Active; 'I' for Inactive)
REMARK    1  A    between atoms: C_3  and  C_6
REMARK    2  A    between atoms: C_6  and  C_7
REMARK    3  A    between atoms: C_7  and  N_8
REMARK    4  A    between atoms: C_9  and  C_11
REMARK    5  A    between atoms: C_22  and  C_24
REMARK    6  A    between atoms: C_27  and  C_29
REMARK                            x       y       z     vdW  Elec       q    Type
REMARK                         _______ _______ _______ _____ _____    ______ ____
ROOT
ATOM      1  C   UNL     1       7.779   0.515   2.539  0.00  0.00    +0.100 C 
ATOM      2  C   UNL     1       8.280  -0.837   1.983  0.00  0.00    +0.121 C 
ATOM      3  N   UNL     1       9.480  -1.153   2.794  0.00  0.00    -0.294 N 
ATOM      4  C   UNL     1       9.118  -0.729   4.168  0.00  0.00    +0.115 C 
ATOM      5  C   UNL     1       8.331   0.582   3.973  0.00  0.00    -0.004 C 
ATOM      6  C   UNL     1       9.259   1.783   4.127  0.00  0.00    -0.010 C 
ATOM      7  C   UNL     1       9.749   1.860   5.575  0.00  0.00    -0.082 C 
ATOM      8  N   UNL     1       8.598   1.987   6.478  0.00  0.00    +0.379 N 
ATOM      9  C   UNL     1       7.759   0.786   6.391  0.00  0.00    -0.082 C 
ATOM     10  C   UNL     1       7.185   0.662   4.977  0.00  0.00    -0.010 C 
ATOM     11  C   UNL     1      10.637  -1.703   2.377  0.00  0.00    +0.282 C 
ATOM     12  O   UNL     1      11.537  -1.903   3.172  0.00  0.00    -0.267 OA
ATOM     13  H   UNL     1       8.926   2.099   7.425  0.00  0.00    -0.086 HD
ATOM     14  H   UNL     1       8.054   2.795   6.215  0.00  0.00    -0.086 HD
ENDROOT
BRANCH  11  15
ATOM     15  C   UNL     1      10.813  -2.059   0.967  0.00  0.00    +0.190 A 
ATOM     16  C   UNL     1      11.937  -2.629   0.411  0.00  0.00    +0.055 A 
ATOM     17  C   UNL     1      11.672  -2.796  -0.952  0.00  0.00    +0.050 A 
ATOM     18  C   UNL     1      10.409  -2.328  -1.176  0.00  0.00    +0.136 A 
ATOM     19  O   UNL     1       9.899  -1.891  -0.013  0.00  0.00    -0.450 OA
BRANCH  18  20
ATOM     20  C   UNL     1       9.717  -2.309  -2.481  0.00  0.00    +0.017 A 
ATOM     21  C   UNL     1      10.355  -2.804  -3.620  0.00  0.00    +0.014 A 
ATOM     22  C   UNL     1       9.703  -2.785  -4.835  0.00  0.00    +0.039 A 
ATOM     23  C   UNL     1       8.418  -2.274  -4.927  0.00  0.00    +0.123 A 
ATOM     24  C   UNL     1       7.780  -1.780  -3.799  0.00  0.00    +0.039 A 
ATOM     25  C   UNL     1       8.420  -1.800  -2.578  0.00  0.00    +0.014 A 
ATOM     26  F   UNL     1       7.784  -2.257  -6.120  0.00  0.00    -0.205 F 
ENDBRANCH  18  20
ENDBRANCH  11  15
BRANCH   1  28
ATOM     27  N   UNL     1       5.625   1.726   2.435  0.00  0.00    -0.315 N 
ATOM     28  C   UNL     1       6.273   0.550   2.554  0.00  0.00    +0.218 C 
ATOM     29  O   UNL     1       5.643  -0.480   2.673  0.00  0.00    -0.275 OA
ATOM     30  H   UNL     1       6.128   2.550   2.339  0.00  0.00    +0.149 HD
BRANCH  27  31
ATOM     31  C   UNL     1       4.160   1.760   2.449  0.00  0.00    +0.112 C 
BRANCH  31  32
ATOM     32  C   UNL     1       3.682   3.205   2.299  0.00  0.00    +0.093 C 
BRANCH  32  35
ATOM     33  C   UNL     1       0.060   3.358   2.963  0.00  0.00    +0.041 A 
ATOM     34  C   UNL     1       1.403   3.376   3.406  0.00  0.00    +0.044 A 
ATOM     35  C   UNL     1       2.175   3.240   2.314  0.00  0.00    +0.106 A 
ATOM     36  O   UNL     1       1.377   3.142   1.239  0.00  0.00    -0.468 OA
ATOM     37  C   UNL     1       0.093   3.212   1.627  0.00  0.00    +0.195 A 
ENDBRANCH  32  35
ENDBRANCH  31  32
ENDBRANCH  27  31
ENDBRANCH   1  28
TORSDOF 6
