REMARK  Name = ZINC06195653
REMARK  10 active torsions:
REMARK  status: ('A' for Active; 'I' for Inactive)
REMARK    1  A    between atoms: C_1  and  C_2
REMARK    2  A    between atoms: C_5  and  C_41
REMARK    3  A    between atoms: C_6  and  N_8
REMARK    4  A    between atoms: C_13  and  C_15
REMARK    5  A    between atoms: C_13  and  C_29
REMARK    6  A    between atoms: C_13  and  N_75
REMARK    7  A    between atoms: C_18  and  C_28
REMARK    8  A    between atoms: C_21  and  C_27
REMARK    9  A    between atoms: N_33  and  C_34
REMARK   10  A    between atoms: C_34  and  C_35
REMARK                            x       y       z     vdW  Elec       q    Type
REMARK                         _______ _______ _______ _____ _____    ______ ____
ROOT
ATOM      1  C   UNL     1       4.436   6.697   0.322  0.00  0.00    +0.039 C 
ENDROOT
BRANCH   1   2
ATOM      2  C   UNL     1       4.617   7.291   1.695  0.00  0.00    +0.011 A 
ATOM      3  C   UNL     1       5.783   7.106   2.363  0.00  0.00    +0.018 A 
ATOM      4  C   UNL     1       5.929   7.699   3.693  0.00  0.00    +0.002 A 
ATOM      5  C   UNL     1       7.109   7.546   4.428  0.00  0.00    -0.041 A 
ATOM      6  C   UNL     1       7.213   8.109   5.668  0.00  0.00    +0.004 A 
ATOM      7  C   UNL     1       6.156   8.831   6.207  0.00  0.00    +0.005 A 
ATOM      8  C   UNL     1       4.984   8.994   5.501  0.00  0.00    -0.026 A 
ATOM      9  C   UNL     1       4.856   8.430   4.236  0.00  0.00    +0.052 A 
ATOM     10  N   UNL     1       3.695   8.578   3.507  0.00  0.00    -0.322 N 
ATOM     11  H   UNL     1       2.956   9.082   3.883  0.00  0.00    +0.169 HD
ATOM     12  C   UNL     1       3.571   8.033   2.284  0.00  0.00    +0.251 A 
ATOM     13  O   UNL     1       2.530   8.184   1.669  0.00  0.00    -0.268 OA
ATOM     14  C   UNL     1       3.845   9.780   6.098  0.00  0.00    +0.046 C 
ATOM     15  C   UNL     1       8.262   6.763   3.854  0.00  0.00    +0.044 C 
ENDBRANCH   1   2
BRANCH   1  21
ATOM     16  N   UNL     1       2.009   3.243   0.155  0.00  0.00    -0.333 N 
ATOM     17  C   UNL     1       2.154   3.921   1.451  0.00  0.00    +0.086 C 
ATOM     18  C   UNL     1       3.404   4.803   1.425  0.00  0.00    -0.058 C 
ATOM     19  C   UNL     1       3.142   5.103  -0.963  0.00  0.00    -0.058 C 
ATOM     20  C   UNL     1       1.892   4.220  -0.936  0.00  0.00    +0.086 C 
ATOM     21  N   UNL     1       3.264   5.795   0.338  0.00  0.00    +0.391 N 
ATOM     22  H   UNL     1       2.417   6.351   0.501  0.00  0.00    -0.080 HD
BRANCH  16  28
ATOM     23  C   UNL     1      -2.843   2.545   0.517  0.00  0.00    +0.044 C 
ATOM     24  C   UNL     1      -1.447   2.006   0.339  0.00  0.00    -0.049 A 
ATOM     25  C   UNL     1      -1.246   0.646   0.181  0.00  0.00    +0.004 A 
ATOM     26  C   UNL     1       0.034   0.147   0.024  0.00  0.00    +0.005 A 
ATOM     27  C   UNL     1       1.115   1.006   0.013  0.00  0.00    -0.029 A 
ATOM     28  C   UNL     1       0.917   2.372   0.166  0.00  0.00    +0.033 A 
ATOM     29  C   UNL     1      -0.370   2.870   0.329  0.00  0.00    +0.026 A 
ATOM     30  C   UNL     1       2.509   0.461  -0.166  0.00  0.00    +0.045 C 
ENDBRANCH  16  28
ENDBRANCH   1  21
BRANCH   1  31
ATOM     31  C   UNL     1       5.679   5.939  -0.066  0.00  0.00    +0.143 A 
ATOM     32  N   UNL     1       6.101   4.810   0.450  0.00  0.00    -0.115 NA
ATOM     33  N   UNL     1       7.195   4.484  -0.147  0.00  0.00    -0.023 NA
ATOM     34  N   UNL     1       7.486   5.380  -1.025  0.00  0.00    -0.044 NA
ATOM     35  N   UNL     1       6.576   6.294  -1.005  0.00  0.00    -0.226 N 
BRANCH  35  36
ATOM     36  C   UNL     1       6.527   7.492  -1.847  0.00  0.00    +0.182 C 
BRANCH  36  37
ATOM     37  C   UNL     1       7.373   8.575  -1.228  0.00  0.00    -0.026 A 
ATOM     38  C   UNL     1       6.806   9.476  -0.346  0.00  0.00    +0.005 A 
ATOM     39  C   UNL     1       7.583  10.466   0.225  0.00  0.00    +0.000 A 
ATOM     40  C   UNL     1       8.925  10.562  -0.094  0.00  0.00    +0.000 A 
ATOM     41  C   UNL     1       9.490   9.664  -0.979  0.00  0.00    +0.000 A 
ATOM     42  C   UNL     1       8.715   8.671  -1.546  0.00  0.00    +0.005 A 
ENDBRANCH  36  37
ENDBRANCH  35  36
ENDBRANCH   1  31
TORSDOF 6
