REMARK  Name = ZINC29392838
REMARK  11 active torsions:
REMARK  status: ('A' for Active; 'I' for Inactive)
REMARK    1  A    between atoms: C_1  and  C_2
REMARK    2  A    between atoms: C_2  and  C_3
REMARK    3  A    between atoms: C_2  and  C_4
REMARK    4  A    between atoms: C_2  and  O_5
REMARK    5  A    between atoms: O_5  and  C_6
REMARK    6  A    between atoms: N_8  and  C_9
REMARK    7  A    between atoms: N_13  and  C_15
REMARK    8  A    between atoms: C_15  and  C_16
REMARK    9  A    between atoms: N_18  and  C_19
REMARK   10  A    between atoms: C_29  and  C_31
REMARK   11  A    between atoms: C_31  and  C_32
REMARK                            x       y       z     vdW  Elec       q    Type
REMARK                         _______ _______ _______ _____ _____    ______ ____
ROOT
ATOM      1  C   UNL     1      -0.482   0.614   2.269  0.00  0.00    +0.197 C 
ATOM      2  O   UNL     1       0.191  -0.394   2.222  0.00  0.00    -0.278 OA
ATOM      3  N   UNL     1      -0.629   1.379   1.170  0.00  0.00    -0.313 N 
ATOM      4  H   UNL     1      -1.238   2.294   1.213  0.00  0.00    +0.149 HD
ENDROOT
BRANCH   3   5
ATOM      5  C   UNL     1       0.024   0.993  -0.084  0.00  0.00    +0.081 C 
ATOM      6  C   UNL     1       1.462   1.525  -0.102  0.00  0.00    +0.027 C 
ATOM      7  C   UNL     1       1.432   3.007   0.263  0.00  0.00    +0.037 C 
ATOM      8  C   UNL     1       0.431   3.743  -0.588  0.00  0.00    -0.041 A 
ATOM      9  C   UNL     1       0.534   5.126  -0.658  0.00  0.00    +0.042 A 
ATOM     10  C   UNL     1      -0.357   5.859  -1.418  0.00  0.00    +0.124 A 
ATOM     11  C   UNL     1      -1.363   5.209  -2.114  0.00  0.00    +0.038 A 
ATOM     12  C   UNL     1      -1.464   3.836  -2.045  0.00  0.00    +0.007 A 
ATOM     13  C   UNL     1      -0.567   3.098  -1.284  0.00  0.00    -0.039 A 
ATOM     14  C   UNL     1      -0.729   1.600  -1.265  0.00  0.00    +0.044 C 
ATOM     15  F   UNL     1      -0.249   7.204  -1.481  0.00  0.00    -0.205 F 
BRANCH  14  16
ATOM     16  C   UNL     1      -2.215   1.255  -1.147  0.00  0.00    +0.046 C 
BRANCH  16  17
ATOM     17  C   UNL     1      -2.399  -0.233  -1.294  0.00  0.00    -0.029 A 
ATOM     18  C   UNL     1      -2.491  -0.809  -2.552  0.00  0.00    +0.006 A 
ATOM     19  C   UNL     1      -2.655  -2.183  -2.639  0.00  0.00    +0.020 A 
ATOM     20  C   UNL     1      -2.730  -2.927  -1.476  0.00  0.00    +0.111 A 
ATOM     21  N   UNL     1      -2.644  -2.345  -0.296  0.00  0.00    -0.263 NA
ATOM     22  C   UNL     1      -2.483  -1.041  -0.176  0.00  0.00    +0.114 A 
ENDBRANCH  16  17
ENDBRANCH  14  16
ENDBRANCH   3   5
BRANCH   1  23
ATOM     23  C   UNL     1      -1.153   1.012   3.559  0.00  0.00    +0.019 C 
BRANCH  23  27
ATOM     24  C   UNL     1      -2.236  -0.571   6.497  0.00  0.00    +0.058 C 
ATOM     25  C   UNL     1      -1.845  -1.851   5.712  0.00  0.00    +0.002 C 
ATOM     26  C   UNL     1      -1.503  -1.270   4.317  0.00  0.00    -0.076 C 
ATOM     27  N   UNL     1      -0.841   0.022   4.599  0.00  0.00    +0.387 N 
ATOM     28  C   UNL     1      -1.278   0.494   5.926  0.00  0.00    -0.056 C 
ATOM     29  H   UNL     1       0.251  -0.110   4.595  0.00  0.00    -0.081 HD
BRANCH  24  32
ATOM     30  C   UNL     1      -3.002  -1.219   8.717  0.00  0.00    +0.401 C 
ATOM     31  O   UNL     1      -4.085  -1.485   8.234  0.00  0.00    -0.226 OA
ATOM     32  N   UNL     1      -2.010  -0.755   7.933  0.00  0.00    -0.280 N 
ATOM     33  H   UNL     1      -1.030  -0.515   8.370  0.00  0.00    +0.152 HD
BRANCH  30  34
ATOM     34  O   UNL     1      -2.794  -1.389  10.037  0.00  0.00    -0.445 OA
BRANCH  34  36
ATOM     35  C   UNL     1      -4.325  -3.265  10.291  0.00  0.00    +0.055 C 
ATOM     36  C   UNL     1      -3.908  -1.892  10.821  0.00  0.00    +0.107 C 
ATOM     37  C   UNL     1      -3.485  -2.017  12.286  0.00  0.00    +0.055 C 
ATOM     38  C   UNL     1      -5.087  -0.923  10.712  0.00  0.00    +0.055 C 
ENDBRANCH  34  36
ENDBRANCH  30  34
ENDBRANCH  24  32
ENDBRANCH  23  27
ENDBRANCH   1  23
TORSDOF 8
