REMARK  Name = ZINC49741686
REMARK  8 active torsions:
REMARK  status: ('A' for Active; 'I' for Inactive)
REMARK    1  A    between atoms: C_1  and  N_2
REMARK    2  A    between atoms: C_8  and  S_9
REMARK    3  A    between atoms: S_9  and  C_10
REMARK    4  A    between atoms: C_10  and  C_11
REMARK    5  A    between atoms: C_18  and  C_24
REMARK    6  A    between atoms: C_27  and  O_32
REMARK    7  A    between atoms: C_28  and  O_30
REMARK    8  A    between atoms: O_30  and  C_31
REMARK                            x       y       z     vdW  Elec       q    Type
REMARK                         _______ _______ _______ _____ _____    ______ ____
ROOT
ATOM      1  C   UNL     1      -0.018   1.461   0.010  0.00  0.00    +0.152 C 
ATOM      2  N   UNL     1       0.002  -0.004   0.002  0.00  0.00    -0.311 N 
ATOM      3  C   UNL     1      -1.175  -0.704   0.004  0.00  0.00    +0.116 A 
ATOM      4  C   UNL     1      -1.137  -2.064  -0.004  0.00  0.00    +0.065 A 
ATOM      5  C   UNL     1       0.114  -2.716  -0.013  0.00  0.00    +0.279 A 
ATOM      6  O   UNL     1       0.172  -3.937  -0.019  0.00  0.00    -0.265 OA
ATOM      7  N   UNL     1       1.240  -1.984  -0.014  0.00  0.00    -0.185 NA
ATOM      8  C   UNL     1       1.192  -0.668  -0.013  0.00  0.00    +0.174 A 
ATOM      9  C   UNL     1      -2.413  -2.861  -0.003  0.00  0.00    +0.066 C 
ATOM     10  C   UNL     1      -3.479  -2.116   0.804  0.00  0.00    +0.109 C 
ATOM     11  C   UNL     1      -3.513  -0.671   0.381  0.00  0.00    +0.219 C 
ATOM     12  O   UNL     1      -4.567  -0.072   0.373  0.00  0.00    -0.275 OA
ATOM     13  N   UNL     1      -2.383  -0.039   0.013  0.00  0.00    -0.271 N 
ATOM     14  H   UNL     1      -2.419   0.894  -0.249  0.00  0.00    +0.156 HD
ENDROOT
BRANCH   9  15
ATOM     15  C   UNL     1      -2.892  -3.044  -1.420  0.00  0.00    -0.036 A 
ATOM     16  C   UNL     1      -3.182  -1.939  -2.198  0.00  0.00    +0.008 A 
ATOM     17  C   UNL     1      -3.622  -2.101  -3.498  0.00  0.00    +0.049 A 
ATOM     18  C   UNL     1      -3.772  -3.374  -4.025  0.00  0.00    +0.158 A 
ATOM     19  C   UNL     1      -3.479  -4.487  -3.242  0.00  0.00    +0.162 A 
ATOM     20  C   UNL     1      -3.035  -4.317  -1.941  0.00  0.00    +0.053 A 
BRANCH  19  21
ATOM     21  O   UNL     1      -3.625  -5.738  -3.755  0.00  0.00    -0.491 OA
ATOM     22  C   UNL     1      -3.306  -6.833  -2.893  0.00  0.00    +0.277 C 
ENDBRANCH  19  21
BRANCH  18  23
ATOM     23  O   UNL     1      -4.205  -3.536  -5.304  0.00  0.00    -0.503 OA
ATOM     24  H   UNL     1      -3.494  -3.563  -5.959  0.00  0.00    +0.292 HD
ENDBRANCH  18  23
ENDBRANCH   9  15
BRANCH   8  25
ATOM     25  S   UNL     1       2.695   0.251  -0.023  0.00  0.00    -0.083 S 
BRANCH  25  26
ATOM     26  C   UNL     1       3.987  -1.021  -0.042  0.00  0.00    +0.112 C 
BRANCH  26  27
ATOM     27  C   UNL     1       5.342  -0.361  -0.052  0.00  0.00    -0.037 A 
ATOM     28  C   UNL     1       5.949  -0.047  -1.254  0.00  0.00    +0.007 A 
ATOM     29  C   UNL     1       7.191   0.559  -1.264  0.00  0.00    +0.038 A 
ATOM     30  C   UNL     1       7.827   0.852  -0.070  0.00  0.00    +0.123 A 
ATOM     31  C   UNL     1       7.219   0.537   1.134  0.00  0.00    +0.038 A 
ATOM     32  C   UNL     1       5.974  -0.064   1.141  0.00  0.00    +0.007 A 
ATOM     33  F   UNL     1       9.042   1.444  -0.078  0.00  0.00    -0.205 F 
ENDBRANCH  26  27
ENDBRANCH  25  26
ENDBRANCH   8  25
TORSDOF 6
