REMARK  Name = ZINC01511576
REMARK  8 active torsions:
REMARK  status: ('A' for Active; 'I' for Inactive)
REMARK    1  A    between atoms: C_1  and  C_2
REMARK    2  A    between atoms: C_2  and  C_26
REMARK    3  A    between atoms: C_6  and  C_10
REMARK    4  A    between atoms: C_10  and  C_12
REMARK    5  A    between atoms: C_10  and  C_19
REMARK    6  A    between atoms: C_19  and  C_21
REMARK    7  A    between atoms: C_19  and  C_23
REMARK    8  A    between atoms: C_23  and  N_25
REMARK                            x       y       z     vdW  Elec       q    Type
REMARK                         _______ _______ _______ _____ _____    ______ ____
ROOT
ATOM      1  C   UNL     1       1.202  -2.132  -0.049  0.00  0.00    +0.067 C 
ENDROOT
BRANCH   1   7
ATOM      2  C   UNL     1       1.964  -4.192  -4.314  0.00  0.00    +0.104 C 
ATOM      3  C   UNL     1       0.942  -4.165  -3.176  0.00  0.00    +0.254 C 
ATOM      4  O   UNL     1       1.577  -4.596  -1.939  0.00  0.00    -0.422 OA
ATOM      5  C   UNL     1       2.503  -3.749  -1.434  0.00  0.00    +0.325 C 
ATOM      6  O   UNL     1       3.605  -4.133  -1.121  0.00  0.00    -0.250 OA
ATOM      7  C   UNL     1       2.098  -2.295  -1.278  0.00  0.00    +0.215 C 
ATOM      8  C   UNL     1       1.333  -1.909  -2.531  0.00  0.00    +0.325 C 
ATOM      9  O   UNL     1       1.516  -0.848  -3.079  0.00  0.00    -0.250 OA
ATOM     10  O   UNL     1       0.439  -2.808  -3.006  0.00  0.00    -0.422 OA
ATOM     11  C   UNL     1      -0.219  -5.104  -3.509  0.00  0.00    +0.104 C 
ENDBRANCH   1   7
BRANCH   1  12
ATOM     12  C   UNL     1       0.777  -0.692   0.075  0.00  0.00    -0.041 A 
ATOM     13  C   UNL     1      -0.565  -0.362   0.043  0.00  0.00    +0.005 A 
ATOM     14  C   UNL     1      -0.956   0.959   0.157  0.00  0.00    +0.015 A 
ATOM     15  C   UNL     1      -0.003   1.951   0.303  0.00  0.00    +0.018 A 
ATOM     16  C   UNL     1       1.339   1.621   0.335  0.00  0.00    +0.015 A 
ATOM     17  C   UNL     1       1.729   0.300   0.221  0.00  0.00    +0.005 A 
ATOM     18 BR   UNL     1      -0.537   3.759   0.460  0.00  0.00    -0.050 Br
ENDBRANCH   1  12
BRANCH   1  19
ATOM     19  C   UNL     1       1.976  -2.545   1.204  0.00  0.00    +0.151 C 
BRANCH  19  20
ATOM     20  C   UNL     1       3.227  -1.774   1.285  0.00  0.00    +0.073 C 
ATOM     21  N   UNL     1       4.192  -1.178   1.347  0.00  0.00    -0.196 NA
ENDBRANCH  19  20
BRANCH  19  22
ATOM     22  C   UNL     1       1.137  -2.271   2.426  0.00  0.00    +0.064 C 
ATOM     23  S   UNL     1       1.459  -1.006   3.349  0.00  0.00    -0.039 S 
BRANCH  22  24
ATOM     24  N   UNL     1       0.116  -3.093   2.740  0.00  0.00    -0.354 N 
ATOM     25  H   UNL     1      -0.125  -3.818   2.143  0.00  0.00    +0.143 HD
ATOM     26  H   UNL     1      -0.378  -2.959   3.564  0.00  0.00    +0.143 HD
ENDBRANCH  22  24
ENDBRANCH  19  22
ENDBRANCH   1  19
TORSDOF 6
