REMARK  Name = ZINC20714904
REMARK  7 active torsions:
REMARK  status: ('A' for Active; 'I' for Inactive)
REMARK    1  A    between atoms: C_1  and  C_2
REMARK    2  A    between atoms: C_2  and  C_3
REMARK    3  A    between atoms: C_2  and  C_4
REMARK    4  A    between atoms: C_4  and  C_5
REMARK    5  A    between atoms: C_5  and  C_7
REMARK    6  A    between atoms: C_5  and  N_16
REMARK    7  A    between atoms: C_17  and  C_19
REMARK                            x       y       z     vdW  Elec       q    Type
REMARK                         _______ _______ _______ _____ _____    ______ ____
ROOT
ATOM      1  N   UNL     1      -1.378  -0.794  -2.482  0.00  0.00    -0.305 N 
ATOM      2  C   UNL     1      -2.417  -0.279  -1.795  0.00  0.00    +0.226 C 
ATOM      3  O   UNL     1      -2.285   0.762  -1.187  0.00  0.00    -0.275 OA
ATOM      4  H   UNL     1      -1.497  -1.738  -3.034  0.00  0.00    +0.149 HD
ENDROOT
BRANCH   2   5
ATOM      5  C   UNL     1      -3.742  -0.996  -1.784  0.00  0.00    +0.142 C 
ATOM      6  C   UNL     1      -4.250  -1.124  -3.194  0.00  0.00    +0.011 A 
ATOM      7  C   UNL     1      -3.711  -2.091  -4.024  0.00  0.00    +0.008 A 
ATOM      8  C   UNL     1      -4.162  -2.224  -5.323  0.00  0.00    +0.001 A 
ATOM      9  C   UNL     1      -5.156  -1.389  -5.799  0.00  0.00    +0.004 A 
ATOM     10  C   UNL     1      -5.697  -0.425  -4.976  0.00  0.00    +0.046 A 
ATOM     11  C   UNL     1      -5.246  -0.288  -3.669  0.00  0.00    +0.133 A 
ATOM     12  O   UNL     1      -5.791   0.667  -2.877  0.00  0.00    -0.455 OA
ATOM     13  C   UNL     1      -5.692   0.569  -1.530  0.00  0.00    +0.133 A 
ATOM     14  C   UNL     1      -4.718  -0.221  -0.941  0.00  0.00    +0.011 A 
ATOM     15  C   UNL     1      -4.637  -0.302   0.438  0.00  0.00    +0.008 A 
ATOM     16  C   UNL     1      -5.524   0.402   1.230  0.00  0.00    +0.001 A 
ATOM     17  C   UNL     1      -6.498   1.190   0.645  0.00  0.00    +0.004 A 
ATOM     18  C   UNL     1      -6.584   1.275  -0.730  0.00  0.00    +0.046 A 
ENDBRANCH   2   5
BRANCH   1  19
ATOM     19  C   UNL     1      -0.089  -0.097  -2.493  0.00  0.00    +0.142 C 
BRANCH  19  20
ATOM     20  C   UNL     1       0.675  -0.474  -3.736  0.00  0.00    +0.158 A 
ATOM     21  N   UNL     1       0.822  -1.681  -4.217  0.00  0.00    -0.132 NA
ATOM     22  N   UNL     1       1.529  -1.650  -5.292  0.00  0.00    -0.129 NA
ATOM     23  C   UNL     1       1.883  -0.402  -5.551  0.00  0.00    +0.161 A 
ATOM     24  N   UNL     1       1.343   0.379  -4.559  0.00  0.00    -0.285 N 
ATOM     25  C   UNL     1       1.540   1.729  -4.558  0.00  0.00    +0.094 A 
ATOM     26  C   UNL     1       2.268   2.316  -5.531  0.00  0.00    +0.018 A 
ATOM     27  C   UNL     1       2.833   1.543  -6.559  0.00  0.00    +0.005 A 
ATOM     28  C   UNL     1       2.645   0.196  -6.573  0.00  0.00    +0.048 A 
ENDBRANCH  19  20
BRANCH  19  29
ATOM     29  C   UNL     1       0.718  -0.497  -1.257  0.00  0.00    +0.033 C 
BRANCH  29  31
ATOM     30  C   UNL     1      -0.019   1.526   0.010  0.00  0.00    +0.007 C 
ATOM     31  C   UNL     1       0.002  -0.004   0.002  0.00  0.00    -0.015 C 
ATOM     32  C   UNL     1       0.742  -0.511   1.242  0.00  0.00    +0.007 C 
ENDBRANCH  29  31
ENDBRANCH  19  29
ENDBRANCH   1  19
TORSDOF 5
