REMARK  Name = ZINC22782862
REMARK  5 active torsions:
REMARK  status: ('A' for Active; 'I' for Inactive)
REMARK    1  A    between atoms: C_3  and  C_6
REMARK    2  A    between atoms: C_6  and  N_7
REMARK    3  A    between atoms: N_10  and  C_13
REMARK    4  A    between atoms: C_13  and  C_14
REMARK    5  A    between atoms: N_16  and  N_17
REMARK                            x       y       z     vdW  Elec       q    Type
REMARK                         _______ _______ _______ _____ _____    ______ ____
ROOT
ATOM      1  C   UNL     1      -1.576   2.734   1.152  0.00  0.00    +0.213 C 
ATOM      2  O   UNL     1      -0.915   2.621   2.163  0.00  0.00    -0.276 OA
ATOM      3  N   UNL     1      -1.186   2.116   0.019  0.00  0.00    -0.225 N 
ATOM      4  H   UNL     1      -1.785   2.219  -0.897  0.00  0.00    +0.173 HD
ENDROOT
BRANCH   3   5
ATOM      5  N   UNL     1      -0.016   1.345   0.009  0.00  0.00    -0.137 N 
ATOM      6  C   UNL     1       0.002  -0.004   0.002  0.00  0.00    +0.263 C 
ATOM      7  O   UNL     1      -0.953  -0.751   0.007  0.00  0.00    -0.271 OA
ATOM      8  C   UNL     1       1.464  -0.388  -0.014  0.00  0.00    +0.114 C 
ATOM      9  C   UNL     1       1.792  -1.178  -1.276  0.00  0.00    +0.035 C 
ATOM     10  C   UNL     1       3.281  -1.532  -1.287  0.00  0.00    +0.003 C 
ATOM     11  C   UNL     1       3.616  -2.361  -0.045  0.00  0.00    +0.000 C 
ATOM     12  C   UNL     1       3.305  -1.546   1.212  0.00  0.00    +0.003 C 
ATOM     13  C   UNL     1       1.816  -1.192   1.233  0.00  0.00    +0.035 C 
ATOM     14  N   UNL     1       2.171   0.899  -0.014  0.00  0.00    -0.284 N 
ATOM     15  C   UNL     1       1.222   1.855   0.000  0.00  0.00    +0.326 C 
ATOM     16  O   UNL     1       1.462   3.046   0.004  0.00  0.00    -0.251 OA
ATOM     17  H   UNL     1       3.270   0.923  -0.024  0.00  0.00    +0.151 HD
ENDBRANCH   3   5
BRANCH   1  18
ATOM     18  C   UNL     1      -2.834   3.564   1.163  0.00  0.00    +0.020 C 
BRANCH  18  22
ATOM     19  N   UNL     1      -4.520   4.681   4.872  0.00  0.00    -0.301 NA
ATOM     20  C   UNL     1      -4.243   5.742   3.893  0.00  0.00    +0.066 C 
ATOM     21  C   UNL     1      -4.115   5.125   2.498  0.00  0.00    -0.063 C 
ATOM     22  N   UNL     1      -3.039   4.125   2.505  0.00  0.00    +0.387 N 
ATOM     23  C   UNL     1      -3.315   3.064   3.483  0.00  0.00    -0.063 C 
ATOM     24  C   UNL     1      -3.443   3.681   4.878  0.00  0.00    +0.066 C 
ATOM     25  H   UNL     1      -2.108   4.629   2.804  0.00  0.00    -0.081 HD
BRANCH  19  26
ATOM     26  C   UNL     1      -4.724   5.243   6.213  0.00  0.00    +0.126 C 
BRANCH  26  29
ATOM     27  C   UNL     1      -4.009   2.547   8.808  0.00  0.00    +0.008 A 
ATOM     28  C   UNL     1      -3.737   3.571   7.920  0.00  0.00    +0.012 A 
ATOM     29  C   UNL     1      -4.760   4.126   7.225  0.00  0.00    +0.004 A 
ATOM     30  S   UNL     1      -6.160   3.188   7.814  0.00  0.00    -0.100 S 
ATOM     31  C   UNL     1      -5.288   2.123   8.951  0.00  0.00    +0.045 A 
ENDBRANCH  26  29
ENDBRANCH  19  26
ENDBRANCH  18  22
ENDBRANCH   1  18
TORSDOF 5
