REMARK  Name = ZINC49488423
REMARK  10 active torsions:
REMARK  status: ('A' for Active; 'I' for Inactive)
REMARK    1  A    between atoms: C_1  and  N_2
REMARK    2  A    between atoms: N_2  and  C_3
REMARK    3  A    between atoms: N_2  and  C_4
REMARK    4  A    between atoms: C_4  and  C_6
REMARK    5  A    between atoms: C_4  and  C_27
REMARK    6  A    between atoms: C_6  and  N_7
REMARK    7  A    between atoms: C_8  and  C_10
REMARK    8  A    between atoms: N_12  and  C_13
REMARK    9  A    between atoms: N_19  and  S_23
REMARK   10  A    between atoms: S_23  and  C_26
REMARK                            x       y       z     vdW  Elec       q    Type
REMARK                         _______ _______ _______ _____ _____    ______ ____
ROOT
ATOM      1  C   UNL     1      -2.656   4.103  -1.234  0.00  0.00    +0.303 C 
ATOM      2  O   UNL     1      -1.974   4.717  -0.439  0.00  0.00    -0.265 OA
ATOM      3  N   UNL     1      -3.022   4.681  -2.395  0.00  0.00    -0.278 N 
ATOM      4  H   UNL     1      -3.629   4.221  -2.996  0.00  0.00    +0.155 HD
ENDROOT
BRANCH   3   5
ATOM      5  C   UNL     1      -2.527   5.943  -2.734  0.00  0.00    +0.036 A 
ATOM      6  C   UNL     1      -1.238   6.309  -2.365  0.00  0.00    +0.024 A 
ATOM      7  C   UNL     1      -0.750   7.556  -2.699  0.00  0.00    +0.007 A 
ATOM      8  C   UNL     1      -1.539   8.451  -3.403  0.00  0.00    -0.025 A 
ATOM      9  C   UNL     1      -2.825   8.089  -3.776  0.00  0.00    +0.056 A 
ATOM     10  C   UNL     1      -3.318   6.833  -3.445  0.00  0.00    +0.048 A 
ATOM     11  N   UNL     1      -3.639   8.971  -4.495  0.00  0.00    -0.207 N 
ATOM     12  C   UNL     1      -3.244  10.383  -4.594  0.00  0.00    +0.131 C 
ATOM     13  C   UNL     1      -1.743  10.428  -4.909  0.00  0.00    +0.025 C 
ATOM     14  C   UNL     1      -0.974   9.805  -3.744  0.00  0.00    +0.038 C 
BRANCH  11  15
ATOM     15  S   UNL     1      -5.024   8.432  -5.225  0.00  0.00    +0.043 S 
ATOM     16  O   UNL     1      -5.342   9.432  -6.184  0.00  0.00    -0.155 OA
ATOM     17  O   UNL     1      -4.726   7.105  -5.634  0.00  0.00    -0.155 OA
ATOM     18  C   UNL     1      -6.269   8.415  -3.905  0.00  0.00    +0.218 C 
ENDBRANCH  11  15
ENDBRANCH   3   5
BRANCH   1  20
ATOM     19  N   UNL     1      -2.723   2.130   0.236  0.00  0.00    -0.309 N 
ATOM     20  C   UNL     1      -3.089   2.707  -0.925  0.00  0.00    +0.299 C 
ATOM     21  O   UNL     1      -3.771   2.094  -1.720  0.00  0.00    -0.265 OA
ATOM     22  H   UNL     1      -2.178   2.620   0.872  0.00  0.00    +0.149 HD
BRANCH  19  23
ATOM     23  C   UNL     1      -3.148   0.761   0.539  0.00  0.00    +0.094 C 
BRANCH  23  24
ATOM     24  C   UNL     1      -2.502   0.304   1.849  0.00  0.00    -0.014 C 
BRANCH  24  25
ATOM     25  C   UNL     1      -2.975   1.185   2.977  0.00  0.00    -0.022 A 
ATOM     26  C   UNL     1      -2.348   2.235   3.561  0.00  0.00    +0.009 A 
ATOM     27  C   UNL     1      -2.981   2.905   4.591  0.00  0.00    +0.008 A 
ATOM     28  C   UNL     1      -4.210   2.493   4.987  0.00  0.00    +0.045 A 
ATOM     29  S   UNL     1      -4.512   1.121   3.884  0.00  0.00    -0.103 S 
ENDBRANCH  24  25
BRANCH  24  31
ATOM     30  C   UNL     1      -2.328  -1.961   1.079  0.00  0.00    -0.096 C 
ATOM     31  N   UNL     1      -2.881  -1.088   2.123  0.00  0.00    +0.382 N 
ATOM     32  C   UNL     1      -2.350  -1.492   3.432  0.00  0.00    -0.096 C 
ATOM     33  H   UNL     1      -3.887  -1.167   2.129  0.00  0.00    -0.082 HD
ENDBRANCH  24  31
ENDBRANCH  23  24
ENDBRANCH  19  23
ENDBRANCH   1  20
TORSDOF 7
