REMARK  Name = ZINC05636721
REMARK  6 active torsions:
REMARK  status: ('A' for Active; 'I' for Inactive)
REMARK    1  A    between atoms: C_3  and  C_15
REMARK    2  A    between atoms: C_5  and  C_7
REMARK    3  A    between atoms: C_7  and  S_8
REMARK    4  A    between atoms: S_8  and  C_9
REMARK    5  A    between atoms: C_15  and  S_16
REMARK    6  A    between atoms: S_16  and  C_17
REMARK                            x       y       z     vdW  Elec       q    Type
REMARK                         _______ _______ _______ _____ _____    ______ ____
ROOT
ATOM      1  C   UNL     1      -0.013   1.076   0.008  0.00  0.00    +0.001 A 
ATOM      2  C   UNL     1      -1.219   1.751   0.017  0.00  0.00    +0.004 A 
ATOM      3  C   UNL     1      -1.238   3.133   0.030  0.00  0.00    -0.037 A 
ATOM      4  C   UNL     1      -0.050   3.840   0.022  0.00  0.00    +0.009 A 
ATOM      5  C   UNL     1       1.156   3.165   0.008  0.00  0.00    -0.037 A 
ATOM      6  C   UNL     1       1.175   1.783   0.000  0.00  0.00    +0.004 A 
ENDROOT
BRANCH   5   7
ATOM      7  C   UNL     1       2.451   3.937  -0.001  0.00  0.00    +0.111 C 
BRANCH   7   8
ATOM      8  S   UNL     1       2.954   4.255  -1.715  0.00  0.00    -0.092 S 
BRANCH   8   9
ATOM      9  C   UNL     1       4.462   5.151  -1.557  0.00  0.00    +0.160 A 
ATOM     10  N   UNL     1       5.105   5.522  -0.466  0.00  0.00    -0.133 NA
ATOM     11  N   UNL     1       6.283   6.224  -0.570  0.00  0.00    -0.125 NA
ATOM     12  C   UNL     1       6.765   6.524  -1.760  0.00  0.00    +0.180 A 
ATOM     13  S   UNL     1       5.535   5.796  -2.832  0.00  0.00    -0.025 S 
ATOM     14  N   UNL     1       7.923   7.216  -2.092  0.00  0.00    -0.336 N 
ATOM     15  H   UNL     1       8.504   7.554  -1.393  0.00  0.00    +0.144 HD
ATOM     16  H   UNL     1       8.151   7.362  -3.024  0.00  0.00    +0.144 HD
ENDBRANCH   8   9
ENDBRANCH   7   8
ENDBRANCH   5   7
BRANCH   3  17
ATOM     17  C   UNL     1      -2.553   3.869   0.045  0.00  0.00    +0.111 C 
BRANCH  17  18
ATOM     18  S   UNL     1      -3.096   4.172  -1.659  0.00  0.00    -0.092 S 
BRANCH  18  19
ATOM     19  C   UNL     1      -4.625   5.027  -1.472  0.00  0.00    +0.160 A 
ATOM     20  N   UNL     1      -5.256   5.381  -0.369  0.00  0.00    -0.133 NA
ATOM     21  N   UNL     1      -6.455   6.052  -0.452  0.00  0.00    -0.125 NA
ATOM     22  C   UNL     1      -6.967   6.338  -1.633  0.00  0.00    +0.180 A 
ATOM     23  S   UNL     1      -5.732   5.654  -2.727  0.00  0.00    -0.025 S 
ATOM     24  N   UNL     1      -8.149   7.000  -1.943  0.00  0.00    -0.336 N 
ATOM     25  H   UNL     1      -8.725   7.323  -1.232  0.00  0.00    +0.144 HD
ATOM     26  H   UNL     1      -8.398   7.139  -2.870  0.00  0.00    +0.144 HD
ENDBRANCH  18  19
ENDBRANCH  17  18
ENDBRANCH   3  17
TORSDOF 6
