REMARK  Name = ZINC36280589
REMARK  5 active torsions:
REMARK  status: ('A' for Active; 'I' for Inactive)
REMARK    1  A    between atoms: C_4  and  C_10
REMARK    2  A    between atoms: C_6  and  N_7
REMARK    3  A    between atoms: N_11  and  N_12
REMARK    4  A    between atoms: C_13  and  C_15
REMARK    5  A    between atoms: C_17  and  N_23
REMARK                            x       y       z     vdW  Elec       q    Type
REMARK                         _______ _______ _______ _____ _____    ______ ____
ROOT
ATOM      1  N   UNL     1       6.030  -0.699  -0.063  0.00  0.00    -0.202 N 
ATOM      2  C   UNL     1       7.187  -0.007  -0.071  0.00  0.00    +0.283 C 
ATOM      3  O   UNL     1       7.168   1.209  -0.064  0.00  0.00    -0.267 OA
ATOM      4  H   UNL     1       6.045  -1.669  -0.068  0.00  0.00    +0.178 HD
ENDROOT
BRANCH   2   5
ATOM      5  C   UNL     1       8.479  -0.726  -0.088  0.00  0.00    +0.149 A 
ATOM      6  C   UNL     1       9.670  -0.005  -0.091  0.00  0.00    +0.094 A 
ATOM      7  C   UNL     1      10.881  -0.698  -0.106  0.00  0.00    +0.067 A 
ATOM      8  C   UNL     1      10.845  -2.092  -0.119  0.00  0.00    +0.100 A 
ATOM      9  C   UNL     1       9.619  -2.738  -0.116  0.00  0.00    +0.150 A 
ATOM     10  N   UNL     1       8.493  -2.055  -0.095  0.00  0.00    -0.228 NA
ATOM     11 CL   UNL     1       9.567  -4.473  -0.132  0.00  0.00    -0.060 Cl
ATOM     12 CL   UNL     1      12.320  -3.007  -0.140  0.00  0.00    -0.078 Cl
ATOM     13 CL   UNL     1       9.649   1.731  -0.075  0.00  0.00    -0.079 Cl
BRANCH   7  14
ATOM     14  N   UNL     1      12.095  -0.015  -0.110  0.00  0.00    -0.356 N 
ATOM     15  H   UNL     1      12.106   0.955  -0.102  0.00  0.00    +0.142 HD
ATOM     16  H   UNL     1      12.930  -0.509  -0.121  0.00  0.00    +0.142 HD
ENDBRANCH   7  14
ENDBRANCH   2   5
BRANCH   1  18
ATOM     17  C   UNL     1       3.692  -0.684  -0.038  0.00  0.00    +0.139 C 
ATOM     18  N   UNL     1       4.806  -0.018  -0.046  0.00  0.00    -0.187 NA
BRANCH  17  22
ATOM     19  C   UNL     1      -0.017   1.379   0.010  0.00  0.00    +0.034 A 
ATOM     20  C   UNL     1       1.168   2.094   0.002  0.00  0.00    +0.023 A 
ATOM     21  C   UNL     1       2.378   1.431  -0.013  0.00  0.00    +0.050 A 
ATOM     22  C   UNL     1       2.404   0.033  -0.021  0.00  0.00    +0.015 A 
ATOM     23  C   UNL     1       1.204  -0.681  -0.013  0.00  0.00    +0.043 A 
ATOM     24  C   UNL     1       0.002  -0.004   0.002  0.00  0.00    +0.127 A 
ATOM     25 CL   UNL     1       3.864   2.329  -0.024  0.00  0.00    -0.083 Cl
BRANCH  24  26
ATOM     26  N   UNL     1      -1.271  -0.759   0.011  0.00  0.00    +0.056 N 
ATOM     27  O   UNL     1      -2.325  -0.168   0.024  0.00  0.00    -0.126 OA
ATOM     28  O   UNL     1      -1.256  -1.968   0.004  0.00  0.00    -0.126 OA
ENDBRANCH  24  26
ENDBRANCH  17  22
ENDBRANCH   1  18
TORSDOF 5
