REMARK  Name = ZINC39913966
REMARK  11 active torsions:
REMARK  status: ('A' for Active; 'I' for Inactive)
REMARK    1  A    between atoms: C_1  and  C_2
REMARK    2  A    between atoms: C_2  and  C_3
REMARK    3  A    between atoms: C_3  and  O_4
REMARK    4  A    between atoms: O_4  and  C_5
REMARK    5  A    between atoms: C_9  and  C_11
REMARK    6  A    between atoms: C_14  and  C_25
REMARK    7  A    between atoms: N_21  and  C_22
REMARK    8  A    between atoms: C_22  and  C_23
REMARK    9  A    between atoms: C_23  and  O_24
REMARK   10  A    between atoms: C_28  and  C_32
REMARK   11  A    between atoms: C_30  and  O_31
REMARK                            x       y       z     vdW  Elec       q    Type
REMARK                         _______ _______ _______ _____ _____    ______ ____
ROOT
ATOM      1  C   UNL     1      -3.865  -6.111   0.178  0.00  0.00    +0.141 C 
ATOM      2  C   UNL     1      -4.106  -6.521  -1.249  0.00  0.00    +0.035 A 
ATOM      3  C   UNL     1      -3.637  -6.537  -2.567  0.00  0.00    +0.102 A 
ATOM      4  N   UNL     1      -4.541  -7.156  -3.300  0.00  0.00    -0.173 NA
ATOM      5  N   UNL     1      -5.534  -7.532  -2.576  0.00  0.00    -0.272 N 
ATOM      6  H   UNL     1      -6.315  -8.006  -2.904  0.00  0.00    +0.189 HD
ATOM      7  C   UNL     1      -5.327  -7.166  -1.276  0.00  0.00    +0.126 A 
ATOM      8  C   UNL     1      -5.876  -7.183   0.084  0.00  0.00    +0.266 C 
ATOM      9  O   UNL     1      -6.942  -7.679   0.397  0.00  0.00    -0.268 OA
ATOM     10  N   UNL     1      -5.033  -6.572   0.938  0.00  0.00    -0.283 N 
ENDROOT
BRANCH   3  11
ATOM     11  C   UNL     1      -2.357  -5.962  -3.051  0.00  0.00    +0.045 A 
ATOM     12  C   UNL     1      -1.434  -5.447  -2.144  0.00  0.00    +0.034 A 
ATOM     13  C   UNL     1      -0.245  -4.913  -2.600  0.00  0.00    +0.045 A 
ATOM     14  C   UNL     1       0.033  -4.887  -3.956  0.00  0.00    -0.029 A 
ATOM     15  C   UNL     1      -0.877  -5.395  -4.864  0.00  0.00    +0.050 A 
ATOM     16  C   UNL     1      -2.071  -5.939  -4.419  0.00  0.00    +0.126 A 
ATOM     17  C   UNL     1       1.333  -4.303  -4.445  0.00  0.00    +0.045 C 
ATOM     18 CL   UNL     1       0.905  -4.272  -1.469  0.00  0.00    -0.083 Cl
BRANCH  16  19
ATOM     19  O   UNL     1      -2.964  -6.444  -5.311  0.00  0.00    -0.506 OA
ATOM     20  H   UNL     1      -3.604  -5.796  -5.635  0.00  0.00    +0.292 HD
ENDBRANCH  16  19
ENDBRANCH   3  11
BRANCH   1  25
ATOM     21  C   UNL     1      -2.421  -2.657   0.696  0.00  0.00    +0.121 A 
ATOM     22  C   UNL     1      -3.527  -1.857   0.447  0.00  0.00    +0.045 A 
ATOM     23  C   UNL     1      -4.735  -2.436   0.112  0.00  0.00    +0.004 A 
ATOM     24  C   UNL     1      -4.843  -3.812   0.025  0.00  0.00    +0.006 A 
ATOM     25  C   UNL     1      -3.743  -4.612   0.273  0.00  0.00    -0.019 A 
ATOM     26  C   UNL     1      -2.531  -4.037   0.603  0.00  0.00    +0.051 A 
BRANCH  21  27
ATOM     27  O   UNL     1      -1.231  -2.090   1.026  0.00  0.00    -0.492 OA
BRANCH  27  28
ATOM     28  C   UNL     1      -1.192  -0.663   1.103  0.00  0.00    +0.229 C 
BRANCH  28  30
ATOM     29  C   UNL     1       0.262   1.315   1.566  0.00  0.00    +0.007 C 
ATOM     30  C   UNL     1       0.220  -0.212   1.483  0.00  0.00    +0.038 C 
ENDBRANCH  28  30
ENDBRANCH  27  28
ENDBRANCH  21  27
ENDBRANCH   1  25
BRANCH  10  31
ATOM     31  C   UNL     1      -5.244  -6.398   2.377  0.00  0.00    +0.137 C 
BRANCH  31  32
ATOM     32  C   UNL     1      -6.095  -5.151   2.621  0.00  0.00    +0.175 C 
BRANCH  32  33
ATOM     33  O   UNL     1      -7.402  -5.352   2.077  0.00  0.00    -0.393 OA
ATOM     34  H   UNL     1      -7.997  -4.599   2.196  0.00  0.00    +0.209 HD
ENDBRANCH  32  33
ENDBRANCH  31  32
ENDBRANCH  10  31
TORSDOF 9
