REMARK  Name = ZINC36329899
REMARK  11 active torsions:
REMARK  status: ('A' for Active; 'I' for Inactive)
REMARK    1  A    between atoms: C_1  and  C_2
REMARK    2  A    between atoms: C_3  and  C_35
REMARK    3  A    between atoms: C_11  and  C_13
REMARK    4  A    between atoms: C_13  and  S_14
REMARK    5  A    between atoms: S_14  and  C_15
REMARK    6  A    between atoms: C_15  and  C_17
REMARK    7  A    between atoms: C_15  and  C_18
REMARK    8  A    between atoms: N_20  and  C_21
REMARK    9  A    between atoms: C_21  and  C_22
REMARK   10  A    between atoms: C_22  and  C_23
REMARK   11  A    between atoms: C_23  and  N_24
REMARK                            x       y       z     vdW  Elec       q    Type
REMARK                         _______ _______ _______ _____ _____    ______ ____
ROOT
ATOM      1  C   UNL     1       0.275  -7.601   5.074  0.00  0.00    +0.226 C 
ATOM      2  O   UNL     1      -0.009  -7.972   3.955  0.00  0.00    -0.275 OA
ATOM      3  N   UNL     1       0.716  -8.489   5.987  0.00  0.00    -0.314 N 
ATOM      4  H   UNL     1       0.944  -8.191   6.882  0.00  0.00    +0.149 HD
ENDROOT
BRANCH   1   5
ATOM      5  C   UNL     1       0.135  -6.147   5.443  0.00  0.00    +0.129 C 
ATOM      6  C   UNL     1      -1.169  -5.941   6.217  0.00  0.00    +0.029 C 
BRANCH   5   7
ATOM      7  S   UNL     1       0.108  -5.139   3.935  0.00  0.00    -0.141 S 
BRANCH   7   8
ATOM      8  C   UNL     1       0.090  -3.432   4.547  0.00  0.00    +0.144 C 
BRANCH   8  19
ATOM      9  C   UNL     1      -0.018   1.503   0.010  0.00  0.00    +0.045 C 
ATOM     10  C   UNL     1       0.002  -0.004   0.002  0.00  0.00    -0.026 A 
ATOM     11  C   UNL     1       0.006  -0.677  -1.160  0.00  0.00    -0.008 A 
ATOM     12  S   UNL     1       0.032  -2.385  -0.648  0.00  0.00    -0.073 S 
ATOM     13  C   UNL     1       0.037  -2.144   1.110  0.00  0.00    +0.116 A 
ATOM     14  C   UNL     1       0.024  -0.745   1.250  0.00  0.00    +0.075 A 
ATOM     15  C   UNL     1       0.029  -0.257   2.597  0.00  0.00    +0.260 A 
ATOM     16  O   UNL     1       0.014   0.942   2.821  0.00  0.00    -0.267 OA
ATOM     17  N   UNL     1       0.051  -1.142   3.611  0.00  0.00    -0.310 N 
ATOM     18  H   UNL     1       0.054  -0.817   4.525  0.00  0.00    +0.170 HD
ATOM     19  C   UNL     1       0.067  -2.480   3.380  0.00  0.00    +0.121 A 
ATOM     20  N   UNL     1       0.053  -2.956   2.163  0.00  0.00    -0.226 NA
ATOM     21  C   UNL     1      -0.009  -0.122  -2.561  0.00  0.00    +0.052 C 
ENDBRANCH   8  19
ENDBRANCH   7   8
ENDBRANCH   5   7
ENDBRANCH   1   5
BRANCH   3  22
ATOM     22  C   UNL     1       0.853  -9.902   5.628  0.00  0.00    +0.106 C 
BRANCH  22  23
ATOM     23  C   UNL     1       1.368 -10.688   6.835  0.00  0.00    +0.038 C 
BRANCH  23  24
ATOM     24  C   UNL     1       1.511 -12.164   6.460  0.00  0.00    +0.119 C 
BRANCH  24  25
ATOM     25  N   UNL     1       2.004 -12.916   7.616  0.00  0.00    -0.224 N 
ATOM     26  C   UNL     1       3.311 -13.117   7.890  0.00  0.00    +0.246 C 
ATOM     27  O   UNL     1       4.265 -12.725   7.252  0.00  0.00    -0.273 OA
ATOM     28  C   UNL     1       3.332 -13.931   9.158  0.00  0.00    +0.113 C 
ATOM     29  C   UNL     1       4.074 -13.190  10.278  0.00  0.00    +0.035 C 
ATOM     30  C   UNL     1       4.784 -14.319  11.069  0.00  0.00    +0.003 C 
ATOM     31  C   UNL     1       5.212 -15.305   9.953  0.00  0.00    +0.003 C 
ATOM     32  C   UNL     1       4.040 -15.271   8.947  0.00  0.00    +0.035 C 
ATOM     33  N   UNL     1       1.919 -14.121   9.495  0.00  0.00    -0.285 N 
ATOM     34  C   UNL     1       1.215 -13.486   8.537  0.00  0.00    +0.309 C 
ATOM     35  O   UNL     1       0.001 -13.439   8.509  0.00  0.00    -0.252 OA
ATOM     36  H   UNL     1       1.562 -14.604  10.257  0.00  0.00    +0.151 HD
ENDBRANCH  24  25
ENDBRANCH  23  24
ENDBRANCH  22  23
ENDBRANCH   3  22
TORSDOF 8
