REMARK  Name = ZINC36790831
REMARK  12 active torsions:
REMARK  status: ('A' for Active; 'I' for Inactive)
REMARK    1  A    between atoms: C_1  and  C_2
REMARK    2  A    between atoms: C_2  and  C_4
REMARK    3  A    between atoms: C_2  and  O_18
REMARK    4  A    between atoms: N_6  and  C_7
REMARK    5  A    between atoms: C_8  and  C_15
REMARK    6  A    between atoms: O_18  and  C_19
REMARK    7  A    between atoms: C_19  and  C_21
REMARK    8  A    between atoms: C_28  and  O_30
REMARK    9  A    between atoms: O_30  and  C_31
REMARK   10  A    between atoms: C_31  and  C_32
REMARK   11  A    between atoms: C_31  and  C_33
REMARK   12  A    between atoms: C_31  and  C_34
REMARK                            x       y       z     vdW  Elec       q    Type
REMARK                         _______ _______ _______ _____ _____    ______ ____
ROOT
ATOM      1  C   UNL     1      -0.019   1.526   0.010  0.00  0.00    +0.062 C 
ATOM      2  C   UNL     1       0.002  -0.004   0.002  0.00  0.00    +0.259 C 
ENDROOT
BRANCH   2   3
ATOM      3  C   UNL     1       0.731  -0.503   1.223  0.00  0.00    +0.258 C 
ATOM      4  O   UNL     1       1.774  -1.109   1.101  0.00  0.00    -0.271 OA
ATOM      5  N   UNL     1       0.223  -0.277   2.451  0.00  0.00    -0.276 N 
ATOM      6  H   UNL     1      -0.611   0.208   2.548  0.00  0.00    +0.155 HD
BRANCH   5   7
ATOM      7  C   UNL     1       0.894  -0.736   3.574  0.00  0.00    +0.084 A 
ATOM      8  C   UNL     1       0.523  -0.602   4.899  0.00  0.00    +0.068 A 
ATOM      9  C   UNL     1       1.412  -1.182   5.905  0.00  0.00    -0.023 A 
ATOM     10  C   UNL     1       2.501  -1.783   5.394  0.00  0.00    -0.004 A 
ATOM     11  S   UNL     1       2.337  -1.588   3.637  0.00  0.00    -0.077 S 
ATOM     12  C   UNL     1       3.382  -2.358   6.470  0.00  0.00    +0.043 C 
ATOM     13  C   UNL     1       2.915  -1.663   7.768  0.00  0.00    +0.010 C 
ATOM     14  C   UNL     1       1.455  -1.305   7.427  0.00  0.00    +0.037 C 
BRANCH   8  15
ATOM     15  C   UNL     1      -0.710   0.093   5.280  0.00  0.00    +0.244 C 
ATOM     16  O   UNL     1      -1.752  -0.527   5.383  0.00  0.00    -0.270 OA
ATOM     17  N   UNL     1      -0.690   1.420   5.517  0.00  0.00    -0.325 N 
ATOM     18  H   UNL     1       0.141   1.915   5.436  0.00  0.00    +0.145 HD
ATOM     19  H   UNL     1      -1.506   1.880   5.770  0.00  0.00    +0.145 HD
ENDBRANCH   8  15
ENDBRANCH   5   7
ENDBRANCH   2   3
BRANCH   2  20
ATOM     20  O   UNL     1       0.671  -0.465  -1.174  0.00  0.00    -0.452 OA
BRANCH  20  21
ATOM     21  C   UNL     1      -0.085  -0.672  -2.263  0.00  0.00    +0.312 C 
ATOM     22  O   UNL     1      -1.276  -0.469  -2.220  0.00  0.00    -0.250 OA
BRANCH  21  23
ATOM     23  C   UNL     1       0.551  -1.158  -3.540  0.00  0.00    +0.115 C 
ATOM     24  C   UNL     1      -0.524  -1.313  -4.619  0.00  0.00    +0.018 C 
ATOM     25  C   UNL     1       0.126  -1.776  -5.925  0.00  0.00    +0.020 C 
ATOM     26  C   UNL     1       0.791  -3.138  -5.706  0.00  0.00    +0.111 C 
ATOM     27  N   UNL     1       1.721  -3.033  -4.574  0.00  0.00    -0.267 N 
ATOM     28  C   UNL     1       1.221  -2.513  -3.294  0.00  0.00    +0.125 C 
ATOM     29  C   UNL     1       3.009  -3.407  -4.707  0.00  0.00    +0.403 C 
ATOM     30  O   UNL     1       3.769  -3.316  -3.763  0.00  0.00    -0.226 OA
BRANCH  29  31
ATOM     31  O   UNL     1       3.454  -3.882  -5.886  0.00  0.00    -0.445 OA
BRANCH  31  32
ATOM     32  C   UNL     1       4.831  -4.259  -5.955  0.00  0.00    +0.107 C 
ATOM     33  C   UNL     1       5.109  -5.365  -4.935  0.00  0.00    +0.055 C 
ATOM     34  C   UNL     1       5.149  -4.770  -7.361  0.00  0.00    +0.055 C 
ATOM     35  C   UNL     1       5.709  -3.045  -5.643  0.00  0.00    +0.055 C 
ENDBRANCH  31  32
ENDBRANCH  29  31
ENDBRANCH  21  23
ENDBRANCH  20  21
ENDBRANCH   2  20
TORSDOF 8
