REMARK  Name = ZINC12054764
REMARK  11 active torsions:
REMARK  status: ('A' for Active; 'I' for Inactive)
REMARK    1  A    between atoms: C_1  and  C_2
REMARK    2  A    between atoms: C_2  and  C_3
REMARK    3  A    between atoms: C_3  and  C_4
REMARK    4  A    between atoms: C_4  and  C_19
REMARK    5  A    between atoms: N_7  and  C_11
REMARK    6  A    between atoms: C_11  and  C_12
REMARK    7  A    between atoms: C_12  and  C_13
REMARK    8  A    between atoms: C_18  and  N_70
REMARK    9  A    between atoms: C_25  and  C_27
REMARK   10  A    between atoms: C_29  and  C_32
REMARK   11  A    between atoms: C_32  and  C_34
REMARK                            x       y       z     vdW  Elec       q    Type
REMARK                         _______ _______ _______ _____ _____    ______ ____
ROOT
ATOM      1  C   UNL     1      -0.099  -4.165   0.933  0.00  0.00    +0.115 C 
ATOM      2  C   UNL     1       0.171  -2.690   0.712  0.00  0.00    +0.247 C 
ATOM      3  O   UNL     1      -0.358  -1.962  -0.100  0.00  0.00    -0.273 OA
ATOM      4  N   UNL     1       1.122  -2.356   1.607  0.00  0.00    -0.224 N 
ATOM      5  C   UNL     1       1.490  -3.405   2.351  0.00  0.00    +0.309 C 
ATOM      6  O   UNL     1       2.335  -3.352   3.223  0.00  0.00    -0.252 OA
ATOM      7  N   UNL     1       0.817  -4.525   2.029  0.00  0.00    -0.285 N 
ATOM      8  H   UNL     1       0.918  -5.399   2.437  0.00  0.00    +0.151 HD
ENDROOT
BRANCH   1   9
ATOM      9  C   UNL     1      -1.554  -4.389   1.351  0.00  0.00    +0.024 C 
ATOM     10  C   UNL     1      -2.481  -4.007   0.196  0.00  0.00    +0.025 C 
ATOM     11  C   UNL     1      -3.934  -4.265   0.606  0.00  0.00    +0.108 C 
ATOM     12  N   UNL     1      -4.206  -3.549   1.859  0.00  0.00    -0.297 N 
ATOM     13  C   UNL     1      -3.319  -3.775   3.009  0.00  0.00    +0.108 C 
ATOM     14  C   UNL     1      -1.872  -3.522   2.572  0.00  0.00    +0.025 C 
ATOM     15  C   UNL     1      -5.250  -2.702   1.954  0.00  0.00    +0.247 C 
ATOM     16  O   UNL     1      -6.038  -2.602   1.033  0.00  0.00    -0.270 OA
BRANCH  15  17
ATOM     17  C   UNL     1      -5.437  -1.896   3.174  0.00  0.00    +0.045 A 
ATOM     18  C   UNL     1      -6.704  -1.549   3.610  0.00  0.00    +0.032 A 
ATOM     19  C   UNL     1      -6.791  -0.791   4.764  0.00  0.00    +0.055 A 
ATOM     20  S   UNL     1      -5.079  -0.580   5.215  0.00  0.00    -0.093 S 
ATOM     21  C   UNL     1      -4.347  -1.469   3.920  0.00  0.00    +0.059 A 
BRANCH  19  22
ATOM     22  C   UNL     1      -7.946  -0.306   5.421  0.00  0.00    +0.167 C 
ATOM     23  O   UNL     1      -9.047  -0.547   4.969  0.00  0.00    -0.292 OA
ATOM     24  C   UNL     1      -7.810   0.511   6.680  0.00  0.00    +0.092 C 
ENDBRANCH  19  22
ENDBRANCH  15  17
ENDBRANCH   1   9
BRANCH   1  25
ATOM     25  C   UNL     1       0.230  -4.967  -0.328  0.00  0.00    +0.035 C 
BRANCH  25  27
ATOM     26  C   UNL     1       2.057  -5.670  -1.880  0.00  0.00    +0.004 C 
ATOM     27  C   UNL     1       1.728  -4.868  -0.619  0.00  0.00    -0.001 C 
ENDBRANCH  25  27
ENDBRANCH   1  25
BRANCH   4  28
ATOM     28  C   UNL     1       1.688  -1.012   1.744  0.00  0.00    +0.116 C 
BRANCH  28  29
ATOM     29  C   UNL     1       0.863  -0.211   2.753  0.00  0.00    +0.004 C 
BRANCH  29  30
ATOM     30  C   UNL     1       1.522   1.149   2.987  0.00  0.00    -0.068 C 
ATOM     31  C   UNL     1       2.912   0.971   3.633  0.00  0.00    -0.017 C 
ATOM     32  C   UNL     1       3.044   2.140   4.630  0.00  0.00    -0.020 C 
ATOM     33  C   UNL     1       1.723   2.928   4.502  0.00  0.00    -0.079 C 
ATOM     34  C   UNL     1      -0.395   2.610   3.336  0.00  0.00    -0.096 C 
ATOM     35  N   UNL     1       0.782   1.940   3.977  0.00  0.00    +0.380 N 
ATOM     36  H   UNL     1       0.452   1.332   4.736  0.00  0.00    -0.082 HD
ENDBRANCH  29  30
ENDBRANCH  28  29
ENDBRANCH   4  28
TORSDOF 8
