REMARK  Name = ZINC13495912
REMARK  14 active torsions:
REMARK  status: ('A' for Active; 'I' for Inactive)
REMARK    1  A    between atoms: C_1  and  C_2
REMARK    2  A    between atoms: C_2  and  C_3
REMARK    3  A    between atoms: C_3  and  C_5
REMARK    4  A    between atoms: C_3  and  N_72
REMARK    5  A    between atoms: N_9  and  C_10
REMARK    6  A    between atoms: C_10  and  C_11
REMARK    7  A    between atoms: C_16  and  C_17
REMARK    8  A    between atoms: C_16  and  N_72
REMARK    9  A    between atoms: C_17  and  C_18
REMARK   10  A    between atoms: C_23  and  C_24
REMARK   11  A    between atoms: C_25  and  C_26
REMARK   12  A    between atoms: C_25  and  N_72
REMARK   13  A    between atoms: C_30  and  C_39
REMARK   14  A    between atoms: C_32  and  C_38
REMARK                            x       y       z     vdW  Elec       q    Type
REMARK                         _______ _______ _______ _____ _____    ______ ____
ROOT
ATOM      1  N   UNL     1      -1.654   8.902  -0.488  0.00  0.00    +0.389 N 
ATOM      2  H   UNL     1      -0.721   8.482  -0.395  0.00  0.00    -0.080 HD
ENDROOT
BRANCH   1   3
ATOM      3  C   UNL     1      -1.704   9.688  -1.739  0.00  0.00    +0.003 C 
BRANCH   3   4
ATOM      4  C   UNL     1      -3.033  10.387  -1.870  0.00  0.00    +0.139 A 
ATOM      5  N   UNL     1      -3.905  10.597  -0.914  0.00  0.00    -0.115 NA
ATOM      6  N   UNL     1      -4.909  11.224  -1.422  0.00  0.00    -0.023 NA
ATOM      7  N   UNL     1      -4.700  11.420  -2.677  0.00  0.00    -0.044 NA
ATOM      8  N   UNL     1      -3.551  10.924  -2.990  0.00  0.00    -0.223 N 
BRANCH   8   9
ATOM      9  C   UNL     1      -2.930  10.938  -4.317  0.00  0.00    +0.221 C 
BRANCH   9  10
ATOM     10  C   UNL     1      -3.395   9.739  -5.102  0.00  0.00    +0.126 A 
ATOM     11  C   UNL     1      -4.529   9.662  -5.822  0.00  0.00    +0.046 A 
ATOM     12  C   UNL     1      -4.566   8.368  -6.391  0.00  0.00    +0.041 A 
ATOM     13  C   UNL     1      -3.457   7.729  -5.978  0.00  0.00    +0.195 A 
ATOM     14  O   UNL     1      -2.751   8.565  -5.198  0.00  0.00    -0.466 OA
ENDBRANCH   9  10
ENDBRANCH   8   9
ENDBRANCH   3   4
BRANCH   3  16
ATOM     15  C   UNL     1       0.769  10.015  -1.617  0.00  0.00    +0.002 C 
ATOM     16  C   UNL     1      -0.581  10.727  -1.716  0.00  0.00    -0.011 C 
ENDBRANCH   3  16
ENDBRANCH   1   3
BRANCH   1  17
ATOM     17  C   UNL     1      -2.664   7.823  -0.529  0.00  0.00    -0.073 C 
BRANCH  17  18
ATOM     18  C   UNL     1      -2.333   6.878  -1.685  0.00  0.00    +0.017 C 
BRANCH  18  19
ATOM     19  C   UNL     1      -3.360   5.777  -1.744  0.00  0.00    -0.046 A 
ATOM     20  C   UNL     1      -3.073   4.534  -1.212  0.00  0.00    +0.004 A 
ATOM     21  C   UNL     1      -4.017   3.526  -1.262  0.00  0.00    +0.000 A 
ATOM     22  C   UNL     1      -5.245   3.758  -1.853  0.00  0.00    +0.000 A 
ATOM     23  C   UNL     1      -5.531   4.999  -2.389  0.00  0.00    +0.003 A 
ATOM     24  C   UNL     1      -4.588   6.009  -2.335  0.00  0.00    -0.047 A 
ATOM     25  C   UNL     1      -4.899   7.362  -2.920  0.00  0.00    +0.044 C 
ENDBRANCH  18  19
ENDBRANCH  17  18
ENDBRANCH   1  17
BRANCH   1  26
ATOM     26  C   UNL     1      -1.902   9.783   0.673  0.00  0.00    -0.037 C 
BRANCH  26  27
ATOM     27  C   UNL     1      -1.359   9.114   1.910  0.00  0.00    +0.001 A 
ATOM     28  C   UNL     1      -0.106   9.403   2.339  0.00  0.00    +0.017 A 
ATOM     29  C   UNL     1       0.391   8.737   3.544  0.00  0.00    -0.001 A 
ATOM     30  C   UNL     1       1.675   8.995   4.036  0.00  0.00    +0.013 A 
ATOM     31  C   UNL     1       2.109   8.357   5.163  0.00  0.00    -0.050 A 
ATOM     32  C   UNL     1       1.287   7.455   5.825  0.00  0.00    +0.008 A 
ATOM     33  C   UNL     1       0.021   7.181   5.356  0.00  0.00    -0.026 A 
ATOM     34  C   UNL     1      -0.445   7.823   4.213  0.00  0.00    +0.052 A 
ATOM     35  N   UNL     1      -1.709   7.573   3.724  0.00  0.00    -0.322 N 
ATOM     36  H   UNL     1      -2.284   6.942   4.186  0.00  0.00    +0.169 HD
ATOM     37  C   UNL     1      -2.158   8.189   2.617  0.00  0.00    +0.251 A 
ATOM     38  O   UNL     1      -3.281   7.943   2.213  0.00  0.00    -0.268 OA
ATOM     39  C   UNL     1      -0.858   6.195   6.081  0.00  0.00    +0.046 C 
ATOM     40  C   UNL     1       3.492   8.635   5.693  0.00  0.00    +0.044 C 
ENDBRANCH  26  27
ENDBRANCH   1  26
TORSDOF 10
