REMARK  Name = ZINC39637892
REMARK  8 active torsions:
REMARK  status: ('A' for Active; 'I' for Inactive)
REMARK    1  A    between atoms: C_1  and  C_2
REMARK    2  A    between atoms: C_2  and  C_3
REMARK    3  A    between atoms: C_3  and  C_5
REMARK    4  A    between atoms: C_3  and  N_8
REMARK    5  A    between atoms: C_5  and  O_6
REMARK    6  A    between atoms: O_6  and  C_7
REMARK    7  A    between atoms: C_9  and  C_11
REMARK    8  A    between atoms: C_22  and  C_24
REMARK                            x       y       z     vdW  Elec       q    Type
REMARK                         _______ _______ _______ _____ _____    ______ ____
ROOT
ATOM      1  C   UNL     1      -3.101   1.525  -2.550  0.00  0.00    +0.100 C 
ATOM      2  C   UNL     1      -2.154   1.718  -3.754  0.00  0.00    +0.121 C 
ATOM      3  N   UNL     1      -2.758   2.825  -4.532  0.00  0.00    -0.296 N 
ATOM      4  C   UNL     1      -3.246   3.775  -3.504  0.00  0.00    +0.115 C 
ATOM      5  C   UNL     1      -3.816   2.877  -2.388  0.00  0.00    -0.004 C 
ATOM      6  C   UNL     1      -3.507   3.477  -1.019  0.00  0.00    -0.010 C 
ATOM      7  C   UNL     1      -4.275   4.793  -0.859  0.00  0.00    -0.082 C 
ATOM      8  N   UNL     1      -5.715   4.540  -0.992  0.00  0.00    +0.379 N 
ATOM      9  C   UNL     1      -6.015   4.051  -2.343  0.00  0.00    -0.082 C 
ATOM     10  C   UNL     1      -5.321   2.704  -2.566  0.00  0.00    -0.010 C 
ATOM     11  C   UNL     1      -2.845   2.942  -5.872  0.00  0.00    +0.247 C 
ATOM     12  O   UNL     1      -3.294   3.958  -6.366  0.00  0.00    -0.270 OA
ATOM     13  H   UNL     1      -5.997   3.848  -0.314  0.00  0.00    -0.086 HD
ATOM     14  H   UNL     1      -6.222   5.397  -0.826  0.00  0.00    -0.086 HD
ENDROOT
BRANCH  11  15
ATOM     15  C   UNL     1      -2.395   1.835  -6.741  0.00  0.00    +0.045 A 
ATOM     16  C   UNL     1      -1.133   1.261  -6.550  0.00  0.00    +0.014 A 
ATOM     17  C   UNL     1      -0.710   0.229  -7.359  0.00  0.00    +0.001 A 
ATOM     18  C   UNL     1      -1.529  -0.253  -8.369  0.00  0.00    +0.012 A 
ATOM     19  C   UNL     1      -2.786   0.303  -8.575  0.00  0.00    +0.031 A 
ATOM     20  C   UNL     1      -3.232   1.352  -7.755  0.00  0.00    +0.006 A 
ATOM     21  C   UNL     1      -4.596   1.747  -8.186  0.00  0.00    -0.006 A 
ATOM     22  C   UNL     1      -5.471   2.719  -7.718  0.00  0.00    +0.009 A 
ATOM     23  C   UNL     1      -6.712   2.880  -8.315  0.00  0.00    +0.001 A 
ATOM     24  C   UNL     1      -7.088   2.078  -9.375  0.00  0.00    +0.001 A 
ATOM     25  C   UNL     1      -6.227   1.103  -9.853  0.00  0.00    +0.012 A 
ATOM     26  C   UNL     1      -4.980   0.932  -9.265  0.00  0.00    +0.030 A 
ATOM     27  C   UNL     1      -3.859   0.006  -9.554  0.00  0.00    +0.194 C 
ATOM     28  O   UNL     1      -3.830  -0.845 -10.420  0.00  0.00    -0.287 OA
ENDBRANCH  11  15
BRANCH   1  30
ATOM     29  N   UNL     1      -2.908   0.565  -0.278  0.00  0.00    -0.310 N 
ATOM     30  C   UNL     1      -2.312   1.197  -1.308  0.00  0.00    +0.218 C 
ATOM     31  O   UNL     1      -1.140   1.501  -1.237  0.00  0.00    -0.275 OA
ATOM     32  H   UNL     1      -3.845   0.321  -0.335  0.00  0.00    +0.149 HD
BRANCH  29  33
ATOM     33  C   UNL     1      -2.141   0.246   0.928  0.00  0.00    +0.098 C 
BRANCH  33  35
ATOM     34  C   UNL     1      -0.368  -0.929  -0.382  0.00  0.00    +0.006 C 
ATOM     35  C   UNL     1      -1.407  -1.082   0.730  0.00  0.00    +0.021 C 
ENDBRANCH  33  35
BRANCH  33  36
ATOM     36  C   UNL     1      -3.091   0.130   2.122  0.00  0.00    +0.181 C 
BRANCH  36  37
ATOM     37  O   UNL     1      -3.968  -0.982   1.926  0.00  0.00    -0.381 OA
ATOM     38  C   UNL     1      -4.902  -1.180   2.990  0.00  0.00    +0.194 C 
ENDBRANCH  36  37
ENDBRANCH  33  36
ENDBRANCH  29  33
ENDBRANCH   1  30
TORSDOF 6
