REMARK  Name = ZINC39688677
REMARK  9 active torsions:
REMARK  status: ('A' for Active; 'I' for Inactive)
REMARK    1  A    between atoms: C_1  and  C_2
REMARK    2  A    between atoms: C_5  and  O_8
REMARK    3  A    between atoms: O_8  and  C_9
REMARK    4  A    between atoms: C_10  and  C_15
REMARK    5  A    between atoms: C_19  and  C_28
REMARK    6  A    between atoms: N_30  and  C_31
REMARK    7  A    between atoms: C_31  and  C_33
REMARK    8  A    between atoms: C_31  and  C_34
REMARK    9  A    between atoms: C_34  and  C_35
REMARK                            x       y       z     vdW  Elec       q    Type
REMARK                         _______ _______ _______ _____ _____    ______ ____
ROOT
ATOM      1  C   UNL     1       0.280  -6.857  -0.123  0.00  0.00    +0.252 C 
ATOM      2  O   UNL     1       0.241  -6.286  -1.196  0.00  0.00    -0.270 OA
ATOM      3  N   UNL     1       0.308  -8.204  -0.077  0.00  0.00    -0.296 N 
ATOM      4  C   UNL     1       0.428  -9.069   1.121  0.00  0.00    +0.121 C 
ATOM      5  C   UNL     1      -0.526 -10.252   0.844  0.00  0.00    +0.100 C 
ATOM      6  C   UNL     1      -0.653 -10.304  -0.688  0.00  0.00    -0.004 C 
ATOM      7  C   UNL     1       0.220  -9.154  -1.211  0.00  0.00    +0.115 C 
ATOM      8  C   UNL     1      -0.140 -11.640  -1.216  0.00  0.00    -0.010 C 
ATOM      9  C   UNL     1      -0.330 -11.691  -2.735  0.00  0.00    -0.082 C 
ATOM     10  N   UNL     1      -1.752 -11.528  -3.058  0.00  0.00    +0.379 N 
ATOM     11  C   UNL     1      -2.215 -10.203  -2.629  0.00  0.00    -0.082 C 
ATOM     12  C   UNL     1      -2.105 -10.089  -1.106  0.00  0.00    -0.010 C 
ATOM     13  H   UNL     1      -1.883 -11.623  -4.054  0.00  0.00    -0.086 HD
ATOM     14  H   UNL     1      -2.287 -12.240  -2.582  0.00  0.00    -0.086 HD
ENDROOT
BRANCH   1  16
ATOM     15  C   UNL     1      -0.432  -4.881   1.234  0.00  0.00    +0.233 A 
ATOM     16  C   UNL     1       0.297  -6.075   1.128  0.00  0.00    +0.099 A 
ATOM     17  C   UNL     1       1.040  -6.512   2.231  0.00  0.00    +0.020 A 
ATOM     18  C   UNL     1       1.022  -5.742   3.381  0.00  0.00    +0.021 A 
ATOM     19  C   UNL     1       0.278  -4.577   3.408  0.00  0.00    +0.114 A 
ATOM     20  N   UNL     1      -0.411  -4.181   2.356  0.00  0.00    -0.220 NA
BRANCH  15  21
ATOM     21  O   UNL     1      -1.159  -4.440   0.179  0.00  0.00    -0.437 OA
BRANCH  21  26
ATOM     22  C   UNL     1      -3.661   0.587   0.607  0.00  0.00    +0.044 C 
ATOM     23  C   UNL     1      -2.992  -0.758   0.493  0.00  0.00    -0.050 A 
ATOM     24  C   UNL     1      -1.612  -0.843   0.485  0.00  0.00    +0.007 A 
ATOM     25  C   UNL     1      -0.995  -2.075   0.380  0.00  0.00    +0.046 A 
ATOM     26  C   UNL     1      -1.762  -3.227   0.283  0.00  0.00    +0.130 A 
ATOM     27  C   UNL     1      -3.147  -3.139   0.291  0.00  0.00    +0.046 A 
ATOM     28  C   UNL     1      -3.758  -1.905   0.402  0.00  0.00    +0.007 A 
ENDBRANCH  21  26
ENDBRANCH  15  21
ENDBRANCH   1  16
BRANCH   5  29
ATOM     29  C   UNL     1      -1.871 -10.001   1.475  0.00  0.00    +0.218 C 
ATOM     30  O   UNL     1      -2.317  -8.874   1.525  0.00  0.00    -0.275 OA
ATOM     31  N   UNL     1      -2.579 -11.028   1.985  0.00  0.00    -0.312 N 
ATOM     32  H   UNL     1      -2.223 -11.930   1.945  0.00  0.00    +0.149 HD
BRANCH  31  33
ATOM     33  C   UNL     1      -3.887 -10.784   2.599  0.00  0.00    +0.074 C 
ATOM     34  C   UNL     1      -3.696 -10.381   4.062  0.00  0.00    +0.028 C 
BRANCH  33  35
ATOM     35  C   UNL     1      -4.730 -12.058   2.527  0.00  0.00    +0.057 C 
BRANCH  35  36
ATOM     36  C   UNL     1      -5.022 -12.386   1.085  0.00  0.00    -0.045 A 
ATOM     37  C   UNL     1      -6.152 -11.874   0.475  0.00  0.00    +0.006 A 
ATOM     38  C   UNL     1      -6.420 -12.174  -0.847  0.00  0.00    +0.038 A 
ATOM     39  C   UNL     1      -5.557 -12.988  -1.561  0.00  0.00    +0.123 A 
ATOM     40  C   UNL     1      -4.426 -13.501  -0.949  0.00  0.00    +0.038 A 
ATOM     41  C   UNL     1      -4.157 -13.195   0.372  0.00  0.00    +0.006 A 
ATOM     42  F   UNL     1      -5.818 -13.282  -2.853  0.00  0.00    -0.205 F 
ENDBRANCH  35  36
ENDBRANCH  33  35
ENDBRANCH  31  33
ENDBRANCH   5  29
TORSDOF 7
