REMARK  Name = ZINC66688250
REMARK  12 active torsions:
REMARK  status: ('A' for Active; 'I' for Inactive)
REMARK    1  A    between atoms: C_1  and  C_2
REMARK    2  A    between atoms: C_2  and  C_3
REMARK    3  A    between atoms: C_3  and  N_4
REMARK    4  A    between atoms: N_4  and  C_5
REMARK    5  A    between atoms: C_5  and  C_6
REMARK    6  A    between atoms: C_11  and  O_12
REMARK    7  A    between atoms: N_15  and  C_16
REMARK    8  A    between atoms: C_16  and  C_17
REMARK    9  A    between atoms: C_17  and  C_19
REMARK   10  A    between atoms: C_17  and  N_25
REMARK   11  A    between atoms: N_25  and  C_26
REMARK   12  A    between atoms: N_25  and  C_27
REMARK                            x       y       z     vdW  Elec       q    Type
REMARK                         _______ _______ _______ _____ _____    ______ ____
ROOT
ATOM      1  N   UNL     1      -0.801  -0.992  -0.207  0.00  0.00    -0.281 N 
ATOM      2  C   UNL     1      -1.035  -1.841  -1.227  0.00  0.00    +0.302 C 
ATOM      3  O   UNL     1      -1.205  -3.025  -1.005  0.00  0.00    -0.253 OA
ATOM      4  N   UNL     1      -1.079  -1.380  -2.492  0.00  0.00    -0.300 N 
ATOM      5  H   UNL     1      -0.943  -0.436  -2.669  0.00  0.00    +0.150 HD
ENDROOT
BRANCH   1   6
ATOM      6  C   UNL     1      -0.595   0.434  -0.474  0.00  0.00    +0.109 C 
BRANCH   6   8
ATOM      7  C   UNL     1       1.109   2.190  -0.979  0.00  0.00    +0.005 C 
ATOM      8  C   UNL     1       0.894   0.701  -0.700  0.00  0.00    +0.016 C 
ENDBRANCH   6   8
ENDBRANCH   1   6
BRANCH   1   9
ATOM      9  C   UNL     1      -0.753  -1.494   1.169  0.00  0.00    +0.148 C 
BRANCH   9  10
ATOM     10  C   UNL     1      -2.133  -1.440   1.772  0.00  0.00    +0.011 A 
ATOM     11  C   UNL     1      -2.480  -0.399   2.612  0.00  0.00    +0.009 A 
ATOM     12  C   UNL     1      -3.746  -0.350   3.166  0.00  0.00    +0.001 A 
ATOM     13  C   UNL     1      -4.668  -1.340   2.880  0.00  0.00    +0.004 A 
ATOM     14  C   UNL     1      -4.326  -2.382   2.040  0.00  0.00    +0.046 A 
ATOM     15  C   UNL     1      -3.058  -2.432   1.479  0.00  0.00    +0.122 A 
BRANCH  15  16
ATOM     16  O   UNL     1      -2.721  -3.453   0.648  0.00  0.00    -0.506 OA
ATOM     17  H   UNL     1      -2.339  -4.218   1.099  0.00  0.00    +0.292 HD
ENDBRANCH  15  16
ENDBRANCH   9  10
ENDBRANCH   1   9
BRANCH   4  18
ATOM     18  C   UNL     1      -1.333  -2.303  -3.600  0.00  0.00    +0.095 C 
BRANCH  18  19
ATOM     19  C   UNL     1      -1.459  -1.513  -4.904  0.00  0.00    -0.021 C 
BRANCH  19  20
ATOM     20  C   UNL     1      -2.678  -0.629  -4.840  0.00  0.00    -0.059 A 
ATOM     21  C   UNL     1      -3.932  -1.161  -5.075  0.00  0.00    +0.002 A 
ATOM     22  C   UNL     1      -5.050  -0.351  -5.016  0.00  0.00    +0.000 A 
ATOM     23  C   UNL     1      -4.914   0.993  -4.720  0.00  0.00    +0.000 A 
ATOM     24  C   UNL     1      -3.661   1.526  -4.484  0.00  0.00    +0.000 A 
ATOM     25  C   UNL     1      -2.543   0.714  -4.539  0.00  0.00    +0.002 A 
ENDBRANCH  19  20
BRANCH  19  26
ATOM     26  N   UNL     1      -1.590  -2.445  -6.032  0.00  0.00    +0.382 N 
ATOM     27  C   UNL     1      -1.762  -1.686  -7.278  0.00  0.00    -0.096 C 
ATOM     28  C   UNL     1      -0.380  -3.273  -6.126  0.00  0.00    -0.096 C 
ATOM     29  H   UNL     1      -2.393  -3.039  -5.886  0.00  0.00    -0.082 HD
ENDBRANCH  19  26
ENDBRANCH  18  19
ENDBRANCH   4  18
TORSDOF 9
