REMARK  Name = ZINC37944021
REMARK  4 active torsions:
REMARK  status: ('A' for Active; 'I' for Inactive)
REMARK    1  A    between atoms: C_1  and  C_2
REMARK    2  A    between atoms: C_7  and  C_9
REMARK    3  A    between atoms: C_7  and  N_12
REMARK    4  A    between atoms: N_12  and  C_13
REMARK                            x       y       z     vdW  Elec       q    Type
REMARK                         _______ _______ _______ _____ _____    ______ ____
ROOT
ATOM      1  C   UNL     1      -0.429   1.475   0.220  0.00  0.00    +0.007 C 
ATOM      2  C   UNL     1      -0.392  -0.054   0.235  0.00  0.00    -0.012 C 
ATOM      3  C   UNL     1      -1.801  -0.596   0.483  0.00  0.00    +0.003 C 
ATOM      4  C   UNL     1      -1.764  -2.126   0.497  0.00  0.00    +0.003 C 
ATOM      5  C   UNL     1      -0.831  -2.603   1.612  0.00  0.00    +0.035 C 
ATOM      6  C   UNL     1       0.578  -2.061   1.364  0.00  0.00    +0.109 C 
ATOM      7  C   UNL     1       0.541  -0.531   1.349  0.00  0.00    +0.038 C 
ENDROOT
BRANCH   6   8
ATOM      8  C   UNL     1       1.083  -2.564   0.036  0.00  0.00    +0.234 C 
ATOM      9  O   UNL     1       0.299  -2.957  -0.801  0.00  0.00    -0.274 OA
ATOM     10  N   UNL     1       2.406  -2.576  -0.221  0.00  0.00    -0.328 N 
ATOM     11  H   UNL     1       3.037  -2.330   0.473  0.00  0.00    +0.145 HD
ATOM     12  H   UNL     1       2.727  -2.831  -1.100  0.00  0.00    +0.145 HD
ENDBRANCH   6   8
BRANCH   6  13
ATOM     13  N   UNL     1       1.472  -2.517   2.431  0.00  0.00    -0.330 N 
ATOM     14  H   UNL     1       1.898  -1.872   3.016  0.00  0.00    +0.147 HD
BRANCH  13  15
ATOM     15  C   UNL     1       1.711  -3.883   2.605  0.00  0.00    +0.042 A 
ATOM     16  C   UNL     1       1.194  -4.801   1.700  0.00  0.00    +0.024 A 
ATOM     17  C   UNL     1       1.432  -6.150   1.876  0.00  0.00    +0.002 A 
ATOM     18  C   UNL     1       2.185  -6.588   2.951  0.00  0.00    +0.001 A 
ATOM     19  C   UNL     1       2.701  -5.677   3.854  0.00  0.00    +0.017 A 
ATOM     20  C   UNL     1       2.471  -4.325   3.682  0.00  0.00    +0.039 A 
ATOM     21 BR   UNL     1       3.183  -3.079   4.913  0.00  0.00    -0.048 Br
ENDBRANCH  13  15
ENDBRANCH   6  13
TORSDOF 3
