REMARK  Name = ZINC06625432
REMARK  8 active torsions:
REMARK  status: ('A' for Active; 'I' for Inactive)
REMARK    1  A    between atoms: C_1  and  C_2
REMARK    2  A    between atoms: C_2  and  C_20
REMARK    3  A    between atoms: C_5  and  C_10
REMARK    4  A    between atoms: C_7  and  C_8
REMARK    5  A    between atoms: C_7  and  C_9
REMARK    6  A    between atoms: N_22  and  N_23
REMARK    7  A    between atoms: C_24  and  C_25
REMARK    8  A    between atoms: C_30  and  O_31
REMARK                            x       y       z     vdW  Elec       q    Type
REMARK                         _______ _______ _______ _____ _____    ______ ____
ROOT
ATOM      1  C   UNL     1      -0.086   1.351  -0.198  0.00  0.00    +0.021 C 
ATOM      2  C   UNL     1       0.044  -0.170  -0.307  0.00  0.00    +0.052 C 
ATOM      3  C   UNL     1       0.928  -0.540  -1.516  0.00  0.00    +0.017 C 
ATOM      4  C   UNL     1       2.340  -0.735  -0.908  0.00  0.00    +0.013 C 
ATOM      5  C   UNL     1       2.036  -1.421   0.448  0.00  0.00    +0.062 C 
ATOM      6  C   UNL     1       0.748  -0.730   0.941  0.00  0.00    -0.012 C 
ATOM      7  C   UNL     1      -0.156  -1.746   1.641  0.00  0.00    +0.012 C 
ATOM      8  C   UNL     1       1.099   0.409   1.900  0.00  0.00    +0.012 C 
ENDROOT
BRANCH   5   9
ATOM      9  C   UNL     1       3.166  -1.192   1.419  0.00  0.00    +0.112 A 
ATOM     10  N   UNL     1       3.926  -0.066   1.479  0.00  0.00    -0.342 N 
ATOM     11  H   UNL     1       3.838   0.718   0.915  0.00  0.00    +0.167 HD
ATOM     12  C   UNL     1       4.846  -0.245   2.493  0.00  0.00    +0.066 A 
ATOM     13  C   UNL     1       5.866   0.534   3.021  0.00  0.00    +0.028 A 
ATOM     14  C   UNL     1       6.626   0.049   4.064  0.00  0.00    +0.002 A 
ATOM     15  C   UNL     1       6.377  -1.212   4.588  0.00  0.00    +0.002 A 
ATOM     16  C   UNL     1       5.377  -1.992   4.081  0.00  0.00    +0.030 A 
ATOM     17  C   UNL     1       4.594  -1.521   3.024  0.00  0.00    +0.089 A 
ATOM     18  N   UNL     1       3.552  -2.042   2.326  0.00  0.00    -0.232 NA
ENDBRANCH   5   9
BRANCH   2  19
ATOM     19  C   UNL     1      -1.320  -0.795  -0.454  0.00  0.00    +0.239 C 
ATOM     20  O   UNL     1      -1.542  -1.559  -1.370  0.00  0.00    -0.273 OA
ATOM     21  N   UNL     1      -2.293  -0.504   0.431  0.00  0.00    -0.207 N 
ATOM     22  H   UNL     1      -2.137   0.157   1.124  0.00  0.00    +0.177 HD
BRANCH  21  23
ATOM     23  N   UNL     1      -3.531  -1.155   0.351  0.00  0.00    -0.188 NA
ATOM     24  C   UNL     1      -4.468  -0.875   1.204  0.00  0.00    +0.142 C 
BRANCH  24  25
ATOM     25  C   UNL     1      -5.771  -1.561   1.119  0.00  0.00    +0.036 A 
ATOM     26  C   UNL     1      -6.784  -1.258   2.031  0.00  0.00    +0.013 A 
ATOM     27  C   UNL     1      -8.000  -1.903   1.947  0.00  0.00    +0.001 A 
ATOM     28  C   UNL     1      -8.221  -2.849   0.961  0.00  0.00    +0.004 A 
ATOM     29  C   UNL     1      -7.226  -3.158   0.052  0.00  0.00    +0.046 A 
ATOM     30  C   UNL     1      -6.000  -2.516   0.120  0.00  0.00    +0.125 A 
BRANCH  30  31
ATOM     31  O   UNL     1      -5.024  -2.814  -0.776  0.00  0.00    -0.506 OA
ATOM     32  H   UNL     1      -4.443  -3.535  -0.498  0.00  0.00    +0.292 HD
ENDBRANCH  30  31
ENDBRANCH  24  25
ENDBRANCH  21  23
ENDBRANCH   2  19
TORSDOF 5
