REMARK  Name = ZINC39928728
REMARK  16 active torsions:
REMARK  status: ('A' for Active; 'I' for Inactive)
REMARK    1  A    between atoms: C_1  and  C_2
REMARK    2  A    between atoms: C_2  and  O_3
REMARK    3  A    between atoms: O_3  and  C_4
REMARK    4  A    between atoms: C_6  and  C_16
REMARK    5  A    between atoms: C_8  and  O_13
REMARK    6  A    between atoms: C_9  and  O_10
REMARK    7  A    between atoms: O_10  and  C_11
REMARK    8  A    between atoms: C_11  and  C_12
REMARK    9  A    between atoms: O_13  and  C_14
REMARK   10  A    between atoms: C_14  and  C_15
REMARK   11  A    between atoms: N_18  and  C_19
REMARK   12  A    between atoms: N_18  and  C_33
REMARK   13  A    between atoms: C_19  and  C_20
REMARK   14  A    between atoms: C_25  and  C_32
REMARK   15  A    between atoms: C_37  and  O_39
REMARK   16  A    between atoms: O_39  and  C_40
REMARK                            x       y       z     vdW  Elec       q    Type
REMARK                         _______ _______ _______ _____ _____    ______ ____
ROOT
ATOM      1  C   UNL     1      -0.665  -4.387  -1.617  0.00  0.00    +0.251 C 
ATOM      2  O   UNL     1      -1.528  -4.947  -2.265  0.00  0.00    -0.270 OA
ATOM      3  N   UNL     1      -0.691  -3.047  -1.476  0.00  0.00    -0.266 N 
ENDROOT
BRANCH   1   6
ATOM      4  C   UNL     1       1.102  -7.028   0.387  0.00  0.00    +0.166 A 
ATOM      5  C   UNL     1       0.094  -6.292  -0.206  0.00  0.00    +0.062 A 
ATOM      6  C   UNL     1       0.410  -5.175  -0.982  0.00  0.00    +0.044 A 
ATOM      7  C   UNL     1       1.746  -4.804  -1.158  0.00  0.00    +0.062 A 
ATOM      8  C   UNL     1       2.750  -5.544  -0.563  0.00  0.00    +0.166 A 
ATOM      9  C   UNL     1       2.432  -6.654   0.214  0.00  0.00    +0.204 A 
BRANCH   4  10
ATOM     10  O   UNL     1       0.795  -8.116   1.143  0.00  0.00    -0.488 OA
BRANCH  10  12
ATOM     11  C   UNL     1      -0.737  -9.686   2.156  0.00  0.00    +0.048 C 
ATOM     12  C   UNL     1      -0.590  -8.443   1.277  0.00  0.00    +0.226 C 
ENDBRANCH  10  12
ENDBRANCH   4  10
BRANCH   9  13
ATOM     13  O   UNL     1       3.422  -7.377   0.802  0.00  0.00    -0.485 OA
BRANCH  13  14
ATOM     14  C   UNL     1       3.969  -8.461   0.049  0.00  0.00    +0.226 C 
ATOM     15  C   UNL     1       5.061  -9.151   0.868  0.00  0.00    +0.048 C 
ENDBRANCH  13  14
ENDBRANCH   9  13
BRANCH   8  16
ATOM     16  O   UNL     1       4.051  -5.184  -0.734  0.00  0.00    -0.488 OA
BRANCH  16  17
ATOM     17  C   UNL     1       4.638  -4.371   0.284  0.00  0.00    +0.226 C 
ATOM     18  C   UNL     1       6.103  -4.099  -0.063  0.00  0.00    +0.048 C 
ENDBRANCH  16  17
ENDBRANCH   8  16
ENDBRANCH   1   6
BRANCH   3  19
ATOM     19  C   UNL     1      -1.750  -2.308  -2.012  0.00  0.00    +0.040 A 
ATOM     20  C   UNL     1      -2.525  -1.503  -1.186  0.00  0.00    +0.024 A 
ATOM     21  C   UNL     1      -3.572  -0.773  -1.716  0.00  0.00    +0.005 A 
ATOM     22  C   UNL     1      -3.851  -0.842  -3.067  0.00  0.00    +0.046 A 
ATOM     23  C   UNL     1      -3.081  -1.645  -3.897  0.00  0.00    +0.122 A 
ATOM     24  C   UNL     1      -2.026  -2.373  -3.371  0.00  0.00    +0.069 A 
BRANCH  23  25
ATOM     25  O   UNL     1      -3.358  -1.712  -5.226  0.00  0.00    -0.495 OA
ATOM     26  C   UNL     1      -4.383  -0.848  -5.720  0.00  0.00    +0.277 C 
ENDBRANCH  23  25
ENDBRANCH   3  19
BRANCH   3  27
ATOM     27  C   UNL     1       0.391  -2.364  -0.762  0.00  0.00    +0.131 C 
BRANCH  27  28
ATOM     28  C   UNL     1       0.576  -0.959  -1.340  0.00  0.00    +0.116 C 
ATOM     29  C   UNL     1       1.306  -0.124  -0.307  0.00  0.00    -0.003 C 
ATOM     30  C   UNL     1       2.490   0.440  -0.682  0.00  0.00    -0.007 A 
ATOM     31  C   UNL     1       3.259   1.262   0.253  0.00  0.00    +0.012 A 
ATOM     32  C   UNL     1       4.432   1.804  -0.165  0.00  0.00    -0.050 A 
ATOM     33  C   UNL     1       4.911   1.593  -1.458  0.00  0.00    +0.005 A 
ATOM     34  C   UNL     1       4.244   0.841  -2.373  0.00  0.00    +0.024 A 
ATOM     35  C   UNL     1       3.019   0.234  -2.041  0.00  0.00    +0.040 A 
ATOM     36  N   UNL     1       2.374  -0.503  -2.946  0.00  0.00    -0.284 N 
ATOM     37  C   UNL     1       1.220  -1.099  -2.701  0.00  0.00    +0.226 C 
ATOM     38  O   UNL     1       0.678  -1.758  -3.568  0.00  0.00    -0.275 OA
ATOM     39  C   UNL     1       5.234   2.652   0.788  0.00  0.00    +0.044 C 
ATOM     40  H   UNL     1       2.770  -0.605  -3.826  0.00  0.00    +0.155 HD
ENDBRANCH  27  28
ENDBRANCH   3  27
TORSDOF 11
