REMARK  Name = ZINC20424879
REMARK  9 active torsions:
REMARK  status: ('A' for Active; 'I' for Inactive)
REMARK    1  A    between atoms: C_1  and  C_2
REMARK    2  A    between atoms: C_7  and  C_8
REMARK    3  A    between atoms: C_8  and  S_9
REMARK    4  A    between atoms: S_9  and  C_10
REMARK    5  A    between atoms: N_15  and  N_16
REMARK    6  A    between atoms: C_17  and  C_18
REMARK    7  A    between atoms: C_21  and  O_23
REMARK    8  A    between atoms: O_23  and  C_24
REMARK    9  A    between atoms: C_24  and  C_25
REMARK                            x       y       z     vdW  Elec       q    Type
REMARK                         _______ _______ _______ _____ _____    ______ ____
ROOT
ATOM      1  C   UNL     1      -5.261   8.547   0.102  0.00  0.00    +0.210 A 
ATOM      2  N   UNL     1      -3.970   8.992   0.092  0.00  0.00    -0.186 NA
ATOM      3  C   UNL     1      -3.146   7.901   0.078  0.00  0.00    +0.232 A 
ATOM      4  N   UNL     1      -3.898   6.826   0.073  0.00  0.00    -0.245 N 
ATOM      5  N   UNL     1      -5.238   7.236   0.095  0.00  0.00    -0.144 NA
ATOM      6  N   UNL     1      -1.760   7.926   0.064  0.00  0.00    -0.205 N 
ATOM      7  H   UNL     1      -1.227   8.888   0.065  0.00  0.00    +0.177 HD
ATOM      8  H   UNL     1      -3.433   5.830   0.055  0.00  0.00    +0.192 HD
ENDROOT
BRANCH   6   9
ATOM      9  N   UNL     1      -1.038   6.725   0.050  0.00  0.00    -0.184 NA
ATOM     10  C   UNL     1       0.264   6.748   0.038  0.00  0.00    +0.176 C 
BRANCH  10  11
ATOM     11  C   UNL     1       1.019   5.493   0.023  0.00  0.00    +0.151 A 
ATOM     12  C   UNL     1       2.379   5.377   0.009  0.00  0.00    +0.055 A 
ATOM     13  C   UNL     1       2.668   4.000   0.004  0.00  0.00    +0.091 A 
ATOM     14  C   UNL     1       1.482   3.345   0.006  0.00  0.00    +0.287 A 
ATOM     15  O   UNL     1       0.490   4.251   0.021  0.00  0.00    -0.424 OA
BRANCH  14  16
ATOM     16  O   UNL     1       1.322   1.997   0.000  0.00  0.00    -0.459 OA
BRANCH  16  17
ATOM     17  C   UNL     1      -0.018   1.503   0.010  0.00  0.00    +0.267 C 
BRANCH  17  18
ATOM     18  C   UNL     1       0.002  -0.004   0.002  0.00  0.00    -0.010 A 
ATOM     19  C   UNL     1      -0.006  -0.688  -1.199  0.00  0.00    +0.010 A 
ATOM     20  C   UNL     1       0.018  -2.070  -1.208  0.00  0.00    +0.039 A 
ATOM     21  C   UNL     1       0.039  -2.769  -0.013  0.00  0.00    +0.123 A 
ATOM     22  C   UNL     1       0.041  -2.083   1.189  0.00  0.00    +0.039 A 
ATOM     23  C   UNL     1       0.023  -0.701   1.196  0.00  0.00    +0.010 A 
ATOM     24  F   UNL     1       0.057  -4.120  -0.021  0.00  0.00    -0.205 F 
ENDBRANCH  17  18
ENDBRANCH  16  17
ENDBRANCH  14  16
ENDBRANCH  10  11
ENDBRANCH   6   9
BRANCH   1  25
ATOM     25  S   UNL     1      -6.705   9.557   0.122  0.00  0.00    -0.080 S 
BRANCH  25  26
ATOM     26  C   UNL     1      -8.073   8.366   0.129  0.00  0.00    +0.112 C 
BRANCH  26  33
ATOM     27  C   UNL     1      -9.355   9.090  -2.357  0.00  0.00    +0.044 C 
ATOM     28  C   UNL     1      -9.998   9.455  -1.043  0.00  0.00    -0.046 A 
ATOM     29  C   UNL     1     -11.201  10.135  -1.028  0.00  0.00    +0.003 A 
ATOM     30  C   UNL     1     -11.791  10.469   0.177  0.00  0.00    +0.000 A 
ATOM     31  C   UNL     1     -11.178  10.122   1.366  0.00  0.00    +0.000 A 
ATOM     32  C   UNL     1      -9.977   9.437   1.351  0.00  0.00    +0.005 A 
ATOM     33  C   UNL     1      -9.385   9.108   0.146  0.00  0.00    -0.034 A 
ENDBRANCH  26  33
ENDBRANCH  25  26
ENDBRANCH   1  25
TORSDOF 8
