REMARK  Name = ZINC45551730
REMARK  7 active torsions:
REMARK  status: ('A' for Active; 'I' for Inactive)
REMARK    1  A    between atoms: C_1  and  C_2
REMARK    2  A    between atoms: C_2  and  N_3
REMARK    3  A    between atoms: N_3  and  C_4
REMARK    4  A    between atoms: C_4  and  C_6
REMARK    5  A    between atoms: C_4  and  C_15
REMARK    6  A    between atoms: C_6  and  S_7
REMARK    7  A    between atoms: S_7  and  C_8
REMARK                            x       y       z     vdW  Elec       q    Type
REMARK                         _______ _______ _______ _____ _____    ______ ____
ROOT
ATOM      1  C   UNL     1      -1.356  -1.981   0.004  0.00  0.00    +0.026 C 
ENDROOT
BRANCH   1   2
ATOM      2  C   UNL     1      -0.737  -2.482   1.284  0.00  0.00    +0.197 C 
ATOM      3  O   UNL     1      -0.350  -1.694   2.120  0.00  0.00    -0.278 OA
ATOM      4  N   UNL     1      -0.613  -3.807   1.498  0.00  0.00    -0.331 N 
ATOM      5  H   UNL     1      -0.922  -4.438   0.830  0.00  0.00    +0.145 HD
ATOM      6  H   UNL     1      -0.214  -4.130   2.322  0.00  0.00    +0.145 HD
ENDBRANCH   1   2
BRANCH   1   7
ATOM      7  N   UNL     1      -1.376  -0.512   0.012  0.00  0.00    +0.387 N 
ATOM      8  H   UNL     1      -1.848  -0.187   0.843  0.00  0.00    -0.085 HD
ATOM      9  H   UNL     1      -1.864  -0.178  -0.805  0.00  0.00    -0.085 HD
BRANCH   7  11
ATOM     10  C   UNL     1      -0.019   1.526   0.010  0.00  0.00    -0.017 C 
ATOM     11  C   UNL     1       0.002  -0.004   0.002  0.00  0.00    -0.085 C 
ENDBRANCH   7  11
ENDBRANCH   1   7
BRANCH   1  12
ATOM     12  C   UNL     1      -2.787  -2.510  -0.111  0.00  0.00    +0.068 C 
BRANCH  12  13
ATOM     13  S   UNL     1      -3.482  -2.031  -1.716  0.00  0.00    -0.126 S 
BRANCH  13  14
ATOM     14  C   UNL     1      -5.110  -2.705  -1.695  0.00  0.00    +0.008 A 
ATOM     15  C   UNL     1      -5.558  -3.408  -0.583  0.00  0.00    +0.016 A 
ATOM     16  C   UNL     1      -6.834  -3.935  -0.569  0.00  0.00    +0.016 A 
ATOM     17  C   UNL     1      -7.667  -3.762  -1.661  0.00  0.00    +0.018 A 
ATOM     18  C   UNL     1      -7.224  -3.062  -2.769  0.00  0.00    +0.016 A 
ATOM     19  C   UNL     1      -5.951  -2.529  -2.787  0.00  0.00    +0.016 A 
ATOM     20 BR   UNL     1      -9.414  -4.486  -1.637  0.00  0.00    -0.050 Br
ENDBRANCH  13  14
ENDBRANCH  12  13
ENDBRANCH   1  12
TORSDOF 6
