REMARK  Name = ZINC12495641
REMARK  7 active torsions:
REMARK  status: ('A' for Active; 'I' for Inactive)
REMARK    1  A    between atoms: C_1  and  C_2
REMARK    2  A    between atoms: C_2  and  O_3
REMARK    3  A    between atoms: O_3  and  C_4
REMARK    4  A    between atoms: C_4  and  C_6
REMARK    5  A    between atoms: C_6  and  C_26
REMARK    6  A    between atoms: C_11  and  C_13
REMARK    7  A    between atoms: N_22  and  C_25
REMARK                            x       y       z     vdW  Elec       q    Type
REMARK                         _______ _______ _______ _____ _____    ______ ____
ROOT
ATOM      1  C   UNL     1       2.543   0.675  -0.187  0.00  0.00    +0.070 C 
ATOM      2  C   UNL     1       3.335   1.744   0.474  0.00  0.00    +0.090 C 
ATOM      3  C   UNL     1       2.994   1.478   1.994  0.00  0.00    +0.077 C 
ATOM      4  C   UNL     1       3.284  -0.004   2.015  0.00  0.00    -0.026 C 
ATOM      5  C   UNL     1       3.836   2.549   2.572  0.00  0.00    +0.224 C 
ATOM      6  O   UNL     1       4.460   2.513   3.611  0.00  0.00    -0.275 OA
ATOM      7  N   UNL     1       3.761   3.588   1.683  0.00  0.00    -0.245 N 
ATOM      8  C   UNL     1       3.265   3.203   0.463  0.00  0.00    +0.225 C 
ATOM      9  O   UNL     1       2.860   3.917  -0.429  0.00  0.00    -0.275 OA
ATOM     10  C   UNL     1       4.166   4.960   2.000  0.00  0.00    +0.141 C 
ATOM     11  N   UNL     1       2.610  -0.470   0.766  0.00  0.00    +0.398 N 
ATOM     12  H   UNL     1       3.148  -1.238   0.348  0.00  0.00    -0.083 HD
ATOM     13  H   UNL     1       1.661  -0.796   0.984  0.00  0.00    -0.083 HD
ENDROOT
BRANCH   4  14
ATOM     14  C   UNL     1       2.679  -0.650   3.234  0.00  0.00    -0.060 A 
ATOM     15  C   UNL     1       1.305  -0.680   3.390  0.00  0.00    +0.005 A 
ATOM     16  C   UNL     1       0.749  -1.277   4.506  0.00  0.00    +0.038 A 
ATOM     17  C   UNL     1       1.568  -1.837   5.472  0.00  0.00    +0.123 A 
ATOM     18  C   UNL     1       2.943  -1.802   5.317  0.00  0.00    +0.038 A 
ATOM     19  C   UNL     1       3.497  -1.209   4.198  0.00  0.00    +0.005 A 
ATOM     20  F   UNL     1       1.025  -2.417   6.565  0.00  0.00    -0.205 F 
ENDBRANCH   4  14
BRANCH   1  21
ATOM     21  C   UNL     1       1.117   1.121  -0.380  0.00  0.00    -0.047 A 
ATOM     22  C   UNL     1       0.091   0.454   0.263  0.00  0.00    +0.003 A 
ATOM     23  C   UNL     1      -1.218   0.859   0.082  0.00  0.00    +0.000 A 
ATOM     24  C   UNL     1      -1.501   1.938  -0.735  0.00  0.00    +0.000 A 
ATOM     25  C   UNL     1      -0.475   2.606  -1.378  0.00  0.00    +0.000 A 
ATOM     26  C   UNL     1       0.834   2.197  -1.200  0.00  0.00    +0.003 A 
ENDBRANCH   1  21
BRANCH   1  27
ATOM     27  C   UNL     1       3.160   0.302  -1.511  0.00  0.00    +0.301 C 
ATOM     28  O   UNL     1       3.820   1.111  -2.119  0.00  0.00    -0.252 OA
BRANCH  27  29
ATOM     29  O   UNL     1       2.976  -0.928  -2.014  0.00  0.00    -0.466 OA
BRANCH  29  31
ATOM     30  C   UNL     1       3.281  -2.656  -3.702  0.00  0.00    +0.048 C 
ATOM     31  C   UNL     1       3.600  -1.217  -3.293  0.00  0.00    +0.228 C 
ENDBRANCH  29  31
ENDBRANCH  27  29
ENDBRANCH   1  27
TORSDOF 5
