REMARK  Name = ZINC39687505
REMARK  7 active torsions:
REMARK  status: ('A' for Active; 'I' for Inactive)
REMARK    1  A    between atoms: C_1  and  C_2
REMARK    2  A    between atoms: C_2  and  C_3
REMARK    3  A    between atoms: C_3  and  C_5
REMARK    4  A    between atoms: C_3  and  C_6
REMARK    5  A    between atoms: C_6  and  C_7
REMARK    6  A    between atoms: C_11  and  C_20
REMARK    7  A    between atoms: N_22  and  C_23
REMARK                            x       y       z     vdW  Elec       q    Type
REMARK                         _______ _______ _______ _____ _____    ______ ____
ROOT
ATOM      1  C   UNL     1       1.696  -2.539  -2.373  0.00  0.00    +0.216 C 
ATOM      2  O   UNL     1       2.116  -1.722  -3.164  0.00  0.00    -0.276 OA
ATOM      3  N   UNL     1       1.937  -3.851  -2.568  0.00  0.00    -0.300 N 
ATOM      4  C   UNL     1       1.504  -4.989  -1.723  0.00  0.00    +0.121 C 
ATOM      5  C   UNL     1       1.116  -6.096  -2.729  0.00  0.00    +0.100 C 
ATOM      6  C   UNL     1       1.903  -5.758  -4.006  0.00  0.00    -0.004 C 
ATOM      7  C   UNL     1       2.690  -4.481  -3.678  0.00  0.00    +0.115 C 
ATOM      8  C   UNL     1       2.859  -6.895  -4.354  0.00  0.00    -0.010 C 
ATOM      9  C   UNL     1       3.587  -6.562  -5.660  0.00  0.00    -0.082 C 
ATOM     10  N   UNL     1       2.606  -6.374  -6.736  0.00  0.00    +0.379 N 
ATOM     11  C   UNL     1       1.750  -5.220  -6.436  0.00  0.00    -0.082 C 
ATOM     12  C   UNL     1       0.943  -5.497  -5.164  0.00  0.00    -0.010 C 
ATOM     13  H   UNL     1       3.090  -6.215  -7.606  0.00  0.00    -0.086 HD
ATOM     14  H   UNL     1       2.036  -7.203  -6.817  0.00  0.00    -0.086 HD
ENDROOT
BRANCH   5  15
ATOM     15  C   UNL     1      -0.366  -6.064  -2.999  0.00  0.00    +0.218 C 
ATOM     16  O   UNL     1      -0.987  -5.033  -2.852  0.00  0.00    -0.275 OA
ATOM     17  N   UNL     1      -1.002  -7.182  -3.404  0.00  0.00    -0.312 N 
ATOM     18  H   UNL     1      -0.505  -8.007  -3.521  0.00  0.00    +0.149 HD
BRANCH  17  19
ATOM     19  C   UNL     1      -2.443  -7.151  -3.666  0.00  0.00    +0.076 C 
ATOM     20  C   UNL     1      -3.204  -7.367  -2.356  0.00  0.00    +0.041 C 
ATOM     21  C   UNL     1      -4.710  -7.299  -2.628  0.00  0.00    +0.108 C 
ATOM     22  N   UNL     1      -5.043  -8.264  -3.686  0.00  0.00    -0.317 N 
ATOM     23  C   UNL     1      -4.306  -8.202  -4.955  0.00  0.00    +0.108 C 
ATOM     24  C   UNL     1      -2.804  -8.260  -4.657  0.00  0.00    +0.041 C 
ATOM     25  C   UNL     1      -6.036  -9.216  -3.489  0.00  0.00    +0.099 A 
ATOM     26  C   UNL     1      -6.243 -10.204  -4.446  0.00  0.00    +0.042 A 
ATOM     27  C   UNL     1      -7.235 -11.146  -4.237  0.00  0.00    +0.005 A 
ATOM     28  C   UNL     1      -7.989 -11.066  -3.073  0.00  0.00    +0.018 A 
ATOM     29  C   UNL     1      -7.730 -10.059  -2.167  0.00  0.00    +0.084 A 
ATOM     30  N   UNL     1      -6.773  -9.177  -2.389  0.00  0.00    -0.350 N 
ATOM     31  H   UNL     1      -6.609  -8.482  -1.734  0.00  0.00    +0.166 HD
ENDBRANCH  17  19
ENDBRANCH   5  15
BRANCH   1  32
ATOM     32  C   UNL     1       0.903  -2.088  -1.174  0.00  0.00    +0.099 C 
BRANCH  32  33
ATOM     33  C   UNL     1       0.774  -0.564  -1.190  0.00  0.00    -0.006 C 
ATOM     34  C   UNL     1      -0.051  -0.135  -2.405  0.00  0.00    +0.008 C 
BRANCH  33  36
ATOM     35  C   UNL     1       0.061   1.433   0.131  0.00  0.00    +0.004 C 
ATOM     36  C   UNL     1       0.079  -0.097   0.089  0.00  0.00    +0.000 C 
ENDBRANCH  33  36
ENDBRANCH  32  33
ENDBRANCH   1  32
TORSDOF 5
