REMARK  Name = ZINC52839431
REMARK  6 active torsions:
REMARK  status: ('A' for Active; 'I' for Inactive)
REMARK    1  A    between atoms: C_1  and  C_2
REMARK    2  A    between atoms: C_2  and  C_3
REMARK    3  A    between atoms: C_3  and  C_4
REMARK    4  A    between atoms: C_6  and  C_11
REMARK    5  A    between atoms: C_7  and  N_10
REMARK    6  A    between atoms: N_8  and  N_9
REMARK                            x       y       z     vdW  Elec       q    Type
REMARK                         _______ _______ _______ _____ _____    ______ ____
ROOT
ATOM      1  C   UNL     1       0.762  -2.018   1.233  0.00  0.00    +0.107 A 
ATOM      2  N   UNL     1       1.639  -2.759   0.617  0.00  0.00    -0.340 N 
ATOM      3  C   UNL     1       1.350  -4.061   0.827  0.00  0.00    +0.088 A 
ATOM      4  C   UNL     1       0.234  -4.119   1.615  0.00  0.00    +0.139 A 
ATOM      5  N   UNL     1      -0.129  -2.825   1.874  0.00  0.00    -0.241 N 
ATOM      6  H   UNL     1       2.383  -2.427   0.090  0.00  0.00    +0.167 HD
ENDROOT
BRANCH   3   7
ATOM      7  C   UNL     1       2.106  -5.220   0.297  0.00  0.00    +0.007 A 
ATOM      8  C   UNL     1       2.519  -5.235  -1.034  0.00  0.00    +0.059 A 
ATOM      9  C   UNL     1       3.226  -6.319  -1.528  0.00  0.00    +0.164 A 
ATOM     10  C   UNL     1       3.525  -7.391  -0.694  0.00  0.00    +0.180 A 
ATOM     11  C   UNL     1       3.112  -7.376   0.632  0.00  0.00    +0.087 A 
ATOM     12  C   UNL     1       2.410  -6.295   1.130  0.00  0.00    +0.034 A 
ATOM     13 CL   UNL     1       3.484  -8.718   1.669  0.00  0.00    -0.080 Cl
ATOM     14  O   UNL     1       4.227  -8.461  -1.160  0.00  0.00    -0.483 OA
ATOM     15  C   UNL     1       4.301  -8.611  -2.582  0.00  0.00    +0.270 C 
ATOM     16  C   UNL     1       4.649  -7.247  -3.192  0.00  0.00    +0.270 C 
ATOM     17  O   UNL     1       3.620  -6.320  -2.831  0.00  0.00    -0.485 OA
ENDBRANCH   3   7
BRANCH   5  18
ATOM     18  N   UNL     1      -1.191  -2.418   2.631  0.00  0.00    -0.295 N 
ATOM     19  H   UNL     1      -2.020  -2.313   2.064  0.00  0.00    +0.163 HD
ATOM     20  H   UNL     1      -1.354  -3.054   3.396  0.00  0.00    +0.163 HD
ENDBRANCH   5  18
BRANCH   4  21
ATOM     21  N   UNL     1      -0.404  -5.268   2.070  0.00  0.00    -0.342 N 
ATOM     22  H   UNL     1      -0.059  -6.142   1.829  0.00  0.00    +0.144 HD
ATOM     23  H   UNL     1      -1.194  -5.196   2.628  0.00  0.00    +0.144 HD
ENDBRANCH   4  21
BRANCH   1  24
ATOM     24  C   UNL     1       0.742  -0.511   1.242  0.00  0.00    +0.074 C 
BRANCH  24  26
ATOM     25  C   UNL     1      -0.019   1.526   0.010  0.00  0.00    +0.004 C 
ATOM     26  C   UNL     1       0.002  -0.004   0.002  0.00  0.00    +0.004 C 
ENDBRANCH  24  26
ENDBRANCH   1  24
TORSDOF 5
