REMARK  Name = ZINC09286646
REMARK  6 active torsions:
REMARK  status: ('A' for Active; 'I' for Inactive)
REMARK    1  A    between atoms: C_1  and  C_2
REMARK    2  A    between atoms: C_3  and  C_22
REMARK    3  A    between atoms: N_9  and  C_10
REMARK    4  A    between atoms: C_10  and  C_11
REMARK    5  A    between atoms: C_11  and  C_12
REMARK    6  A    between atoms: C_12  and  N_53
REMARK                            x       y       z     vdW  Elec       q    Type
REMARK                         _______ _______ _______ _____ _____    ______ ____
ROOT
ATOM      1  C   UNL     1       1.463   6.248  -0.209  0.00  0.00    +0.049 C 
ATOM      2  C   UNL     1       2.605   5.272  -0.093  0.00  0.00    +0.018 C 
ATOM      3  C   UNL     1       2.414   3.942   0.057  0.00  0.00    +0.126 C 
ATOM      4  S   UNL     1       4.087   3.333   0.126  0.00  0.00    +0.101 S 
ATOM      5  O   UNL     1       4.315   2.841   1.439  0.00  0.00    -0.146 OA
ATOM      6  O   UNL     1       4.319   2.569  -1.049  0.00  0.00    -0.146 OA
ATOM      7  N   UNL     1       4.920   4.776  -0.030  0.00  0.00    -0.113 NA
ATOM      8  C   UNL     1       3.994   5.687  -0.131  0.00  0.00    +0.145 C 
ATOM      9  N   UNL     1       4.328   7.019  -0.276  0.00  0.00    -0.328 N 
ATOM     10  H   UNL     1       3.630   7.689  -0.350  0.00  0.00    +0.147 HD
ENDROOT
BRANCH   3  11
ATOM     11  C   UNL     1       1.150   3.190   0.137  0.00  0.00    +0.003 A 
ATOM     12  C   UNL     1       0.977   2.025  -0.617  0.00  0.00    +0.010 A 
ATOM     13  C   UNL     1      -0.209   1.326  -0.538  0.00  0.00    +0.002 A 
ATOM     14  C   UNL     1      -1.229   1.778   0.281  0.00  0.00    +0.015 A 
ATOM     15  C   UNL     1      -1.064   2.928   1.034  0.00  0.00    +0.018 A 
ATOM     16  C   UNL     1       0.118   3.638   0.965  0.00  0.00    +0.025 A 
ATOM     17 BR   UNL     1      -2.463   3.531   2.154  0.00  0.00    -0.050 Br
ENDBRANCH   3  11
BRANCH   9  18
ATOM     18  C   UNL     1       5.736   7.421  -0.317  0.00  0.00    +0.101 C 
BRANCH  18  19
ATOM     19  C   UNL     1       5.829   8.939  -0.483  0.00  0.00    +0.000 C 
BRANCH  19  20
ATOM     20  C   UNL     1       7.299   9.359  -0.526  0.00  0.00    -0.077 C 
BRANCH  20  30
ATOM     21  C   UNL     1       8.770  11.284  -0.494  0.00  0.00    -0.074 C 
ATOM     22  C   UNL     1       8.876  12.715  -1.024  0.00  0.00    +0.017 C 
ATOM     23  C   UNL     1       7.770  13.560  -0.445  0.00  0.00    -0.048 A 
ATOM     24  C   UNL     1       7.888  14.941  -0.513  0.00  0.00    +0.004 A 
ATOM     25  C   UNL     1       6.896  15.752   0.000  0.00  0.00    +0.000 A 
ATOM     26  C   UNL     1       5.780  15.185   0.586  0.00  0.00    +0.000 A 
ATOM     27  C   UNL     1       5.662  13.812   0.656  0.00  0.00    +0.002 A 
ATOM     28  C   UNL     1       6.658  12.995   0.141  0.00  0.00    -0.061 A 
ATOM     29  C   UNL     1       6.487  11.502   0.246  0.00  0.00    -0.043 C 
ATOM     30  N   UNL     1       7.383  10.826  -0.707  0.00  0.00    +0.383 N 
ATOM     31  H   UNL     1       7.095  11.061  -1.664  0.00  0.00    -0.081 HD
ENDBRANCH  20  30
ENDBRANCH  19  20
ENDBRANCH  18  19
ENDBRANCH   9  18
TORSDOF 5
