REMARK  Name = ZINC39697685
REMARK  6 active torsions:
REMARK  status: ('A' for Active; 'I' for Inactive)
REMARK    1  A    between atoms: C_7  and  C_13
REMARK    2  A    between atoms: C_13  and  S_14
REMARK    3  A    between atoms: S_14  and  C_15
REMARK    4  A    between atoms: C_19  and  C_21
REMARK    5  A    between atoms: C_21  and  N_22
REMARK    6  A    between atoms: N_22  and  C_23
REMARK                            x       y       z     vdW  Elec       q    Type
REMARK                         _______ _______ _______ _____ _____    ______ ____
ROOT
ATOM      1  C   UNL     1      -2.206  -3.948   1.490  0.00  0.00    +0.339 C 
ATOM      2  N   UNL     1      -1.859  -5.306   1.033  0.00  0.00    -0.219 N 
ATOM      3  N   UNL     1      -2.519  -5.462  -0.195  0.00  0.00    -0.148 NA
ATOM      4  C   UNL     1      -3.177  -4.402  -0.489  0.00  0.00    +0.225 C 
ATOM      5  O   UNL     1      -3.058  -3.436   0.454  0.00  0.00    -0.445 OA
ATOM      6  H   UNL     1      -1.295  -5.953   1.484  0.00  0.00    +0.173 HD
ENDROOT
BRANCH   1   7
ATOM      7  S   UNL     1      -0.713  -2.930   1.647  0.00  0.00    -0.092 S 
BRANCH   7   8
ATOM      8  C   UNL     1       0.018  -2.963  -0.013  0.00  0.00    +0.110 C 
BRANCH   8  15
ATOM      9  C   UNL     1      -0.016   1.362   0.009  0.00  0.00    +0.001 A 
ATOM     10  C   UNL     1       1.169   2.084   0.002  0.00  0.00    +0.002 A 
ATOM     11  C   UNL     1       2.386   1.439  -0.013  0.00  0.00    +0.026 A 
ATOM     12  C   UNL     1       2.430   0.048  -0.021  0.00  0.00    +0.049 A 
ATOM     13  C   UNL     1       1.226  -0.681  -0.013  0.00  0.00    +0.002 A 
ATOM     14  C   UNL     1       0.002  -0.004   0.002  0.00  0.00    +0.010 A 
ATOM     15  C   UNL     1       1.283  -2.144  -0.022  0.00  0.00    -0.023 A 
ATOM     16  C   UNL     1       2.498  -2.745  -0.037  0.00  0.00    +0.075 A 
ATOM     17  C   UNL     1       3.676  -1.967  -0.044  0.00  0.00    +0.249 A 
ATOM     18  O   UNL     1       4.758  -2.528  -0.058  0.00  0.00    -0.268 OA
ATOM     19  N   UNL     1       3.634  -0.624  -0.036  0.00  0.00    -0.322 N 
ATOM     20  H   UNL     1       4.463  -0.119  -0.042  0.00  0.00    +0.169 HD
ENDBRANCH   8  15
ENDBRANCH   7   8
ENDBRANCH   1   7
BRANCH   4  21
ATOM     21  C   UNL     1      -3.994  -4.247  -1.746  0.00  0.00    +0.198 C 
BRANCH  21  22
ATOM     22  N   UNL     1      -3.907  -5.475  -2.540  0.00  0.00    -0.335 N 
ATOM     23  H   UNL     1      -3.377  -6.222  -2.221  0.00  0.00    +0.147 HD
BRANCH  22  24
ATOM     24  C   UNL     1      -4.587  -5.569  -3.757  0.00  0.00    +0.028 A 
ATOM     25  C   UNL     1      -5.342  -4.498  -4.218  0.00  0.00    +0.024 A 
ATOM     26  C   UNL     1      -6.013  -4.594  -5.421  0.00  0.00    +0.022 A 
ATOM     27  C   UNL     1      -5.934  -5.757  -6.167  0.00  0.00    +0.041 A 
ATOM     28  C   UNL     1      -5.183  -6.826  -5.711  0.00  0.00    +0.022 A 
ATOM     29  C   UNL     1      -4.506  -6.733  -4.511  0.00  0.00    +0.024 A 
ATOM     30 CL   UNL     1      -6.780  -5.875  -7.679  0.00  0.00    -0.084 Cl
ENDBRANCH  22  24
ENDBRANCH  21  22
ENDBRANCH   4  21
TORSDOF 6
