REMARK  Name = ZINC37732762
REMARK  7 active torsions:
REMARK  status: ('A' for Active; 'I' for Inactive)
REMARK    1  A    between atoms: C_1  and  C_2
REMARK    2  A    between atoms: C_4  and  C_19
REMARK    3  A    between atoms: C_7  and  N_8
REMARK    4  A    between atoms: N_8  and  C_9
REMARK    5  A    between atoms: N_8  and  C_10
REMARK    6  A    between atoms: C_10  and  C_11
REMARK    7  A    between atoms: C_13  and  N_18
REMARK                            x       y       z     vdW  Elec       q    Type
REMARK                         _______ _______ _______ _____ _____    ______ ____
ROOT
ATOM      1  N   UNL     1      -0.135  -0.144   2.229  0.00  0.00    -0.328 N 
ATOM      2  C   UNL     1       1.249   0.065   2.663  0.00  0.00    +0.129 C 
ENDROOT
BRANCH   1   9
ATOM      3  C   UNL     1       0.100   1.164  -0.281  0.00  0.00    +0.045 C 
ATOM      4  C   UNL     1      -0.298  -0.285  -0.170  0.00  0.00    -0.029 A 
ATOM      5  C   UNL     1      -0.554  -1.017  -1.307  0.00  0.00    +0.018 A 
ATOM      6  C   UNL     1      -0.922  -2.362  -1.203  0.00  0.00    +0.037 A 
ATOM      7  C   UNL     1      -1.029  -2.959   0.057  0.00  0.00    +0.015 A 
ATOM      8  C   UNL     1      -0.772  -2.222   1.190  0.00  0.00    +0.024 A 
ATOM      9  C   UNL     1      -0.400  -0.884   1.082  0.00  0.00    +0.033 A 
BRANCH   6  10
ATOM     10  C   UNL     1      -1.198  -3.149  -2.420  0.00  0.00    +0.242 C 
ATOM     11  O   UNL     1      -1.105  -2.628  -3.515  0.00  0.00    -0.270 OA
ATOM     12  N   UNL     1      -1.553  -4.445  -2.318  0.00  0.00    -0.325 N 
ATOM     13  H   UNL     1      -1.627  -4.860  -1.445  0.00  0.00    +0.145 HD
ATOM     14  H   UNL     1      -1.734  -4.963  -3.118  0.00  0.00    +0.145 HD
ENDBRANCH   6  10
ENDBRANCH   1   9
BRANCH   1  15
ATOM     15  C   UNL     1      -1.239   0.428   3.003  0.00  0.00    +0.141 C 
BRANCH  15  16
ATOM     16  C   UNL     1      -1.635   1.755   2.410  0.00  0.00    -0.010 A 
ATOM     17  C   UNL     1      -2.723   1.836   1.563  0.00  0.00    +0.029 A 
ATOM     18  C   UNL     1      -3.087   3.060   1.017  0.00  0.00    +0.025 A 
ATOM     19  C   UNL     1      -2.356   4.200   1.324  0.00  0.00    +0.024 A 
ATOM     20  C   UNL     1      -1.268   4.114   2.171  0.00  0.00    +0.022 A 
ATOM     21  C   UNL     1      -0.911   2.893   2.718  0.00  0.00    +0.046 A 
ATOM     22 CL   UNL     1       0.452   2.790   3.788  0.00  0.00    -0.083 Cl
BRANCH  18  23
ATOM     23  N   UNL     1      -4.188   3.144   0.159  0.00  0.00    -0.358 N 
ATOM     24  H   UNL     1      -4.698   2.347  -0.055  0.00  0.00    +0.142 HD
ATOM     25  H   UNL     1      -4.441   3.999  -0.222  0.00  0.00    +0.142 HD
ENDBRANCH  18  23
ENDBRANCH  15  16
ENDBRANCH   1  15
TORSDOF 5
