REMARK  Name = ZINC05809987
REMARK  8 active torsions:
REMARK  status: ('A' for Active; 'I' for Inactive)
REMARK    1  A    between atoms: C_1  and  C_2
REMARK    2  A    between atoms: C_5  and  S_8
REMARK    3  A    between atoms: S_8  and  N_11
REMARK    4  A    between atoms: N_11  and  N_12
REMARK    5  A    between atoms: C_13  and  C_14
REMARK    6  A    between atoms: C_13  and  C_15
REMARK    7  A    between atoms: C_15  and  C_16
REMARK    8  A    between atoms: N_18  and  C_19
REMARK                            x       y       z     vdW  Elec       q    Type
REMARK                         _______ _______ _______ _____ _____    ______ ____
ROOT
ATOM      1  N   UNL     1       3.721   8.262   0.625  0.00  0.00    -0.175 NA
ATOM      2  C   UNL     1       3.336   7.474  -0.307  0.00  0.00    +0.044 C 
ATOM      3  C   UNL     1       2.586   8.022  -1.494  0.00  0.00    +0.063 C 
ENDROOT
BRANCH   1   4
ATOM      4  N   UNL     1       3.446   9.634   0.542  0.00  0.00    -0.137 N 
ATOM      5  H   UNL     1       2.964   9.986  -0.222  0.00  0.00    +0.197 HD
BRANCH   4   6
ATOM      6  S   UNL     1       3.945  10.653   1.748  0.00  0.00    +0.086 S 
ATOM      7  O   UNL     1       3.651  11.973   1.312  0.00  0.00    -0.149 OA
ATOM      8  O   UNL     1       3.438  10.122   2.964  0.00  0.00    -0.149 OA
BRANCH   6  13
ATOM      9  C   UNL     1       9.957  10.239   2.062  0.00  0.00    +0.044 C 
ATOM     10  C   UNL     1       8.455  10.343   1.984  0.00  0.00    -0.050 A 
ATOM     11  C   UNL     1       7.869  11.279   1.153  0.00  0.00    +0.005 A 
ATOM     12  C   UNL     1       6.492  11.374   1.081  0.00  0.00    +0.029 A 
ATOM     13  C   UNL     1       5.701  10.532   1.839  0.00  0.00    +0.110 A 
ATOM     14  C   UNL     1       6.287   9.598   2.674  0.00  0.00    +0.029 A 
ATOM     15  C   UNL     1       7.664   9.501   2.743  0.00  0.00    +0.005 A 
ENDBRANCH   6  13
ENDBRANCH   4   6
ENDBRANCH   1   4
BRANCH   2  16
ATOM     16  C   UNL     1       3.632   6.000  -0.217  0.00  0.00    +0.148 C 
BRANCH  16  17
ATOM     17  C   UNL     1       2.339   5.234  -0.095  0.00  0.00    +0.223 C 
ATOM     18  O   UNL     1       1.282   5.829  -0.082  0.00  0.00    -0.275 OA
ATOM     19  N   UNL     1       2.358   3.890  -0.001  0.00  0.00    -0.284 N 
ATOM     20  H   UNL     1       3.204   3.420   0.054  0.00  0.00    +0.155 HD
BRANCH  19  21
ATOM     21  C   UNL     1       1.156   3.173   0.019  0.00  0.00    +0.053 A 
ATOM     22  C   UNL     1       0.035   3.710   0.637  0.00  0.00    +0.046 A 
ATOM     23  C   UNL     1      -1.151   3.000   0.654  0.00  0.00    +0.061 A 
ATOM     24  C   UNL     1      -1.223   1.756   0.050  0.00  0.00    +0.061 A 
ATOM     25  C   UNL     1      -0.106   1.216  -0.562  0.00  0.00    +0.043 A 
ATOM     26  C   UNL     1       1.082   1.922  -0.582  0.00  0.00    +0.064 A 
ATOM     27 CL   UNL     1       2.481   1.247  -1.357  0.00  0.00    -0.082 Cl
ATOM     28 CL   UNL     1      -2.716   0.869   0.067  0.00  0.00    -0.082 Cl
ATOM     29 CL   UNL     1      -2.553   3.671   1.428  0.00  0.00    -0.082 Cl
ENDBRANCH  19  21
ENDBRANCH  16  17
ENDBRANCH   2  16
TORSDOF 6
