REMARK  Name = ZINC09360876
REMARK  8 active torsions:
REMARK  status: ('A' for Active; 'I' for Inactive)
REMARK    1  A    between atoms: C_1  and  C_2
REMARK    2  A    between atoms: C_4  and  N_34
REMARK    3  A    between atoms: C_5  and  O_32
REMARK    4  A    between atoms: C_7  and  N_8
REMARK    5  A    between atoms: C_27  and  C_29
REMARK    6  A    between atoms: C_29  and  C_30
REMARK    7  A    between atoms: C_29  and  C_31
REMARK    8  A    between atoms: O_32  and  C_33
REMARK                            x       y       z     vdW  Elec       q    Type
REMARK                         _______ _______ _______ _____ _____    ______ ____
ROOT
ATOM      1  N   UNL     1       3.660   0.419   2.685  0.00  0.00    -0.210 N 
ATOM      2  C   UNL     1       2.752  -0.033   1.759  0.00  0.00    +0.228 C 
ATOM      3  O   UNL     1       2.504  -1.184   1.470  0.00  0.00    -0.275 OA
ATOM      4  C   UNL     1       2.159   1.157   1.188  0.00  0.00    +0.073 C 
ATOM      5  C   UNL     1       3.372   2.166   1.236  0.00  0.00    +0.088 C 
ATOM      6  C   UNL     1       3.902   1.759   2.576  0.00  0.00    +0.229 C 
ATOM      7  O   UNL     1       4.436   2.474   3.397  0.00  0.00    -0.275 OA
ATOM      8  C   UNL     1       2.597   3.449   1.037  0.00  0.00    +0.050 C 
ATOM      9  C   UNL     1       3.431   4.532   0.412  0.00  0.00    -0.028 A 
ATOM     10  C   UNL     1       4.136   4.622  -0.767  0.00  0.00    +0.004 A 
ATOM     11  C   UNL     1       4.825   5.782  -1.076  0.00  0.00    +0.000 A 
ATOM     12  C   UNL     1       4.803   6.850  -0.197  0.00  0.00    +0.002 A 
ATOM     13  C   UNL     1       4.097   6.764   0.985  0.00  0.00    +0.023 A 
ATOM     14  C   UNL     1       3.401   5.601   1.303  0.00  0.00    +0.036 A 
ATOM     15  N   UNL     1       2.625   5.277   2.418  0.00  0.00    -0.286 N 
ATOM     16  C   UNL     1       2.116   4.033   2.339  0.00  0.00    +0.211 C 
ATOM     17  O   UNL     1       1.407   3.488   3.159  0.00  0.00    -0.277 OA
ATOM     18  C   UNL     1       1.423   1.615  -0.003  0.00  0.00    -0.055 C 
ATOM     19  H   UNL     1       2.470   5.879   3.163  0.00  0.00    +0.155 HD
ATOM     20  N   UNL     1       1.452   3.103   0.169  0.00  0.00    +0.394 N 
ATOM     21  H   UNL     1       1.561   3.555  -0.746  0.00  0.00    -0.083 HD
ATOM     22  H   UNL     1       0.578   3.419   0.605  0.00  0.00    -0.083 HD
ENDROOT
BRANCH   1  29
ATOM     23  C   UNL     1       6.110  -0.849   1.991  0.00  0.00    +0.046 C 
ATOM     24  C   UNL     1       5.469  -1.044   3.341  0.00  0.00    -0.026 A 
ATOM     25  C   UNL     1       6.075  -1.852   4.283  0.00  0.00    +0.041 A 
ATOM     26  C   UNL     1       5.487  -2.038   5.519  0.00  0.00    +0.168 A 
ATOM     27  C   UNL     1       4.288  -1.407   5.821  0.00  0.00    +0.152 A 
ATOM     28  C   UNL     1       3.680  -0.591   4.880  0.00  0.00    +0.072 A 
ATOM     29  C   UNL     1       4.272  -0.406   3.639  0.00  0.00    +0.050 A 
BRANCH  26  30
ATOM     30  N   UNL     1       6.137  -2.910   6.524  0.00  0.00    +0.060 N 
ATOM     31  O   UNL     1       7.189  -3.463   6.260  0.00  0.00    -0.126 OA
ATOM     32  O   UNL     1       5.619  -3.073   7.614  0.00  0.00    -0.126 OA
ENDBRANCH  26  30
BRANCH  27  33
ATOM     33  O   UNL     1       3.711  -1.591   7.037  0.00  0.00    -0.493 OA
ATOM     34  C   UNL     1       2.477  -0.911   7.278  0.00  0.00    +0.277 C 
ENDBRANCH  27  33
ENDBRANCH   1  29
BRANCH  18  35
ATOM     35  C   UNL     1      -0.013   1.086   0.008  0.00  0.00    -0.031 C 
ATOM     36  C   UNL     1      -0.753   1.593  -1.232  0.00  0.00    +0.005 C 
ATOM     37  C   UNL     1      -0.729   1.579   1.267  0.00  0.00    +0.005 C 
ENDBRANCH  18  35
TORSDOF 4
