REMARK  Name = ZINC40721222
REMARK  12 active torsions:
REMARK  status: ('A' for Active; 'I' for Inactive)
REMARK    1  A    between atoms: C_1  and  N_2
REMARK    2  A    between atoms: C_6  and  C_13
REMARK    3  A    between atoms: N_9  and  C_12
REMARK    4  A    between atoms: C_13  and  C_15
REMARK    5  A    between atoms: C_13  and  O_37
REMARK    6  A    between atoms: C_15  and  O_16
REMARK    7  A    between atoms: O_16  and  C_17
REMARK    8  A    between atoms: C_20  and  C_23
REMARK    9  A    between atoms: C_23  and  N_24
REMARK   10  A    between atoms: N_24  and  C_25
REMARK   11  A    between atoms: C_25  and  C_26
REMARK   12  A    between atoms: C_26  and  C_27
REMARK                            x       y       z     vdW  Elec       q    Type
REMARK                         _______ _______ _______ _____ _____    ______ ____
ROOT
ATOM      1  C   UNL     1      -5.765  -5.846   2.637  0.00  0.00    +0.121 A 
ATOM      2  C   UNL     1      -5.504  -5.084   3.767  0.00  0.00    +0.046 A 
ATOM      3  C   UNL     1      -6.057  -5.441   4.981  0.00  0.00    +0.005 A 
ATOM      4  C   UNL     1      -6.869  -6.557   5.072  0.00  0.00    -0.064 A 
ATOM      5  C   UNL     1      -7.130  -7.318   3.947  0.00  0.00    +0.005 A 
ATOM      6  C   UNL     1      -6.585  -6.961   2.729  0.00  0.00    +0.046 A 
ENDROOT
BRANCH   1   7
ATOM      7  O   UNL     1      -5.223  -5.496   1.441  0.00  0.00    -0.489 OA
BRANCH   7   8
ATOM      8  C   UNL     1      -4.389  -4.336   1.420  0.00  0.00    +0.265 C 
BRANCH   8   9
ATOM      9  C   UNL     1      -3.874  -4.102  -0.001  0.00  0.00    +0.182 C 
BRANCH   9  15
ATOM     10  C   UNL     1      -0.018   1.461   0.010  0.00  0.00    +0.154 C 
ATOM     11  N   UNL     1       0.002  -0.004   0.002  0.00  0.00    -0.295 N 
ATOM     12  C   UNL     1      -1.116  -0.835   0.003  0.00  0.00    +0.070 A 
ATOM     13  C   UNL     1      -2.481  -0.592   0.010  0.00  0.00    +0.028 A 
ATOM     14  C   UNL     1      -3.368  -1.651   0.009  0.00  0.00    +0.008 A 
ATOM     15  C   UNL     1      -2.899  -2.954  -0.000  0.00  0.00    -0.014 A 
ATOM     16  C   UNL     1      -1.541  -3.205  -0.007  0.00  0.00    +0.034 A 
ATOM     17  C   UNL     1      -0.643  -2.148  -0.007  0.00  0.00    +0.070 A 
ATOM     18  N   UNL     1       0.748  -2.075  -0.013  0.00  0.00    -0.295 N 
ATOM     19  C   UNL     1       1.104  -0.777  -0.013  0.00  0.00    +0.330 A 
ATOM     20  O   UNL     1       2.249  -0.365  -0.022  0.00  0.00    -0.246 OA
ATOM     21  C   UNL     1       1.666  -3.217  -0.023  0.00  0.00    +0.154 C 
ENDBRANCH   9  15
BRANCH   9  22
ATOM     22  O   UNL     1      -4.973  -3.793  -0.861  0.00  0.00    -0.384 OA
ATOM     23  H   UNL     1      -5.465  -3.001  -0.601  0.00  0.00    +0.210 HD
ENDBRANCH   9  22
ENDBRANCH   8   9
ENDBRANCH   7   8
ENDBRANCH   1   7
BRANCH   4  24
ATOM     24  C   UNL     1      -7.470  -6.944   6.398  0.00  0.00    -0.047 C 
BRANCH  24  25
ATOM     25  N   UNL     1      -8.774  -6.286   6.556  0.00  0.00    +0.382 N 
ATOM     26  H   UNL     1      -8.651  -5.285   6.522  0.00  0.00    -0.085 HD
ATOM     27  H   UNL     1      -9.389  -6.575   5.811  0.00  0.00    -0.085 HD
BRANCH  25  28
ATOM     28  C   UNL     1      -9.359  -6.664   7.849  0.00  0.00    -0.077 C 
BRANCH  28  29
ATOM     29  C   UNL     1     -10.717  -5.978   8.014  0.00  0.00    +0.018 C 
BRANCH  29  30
ATOM     30  C   UNL     1     -11.318  -6.365   9.340  0.00  0.00    -0.024 A 
ATOM     31  C   UNL     1     -12.189  -7.362   9.561  0.00  0.00    +0.087 A 
ATOM     32  N   UNL     1     -12.512  -7.413  10.890  0.00  0.00    -0.360 N 
ATOM     33  H   UNL     1     -13.124  -8.051  11.290  0.00  0.00    +0.165 HD
ATOM     34  C   UNL     1     -11.841  -6.425  11.574  0.00  0.00    +0.047 A 
ATOM     35  C   UNL     1     -11.058  -5.729  10.634  0.00  0.00    +0.003 A 
ATOM     36  C   UNL     1     -10.256  -4.664  11.048  0.00  0.00    +0.010 A 
ATOM     37  C   UNL     1     -10.233  -4.304  12.366  0.00  0.00    +0.001 A 
ATOM     38  C   UNL     1     -11.000  -4.990  13.297  0.00  0.00    +0.002 A 
ATOM     39  C   UNL     1     -11.805  -6.039  12.909  0.00  0.00    +0.026 A 
ENDBRANCH  29  30
ENDBRANCH  28  29
ENDBRANCH  25  28
ENDBRANCH  24  25
ENDBRANCH   4  24
TORSDOF 10
