REMARK  Name = ZINC35247007
REMARK  13 active torsions:
REMARK  status: ('A' for Active; 'I' for Inactive)
REMARK    1  A    between atoms: C_1  and  C_2
REMARK    2  A    between atoms: C_2  and  C_3
REMARK    3  A    between atoms: C_2  and  C_4
REMARK    4  A    between atoms: C_2  and  C_5
REMARK    5  A    between atoms: C_8  and  C_11
REMARK    6  A    between atoms: C_11  and  N_12
REMARK    7  A    between atoms: N_12  and  C_13
REMARK    8  A    between atoms: N_12  and  C_20
REMARK    9  A    between atoms: C_13  and  C_14
REMARK   10  A    between atoms: C_20  and  C_21
REMARK   11  A    between atoms: C_24  and  C_26
REMARK   12  A    between atoms: C_31  and  C_34
REMARK   13  A    between atoms: C_34  and  C_35
REMARK                            x       y       z     vdW  Elec       q    Type
REMARK                         _______ _______ _______ _____ _____    ______ ____
ROOT
ATOM      1  C   UNL     1       2.917  -1.211  -7.183  0.00  0.00    -0.002 C 
ENDROOT
BRANCH   1   2
ATOM      2  C   UNL     1       2.077  -2.321  -7.761  0.00  0.00    +0.090 A 
ATOM      3  C   UNL     1       1.025  -2.160  -8.594  0.00  0.00    +0.043 A 
ATOM      4  C   UNL     1       0.532  -3.440  -8.889  0.00  0.00    +0.055 A 
ATOM      5  C   UNL     1       1.317  -4.329  -8.213  0.00  0.00    +0.190 A 
ATOM      6  O   UNL     1       2.253  -3.630  -7.537  0.00  0.00    -0.457 OA
BRANCH   5   7
ATOM      7  C   UNL     1       1.172  -5.788  -8.222  0.00  0.00    +0.282 C 
ATOM      8  O   UNL     1       0.376  -6.316  -8.976  0.00  0.00    -0.267 OA
ATOM      9  N   UNL     1       1.921  -6.545  -7.395  0.00  0.00    -0.295 N 
ATOM     10  C   UNL     1       1.892  -8.011  -7.491  0.00  0.00    +0.108 C 
ATOM     11  C   UNL     1       3.328  -8.524  -7.643  0.00  0.00    +0.023 C 
ATOM     12  C   UNL     1       4.182  -7.986  -6.493  0.00  0.00    -0.004 C 
ATOM     13  C   UNL     1       4.207  -6.456  -6.546  0.00  0.00    +0.023 C 
ATOM     14  C   UNL     1       2.786  -5.920  -6.386  0.00  0.00    +0.108 C 
BRANCH  12  15
ATOM     15  C   UNL     1       5.609  -8.523  -6.623  0.00  0.00    +0.038 C 
BRANCH  15  16
ATOM     16  C   UNL     1       6.418  -8.094  -5.426  0.00  0.00    -0.047 A 
ATOM     17  C   UNL     1       7.108  -6.897  -5.452  0.00  0.00    +0.003 A 
ATOM     18  C   UNL     1       7.851  -6.504  -4.354  0.00  0.00    +0.000 A 
ATOM     19  C   UNL     1       7.902  -7.307  -3.231  0.00  0.00    +0.000 A 
ATOM     20  C   UNL     1       7.211  -8.504  -3.204  0.00  0.00    +0.000 A 
ATOM     21  C   UNL     1       6.465  -8.896  -4.301  0.00  0.00    +0.003 A 
ENDBRANCH  15  16
ENDBRANCH  12  15
ENDBRANCH   5   7
ENDBRANCH   1   2
BRANCH   1  22
ATOM     22  N   UNL     1       2.271  -0.688  -5.972  0.00  0.00    +0.390 N 
ATOM     23  H   UNL     1       1.319  -0.428  -6.184  0.00  0.00    -0.080 HD
BRANCH  22  24
ATOM     24  C   UNL     1       2.277  -1.721  -4.928  0.00  0.00    -0.042 C 
BRANCH  24  28
ATOM     25  C   UNL     1       0.097  -0.328  -1.530  0.00  0.00    -0.042 A 
ATOM     26  C   UNL     1      -0.556  -1.017  -2.534  0.00  0.00    +0.004 A 
ATOM     27  C   UNL     1       0.149  -1.468  -3.635  0.00  0.00    +0.002 A 
ATOM     28  C   UNL     1       1.508  -1.229  -3.730  0.00  0.00    -0.064 A 
ATOM     29  C   UNL     1       2.160  -0.539  -2.725  0.00  0.00    +0.002 A 
ATOM     30  C   UNL     1       1.454  -0.085  -1.627  0.00  0.00    +0.004 A 
BRANCH  25  32
ATOM     31  C   UNL     1      -0.563   1.687  -0.243  0.00  0.00    +0.015 C 
ATOM     32  C   UNL     1      -0.672   0.163  -0.330  0.00  0.00    -0.013 C 
ATOM     33  C   UNL     1      -0.092  -0.463   0.939  0.00  0.00    +0.015 C 
ATOM     34  C   UNL     1      -2.143  -0.235  -0.469  0.00  0.00    +0.015 C 
ENDBRANCH  25  32
ENDBRANCH  24  28
ENDBRANCH  22  24
BRANCH  22  35
ATOM     35  C   UNL     1       3.006   0.492  -5.497  0.00  0.00    -0.042 C 
BRANCH  35  36
ATOM     36  C   UNL     1       2.868   1.608  -6.500  0.00  0.00    -0.064 A 
ATOM     37  C   UNL     1       3.793   1.739  -7.519  0.00  0.00    +0.002 A 
ATOM     38  C   UNL     1       3.666   2.763  -8.440  0.00  0.00    +0.000 A 
ATOM     39  C   UNL     1       2.614   3.655  -8.342  0.00  0.00    +0.000 A 
ATOM     40  C   UNL     1       1.689   3.523  -7.323  0.00  0.00    +0.000 A 
ATOM     41  C   UNL     1       1.813   2.497  -6.405  0.00  0.00    +0.002 A 
ENDBRANCH  35  36
ENDBRANCH  22  35
ENDBRANCH   1  22
TORSDOF 10
