REMARK  Name = ZINC14957184
REMARK  11 active torsions:
REMARK  status: ('A' for Active; 'I' for Inactive)
REMARK    1  A    between atoms: C_1  and  O_2
REMARK    2  A    between atoms: O_2  and  C_3
REMARK    3  A    between atoms: C_6  and  C_9
REMARK    4  A    between atoms: C_9  and  N_10
REMARK    5  A    between atoms: C_11  and  C_13
REMARK    6  A    between atoms: C_16  and  N_27
REMARK    7  A    between atoms: C_19  and  C_20
REMARK    8  A    between atoms: C_19  and  N_60
REMARK    9  A    between atoms: C_29  and  C_32
REMARK   10  A    between atoms: C_32  and  O_34
REMARK   11  A    between atoms: O_34  and  C_35
REMARK                            x       y       z     vdW  Elec       q    Type
REMARK                         _______ _______ _______ _____ _____    ______ ____
ROOT
ATOM      1  C   UNL     1      -3.338  -0.402   1.425  0.00  0.00    +0.022 C 
ATOM      2  C   UNL     1      -2.958   1.096   1.457  0.00  0.00    +0.019 C 
ATOM      3  C   UNL     1      -2.502   1.421   0.019  0.00  0.00    +0.091 C 
ATOM      4  C   UNL     1      -2.645   0.095  -0.759  0.00  0.00    -0.050 C 
ATOM      5  N   UNL     1      -3.639  -0.649   0.011  0.00  0.00    +0.391 N 
ATOM      6  H   UNL     1      -4.582  -0.309  -0.212  0.00  0.00    -0.080 HD
ENDROOT
BRANCH   3   7
ATOM      7  N   UNL     1      -1.106   1.864   0.017  0.00  0.00    -0.250 N 
ATOM      8  C   UNL     1      -0.013   1.076   0.008  0.00  0.00    +0.145 A 
ATOM      9  C   UNL     1       1.074   1.905   0.002  0.00  0.00    +0.189 A 
ATOM     10  N   UNL     1       0.638   3.177   0.013  0.00  0.00    -0.123 NA
ATOM     11  N   UNL     1      -0.650   3.190   0.025  0.00  0.00    -0.065 NA
BRANCH   9  12
ATOM     12  C   UNL     1       2.484   1.478  -0.014  0.00  0.00    +0.361 C 
ATOM     13  O   UNL     1       2.760   0.294  -0.023  0.00  0.00    -0.243 OA
BRANCH  12  14
ATOM     14  O   UNL     1       3.467   2.399  -0.018  0.00  0.00    -0.463 OA
ATOM     15  C   UNL     1       4.833   1.906  -0.034  0.00  0.00    +0.280 C 
ENDBRANCH  12  14
ENDBRANCH   9  12
ENDBRANCH   3   7
BRANCH   1  17
ATOM     16  N   UNL     1      -4.460  -0.470   3.629  0.00  0.00    -0.313 N 
ATOM     17  C   UNL     1      -4.540  -0.660   2.297  0.00  0.00    +0.200 C 
ATOM     18  O   UNL     1      -5.580  -1.037   1.799  0.00  0.00    -0.278 OA
ATOM     19  H   UNL     1      -3.629  -0.168   4.027  0.00  0.00    +0.149 HD
BRANCH  16  20
ATOM     20  C   UNL     1      -5.629  -0.720   4.476  0.00  0.00    +0.139 C 
BRANCH  20  24
ATOM     21  C   UNL     1      -4.634   0.088   8.552  0.00  0.00    +0.120 A 
ATOM     22  C   UNL     1      -5.143   1.097   7.748  0.00  0.00    +0.046 A 
ATOM     23  C   UNL     1      -5.463   0.834   6.430  0.00  0.00    +0.009 A 
ATOM     24  C   UNL     1      -5.278  -0.435   5.913  0.00  0.00    -0.030 A 
ATOM     25  C   UNL     1      -4.777  -1.445   6.714  0.00  0.00    +0.009 A 
ATOM     26  C   UNL     1      -4.449  -1.185   8.031  0.00  0.00    +0.046 A 
BRANCH  21  28
ATOM     27  C   UNL     1      -3.799  -0.742  10.617  0.00  0.00    +0.277 C 
ATOM     28  O   UNL     1      -4.317   0.345   9.848  0.00  0.00    -0.495 OA
ENDBRANCH  21  28
ENDBRANCH  20  24
ENDBRANCH  16  20
ENDBRANCH   1  17
BRANCH   5  29
ATOM     29  C   UNL     1      -3.560  -2.113  -0.293  0.00  0.00    -0.042 C 
BRANCH  29  30
ATOM     30  C   UNL     1      -2.290  -2.661   0.306  0.00  0.00    -0.064 A 
ATOM     31  C   UNL     1      -1.123  -2.667  -0.436  0.00  0.00    +0.003 A 
ATOM     32  C   UNL     1       0.043  -3.164   0.115  0.00  0.00    +0.020 A 
ATOM     33  C   UNL     1       0.040  -3.666   1.405  0.00  0.00    +0.041 A 
ATOM     34  C   UNL     1      -1.130  -3.664   2.144  0.00  0.00    +0.020 A 
ATOM     35  C   UNL     1      -2.294  -3.162   1.594  0.00  0.00    +0.003 A 
ATOM     36 CL   UNL     1       1.502  -4.296   2.095  0.00  0.00    -0.084 Cl
ENDBRANCH  29  30
ENDBRANCH   5  29
TORSDOF 9
