REMARK  Name = ZINC35289047
REMARK  9 active torsions:
REMARK  status: ('A' for Active; 'I' for Inactive)
REMARK    1  A    between atoms: C_1  and  C_2
REMARK    2  A    between atoms: C_4  and  C_31
REMARK    3  A    between atoms: C_9  and  C_29
REMARK    4  A    between atoms: C_10  and  S_12
REMARK    5  A    between atoms: S_12  and  C_13
REMARK    6  A    between atoms: C_13  and  C_14
REMARK    7  A    between atoms: N_16  and  C_17
REMARK    8  A    between atoms: C_17  and  C_18
REMARK    9  A    between atoms: C_18  and  C_19
REMARK                            x       y       z     vdW  Elec       q    Type
REMARK                         _______ _______ _______ _____ _____    ______ ____
ROOT
ATOM      1  C   UNL     1       0.093  -6.928  -0.852  0.00  0.00    +0.171 C 
ENDROOT
BRANCH   1   2
ATOM      2  C   UNL     1       0.112  -8.417  -1.079  0.00  0.00    +0.223 C 
ATOM      3  O   UNL     1       0.127  -9.175  -0.132  0.00  0.00    -0.275 OA
ATOM      4  N   UNL     1       0.113  -8.908  -2.335  0.00  0.00    -0.314 N 
ATOM      5  H   UNL     1       0.101  -8.301  -3.092  0.00  0.00    +0.149 HD
BRANCH   4   6
ATOM      6  C   UNL     1       0.132 -10.356  -2.556  0.00  0.00    +0.109 C 
BRANCH   6   7
ATOM      7  C   UNL     1       0.129 -10.642  -4.059  0.00  0.00    +0.056 C 
BRANCH   7   8
ATOM      8  C   UNL     1       0.148 -12.132  -4.286  0.00  0.00    -0.021 A 
ATOM      9  C   UNL     1       1.233 -12.893  -4.499  0.00  0.00    +0.087 A 
ATOM     10  N   UNL     1       0.862 -14.200  -4.663  0.00  0.00    -0.360 N 
ATOM     11  H   UNL     1       1.472 -14.935  -4.830  0.00  0.00    +0.165 HD
ATOM     12  C   UNL     1      -0.506 -14.314  -4.557  0.00  0.00    +0.047 A 
ATOM     13  C   UNL     1      -1.013 -13.025  -4.310  0.00  0.00    +0.003 A 
ATOM     14  C   UNL     1      -2.386 -12.835  -4.150  0.00  0.00    +0.010 A 
ATOM     15  C   UNL     1      -3.233 -13.905  -4.232  0.00  0.00    +0.001 A 
ATOM     16  C   UNL     1      -2.738 -15.179  -4.471  0.00  0.00    +0.002 A 
ATOM     17  C   UNL     1      -1.387 -15.388  -4.641  0.00  0.00    +0.026 A 
ENDBRANCH   7   8
ENDBRANCH   6   7
ENDBRANCH   4   6
ENDBRANCH   1   2
BRANCH   1  18
ATOM     18  S   UNL     1       0.097  -6.588   0.930  0.00  0.00    -0.095 S 
BRANCH  18  28
ATOM     19  C   UNL     1      -0.018   1.503   0.010  0.00  0.00    +0.044 C 
ATOM     20  C   UNL     1       0.002  -0.004   0.002  0.00  0.00    -0.050 A 
ATOM     21  C   UNL     1       0.006  -0.685  -1.213  0.00  0.00    +0.008 A 
ATOM     22  C   UNL     1       0.024  -2.046  -1.256  0.00  0.00    -0.024 A 
ATOM     23  C   UNL     1       0.040  -2.783  -0.059  0.00  0.00    +0.075 A 
ATOM     24  C   UNL     1       0.036  -2.088   1.176  0.00  0.00    +0.002 A 
ATOM     25  C   UNL     1       0.022  -0.683   1.183  0.00  0.00    +0.013 A 
ATOM     26  C   UNL     1       0.052  -2.819   2.377  0.00  0.00    +0.031 A 
ATOM     27  C   UNL     1       0.070  -4.205   2.299  0.00  0.00    +0.084 A 
ATOM     28  C   UNL     1       0.073  -4.829   1.029  0.00  0.00    +0.115 A 
ATOM     29  N   UNL     1       0.058  -4.120  -0.081  0.00  0.00    -0.239 NA
ATOM     30  C   UNL     1       0.027  -2.760  -2.583  0.00  0.00    +0.046 C 
BRANCH  27  31
ATOM     31  C   UNL     1       0.087  -4.996   3.493  0.00  0.00    +0.102 C 
ATOM     32  N   UNL     1       0.100  -5.623   4.440  0.00  0.00    -0.191 NA
ENDBRANCH  27  31
ENDBRANCH  18  28
ENDBRANCH   1  18
TORSDOF 7
