REMARK  Name = ZINC66700258
REMARK  9 active torsions:
REMARK  status: ('A' for Active; 'I' for Inactive)
REMARK    1  A    between atoms: C_1  and  C_2
REMARK    2  A    between atoms: C_2  and  C_4
REMARK    3  A    between atoms: C_2  and  N_7
REMARK    4  A    between atoms: N_7  and  C_8
REMARK    5  A    between atoms: C_8  and  C_9
REMARK    6  A    between atoms: N_17  and  C_18
REMARK    7  A    between atoms: C_18  and  C_19
REMARK    8  A    between atoms: C_23  and  S_25
REMARK    9  A    between atoms: S_25  and  N_28
REMARK                            x       y       z     vdW  Elec       q    Type
REMARK                         _______ _______ _______ _____ _____    ______ ____
ROOT
ATOM      1  N   UNL     1       0.580  -0.475  -1.259  0.00  0.00    -0.278 N 
ATOM      2  C   UNL     1       1.871  -0.218  -1.547  0.00  0.00    +0.303 C 
ATOM      3  O   UNL     1       2.327  -0.534  -2.629  0.00  0.00    -0.253 OA
ATOM      4  N   UNL     1       2.657   0.388  -0.635  0.00  0.00    -0.295 N 
ATOM      5  H   UNL     1       2.277   0.703   0.200  0.00  0.00    +0.151 HD
ENDROOT
BRANCH   1   7
ATOM      6  C   UNL     1       0.082   1.536   0.042  0.00  0.00    +0.028 C 
ATOM      7  C   UNL     1      -0.002   0.009  -0.004  0.00  0.00    +0.078 C 
BRANCH   7   8
ATOM      8  C   UNL     1       0.773  -0.580   1.177  0.00  0.00    +0.009 C 
ATOM      9  C   UNL     1       0.051  -1.603   2.056  0.00  0.00    +0.005 C 
ATOM     10  C   UNL     1       0.317  -0.192   2.585  0.00  0.00    +0.005 C 
ENDBRANCH   7   8
ENDBRANCH   1   7
BRANCH   1  11
ATOM     11  C   UNL     1      -0.243  -1.237  -2.202  0.00  0.00    +0.144 C 
BRANCH  11  12
ATOM     12  C   UNL     1      -0.908  -0.290  -3.167  0.00  0.00    -0.030 A 
ATOM     13  C   UNL     1      -2.147   0.245  -2.868  0.00  0.00    +0.005 A 
ATOM     14  C   UNL     1      -2.757   1.113  -3.754  0.00  0.00    +0.000 A 
ATOM     15  C   UNL     1      -2.128   1.447  -4.939  0.00  0.00    +0.000 A 
ATOM     16  C   UNL     1      -0.889   0.913  -5.238  0.00  0.00    +0.000 A 
ATOM     17  C   UNL     1      -0.277   0.048  -4.350  0.00  0.00    +0.005 A 
ENDBRANCH  11  12
ENDBRANCH   1  11
BRANCH   4  18
ATOM     18  C   UNL     1       4.085   0.572  -0.905  0.00  0.00    +0.141 C 
BRANCH  18  19
ATOM     19  C   UNL     1       4.731   1.270   0.264  0.00  0.00    -0.028 A 
ATOM     20  C   UNL     1       4.791   2.651   0.297  0.00  0.00    +0.005 A 
ATOM     21  C   UNL     1       5.384   3.291   1.369  0.00  0.00    +0.002 A 
ATOM     22  C   UNL     1       5.917   2.551   2.408  0.00  0.00    +0.028 A 
ATOM     23  C   UNL     1       5.857   1.171   2.375  0.00  0.00    +0.105 A 
ATOM     24  C   UNL     1       5.260   0.530   1.305  0.00  0.00    +0.033 A 
BRANCH  23  25
ATOM     25  S   UNL     1       6.537   0.227   3.698  0.00  0.00    +0.056 S 
ATOM     26  O   UNL     1       6.838  -1.057   3.169  0.00  0.00    -0.153 OA
ATOM     27  O   UNL     1       7.519   1.046   4.318  0.00  0.00    -0.153 OA
BRANCH  25  28
ATOM     28  N   UNL     1       5.332   0.008   4.813  0.00  0.00    -0.204 NA
ATOM     29  H   UNL     1       5.322  -0.789   5.366  0.00  0.00    +0.144 HD
ATOM     30  H   UNL     1       4.636   0.676   4.913  0.00  0.00    +0.144 HD
ENDBRANCH  25  28
ENDBRANCH  23  25
ENDBRANCH  18  19
ENDBRANCH   4  18
TORSDOF 8
