REMARK  Name = ZINC57351260
REMARK  6 active torsions:
REMARK  status: ('A' for Active; 'I' for Inactive)
REMARK    1  A    between atoms: C_1  and  C_2
REMARK    2  A    between atoms: C_2  and  C_3
REMARK    3  A    between atoms: C_11  and  C_13
REMARK    4  A    between atoms: C_15  and  N_21
REMARK    5  A    between atoms: C_16  and  C_20
REMARK    6  A    between atoms: C_17  and  N_19
REMARK                            x       y       z     vdW  Elec       q    Type
REMARK                         _______ _______ _______ _____ _____    ______ ____
ROOT
ATOM      1  C   UNL     1       5.423  -2.272   4.469  0.00  0.00    +0.040 A 
ATOM      2  C   UNL     1       6.626  -2.240   3.764  0.00  0.00    +0.036 A 
ATOM      3  C   UNL     1       7.804  -2.624   4.387  0.00  0.00    +0.030 A 
ATOM      4  C   UNL     1       7.786  -3.041   5.712  0.00  0.00    -0.009 A 
ATOM      5  C   UNL     1       6.590  -3.075   6.417  0.00  0.00    +0.030 A 
ATOM      6  C   UNL     1       5.410  -2.686   5.801  0.00  0.00    +0.036 A 
ATOM      7  C   UNL     1       9.068  -3.458   6.386  0.00  0.00    +0.047 C 
ENDROOT
BRANCH   1  16
ATOM      8  C   UNL     1       0.731  -0.503   1.223  0.00  0.00    -0.044 A 
ATOM      9  C   UNL     1       2.092  -0.707   1.171  0.00  0.00    +0.035 A 
ATOM     10  C   UNL     1       2.767  -1.169   2.304  0.00  0.00    +0.111 A 
ATOM     11  C   UNL     1       2.050  -1.422   3.485  0.00  0.00    +0.170 A 
ATOM     12  C   UNL     1       0.680  -1.212   3.518  0.00  0.00    +0.063 A 
ATOM     13  C   UNL     1       0.028  -0.749   2.393  0.00  0.00    +0.022 A 
ATOM     14 BR   UNL     1      -0.292  -1.550   5.104  0.00  0.00    -0.046 Br
ATOM     15  O   UNL     1       2.953  -1.851   4.394  0.00  0.00    -0.434 OA
ATOM     16  C   UNL     1       4.165  -1.864   3.808  0.00  0.00    +0.229 A 
ATOM     17  N   UNL     1       4.066  -1.461   2.567  0.00  0.00    -0.209 NA
BRANCH   8  19
ATOM     18  C   UNL     1      -0.019   1.526   0.010  0.00  0.00    +0.009 C 
ATOM     19  C   UNL     1       0.002  -0.004   0.002  0.00  0.00    +0.032 C 
ENDBRANCH   8  19
ENDBRANCH   1  16
BRANCH   5  20
ATOM     20  N   UNL     1       6.577  -3.496   7.748  0.00  0.00    -0.358 N 
ATOM     21  H   UNL     1       7.403  -3.764   8.181  0.00  0.00    +0.142 HD
ATOM     22  H   UNL     1       5.742  -3.520   8.241  0.00  0.00    +0.142 HD
ENDBRANCH   5  20
BRANCH   3  23
ATOM     23  N   UNL     1       9.009  -2.592   3.682  0.00  0.00    -0.358 N 
ATOM     24  H   UNL     1       9.022  -2.301   2.756  0.00  0.00    +0.142 HD
ATOM     25  H   UNL     1       9.833  -2.860   4.117  0.00  0.00    +0.142 HD
ENDBRANCH   3  23
TORSDOF 4
