REMARK  Name = ZINC33935741
REMARK  10 active torsions:
REMARK  status: ('A' for Active; 'I' for Inactive)
REMARK    1  A    between atoms: C_1  and  C_2
REMARK    2  A    between atoms: C_5  and  N_9
REMARK    3  A    between atoms: C_14  and  C_29
REMARK    4  A    between atoms: C_17  and  C_22
REMARK    5  A    between atoms: C_17  and  C_26
REMARK    6  A    between atoms: C_22  and  C_24
REMARK    7  A    between atoms: C_22  and  O_25
REMARK    8  A    between atoms: C_32  and  C_35
REMARK    9  A    between atoms: C_35  and  O_37
REMARK   10  A    between atoms: O_37  and  C_38
REMARK                            x       y       z     vdW  Elec       q    Type
REMARK                         _______ _______ _______ _____ _____    ______ ____
ROOT
ATOM      1  N   UNL     1       0.059  -4.173  -0.022  0.00  0.00    -0.210 N 
ATOM      2  C   UNL     1       0.069  -4.926  -1.170  0.00  0.00    +0.229 C 
ATOM      3  O   UNL     1       0.282  -4.548  -2.301  0.00  0.00    -0.275 OA
ATOM      4  C   UNL     1      -0.231  -6.267  -0.733  0.00  0.00    +0.077 C 
ATOM      5  C   UNL     1      -0.090  -7.666  -1.174  0.00  0.00    -0.027 C 
ATOM      6  N   UNL     1      -0.471  -8.427   0.066  0.00  0.00    +0.397 N 
ATOM      7  C   UNL     1      -0.255  -7.529   1.239  0.00  0.00    +0.074 C 
ATOM      8  C   UNL     1       0.493  -6.312   0.671  0.00  0.00    +0.089 C 
ATOM      9  C   UNL     1       0.075  -4.937   1.111  0.00  0.00    +0.229 C 
ATOM     10  O   UNL     1      -0.195  -4.580   2.237  0.00  0.00    -0.275 OA
ATOM     11  H   UNL     1      -1.443  -8.696   0.016  0.00  0.00    -0.083 HD
ATOM     12  H   UNL     1       0.107  -9.249   0.153  0.00  0.00    -0.083 HD
ENDROOT
BRANCH   1  17
ATOM     13  C   UNL     1      -0.018   1.503   0.010  0.00  0.00    +0.045 C 
ATOM     14  C   UNL     1       0.002  -0.004   0.002  0.00  0.00    -0.032 A 
ATOM     15  C   UNL     1       0.006  -0.688  -1.200  0.00  0.00    +0.006 A 
ATOM     16  C   UNL     1       0.025  -2.068  -1.211  0.00  0.00    +0.024 A 
ATOM     17  C   UNL     1       0.040  -2.771  -0.013  0.00  0.00    +0.045 A 
ATOM     18  C   UNL     1       0.037  -2.084   1.192  0.00  0.00    +0.044 A 
ATOM     19  C   UNL     1       0.023  -0.701   1.197  0.00  0.00    +0.046 A 
ATOM     20 CL   UNL     1       0.025   0.161   2.704  0.00  0.00    -0.083 Cl
ENDBRANCH   1  17
BRANCH   5  21
ATOM     21  C   UNL     1      -1.036  -7.971  -2.306  0.00  0.00    -0.061 A 
ATOM     22  C   UNL     1      -2.367  -8.238  -2.038  0.00  0.00    +0.003 A 
ATOM     23  C   UNL     1      -3.239  -8.518  -3.070  0.00  0.00    +0.015 A 
ATOM     24  C   UNL     1      -2.776  -8.532  -4.387  0.00  0.00    +0.059 A 
ATOM     25  C   UNL     1      -1.432  -8.261  -4.650  0.00  0.00    +0.015 A 
ATOM     26  C   UNL     1      -0.572  -7.977  -3.609  0.00  0.00    +0.003 A 
BRANCH  24  27
ATOM     27  C   UNL     1      -3.704  -8.831  -5.496  0.00  0.00    +0.339 C 
ATOM     28  O   UNL     1      -4.872  -9.067  -5.264  0.00  0.00    -0.245 OA
BRANCH  27  29
ATOM     29  O   UNL     1      -3.254  -8.843  -6.766  0.00  0.00    -0.464 OA
ATOM     30  C   UNL     1      -4.206  -9.140  -7.789  0.00  0.00    +0.280 C 
ENDBRANCH  27  29
ENDBRANCH  24  27
ENDBRANCH   5  21
BRANCH   7  31
ATOM     31  C   UNL     1       0.600  -8.216   2.272  0.00  0.00    +0.349 C 
ATOM     32  O   UNL     1       0.981  -9.359   2.085  0.00  0.00    -0.248 OA
ATOM     33  O   UNL     1       0.910  -7.630   3.295  0.00  0.00    -0.248 OA
ENDBRANCH   7  31
BRANCH   7  34
ATOM     34  C   UNL     1      -1.597  -7.119   1.848  0.00  0.00    +0.112 C 
ATOM     35  C   UNL     1      -2.335  -8.366   2.340  0.00  0.00    +0.037 C 
BRANCH  34  36
ATOM     36  O   UNL     1      -1.372  -6.234   2.946  0.00  0.00    -0.393 OA
ATOM     37  H   UNL     1      -2.181  -5.933   3.381  0.00  0.00    +0.210 HD
ENDBRANCH  34  36
ENDBRANCH   7  34
TORSDOF 7
