REMARK  Name = ZINC59730514
REMARK  7 active torsions:
REMARK  status: ('A' for Active; 'I' for Inactive)
REMARK    1  A    between atoms: C_9  and  C_11
REMARK    2  A    between atoms: C_11  and  C_12
REMARK    3  A    between atoms: C_12  and  N_13
REMARK    4  A    between atoms: C_14  and  C_16
REMARK    5  A    between atoms: C_16  and  N_25
REMARK    6  A    between atoms: C_17  and  C_18
REMARK    7  A    between atoms: C_26  and  C_28
REMARK                            x       y       z     vdW  Elec       q    Type
REMARK                         _______ _______ _______ _____ _____    ______ ____
ROOT
ATOM      1  C   UNL     1       7.126  -6.076  -2.469  0.00  0.00    +0.097 C 
ATOM      2  C   UNL     1       8.256  -6.038  -3.211  0.00  0.00    +0.036 C 
ENDROOT
BRANCH   2   3
ATOM      3  C   UNL     1       9.190  -7.175  -3.188  0.00  0.00    -0.022 A 
ATOM      4  C   UNL     1       8.753  -8.434  -2.764  0.00  0.00    +0.008 A 
ATOM      5  C   UNL     1       9.634  -9.495  -2.746  0.00  0.00    +0.002 A 
ATOM      6  C   UNL     1      10.947  -9.317  -3.146  0.00  0.00    +0.015 A 
ATOM      7  C   UNL     1      11.387  -8.073  -3.567  0.00  0.00    +0.018 A 
ATOM      8  C   UNL     1      10.516  -7.003  -3.597  0.00  0.00    +0.023 A 
ATOM      9 BR   UNL     1      13.183  -7.843  -4.111  0.00  0.00    -0.050 Br
ENDBRANCH   2   3
BRANCH   1  11
ATOM     10  N   UNL     1       4.992  -5.052  -1.868  0.00  0.00    -0.310 N 
ATOM     11  C   UNL     1       6.118  -5.014  -2.607  0.00  0.00    +0.258 C 
ATOM     12  O   UNL     1       6.302  -4.100  -3.389  0.00  0.00    -0.269 OA
ATOM     13  H   UNL     1       4.846  -5.781  -1.245  0.00  0.00    +0.149 HD
BRANCH  10  14
ATOM     14  C   UNL     1       3.989  -3.994  -2.007  0.00  0.00    +0.112 C 
BRANCH  14  15
ATOM     15  C   UNL     1       2.818  -4.274  -1.063  0.00  0.00    +0.093 C 
BRANCH  15  24
ATOM     16  C   UNL     1      -1.720  -0.371  -1.749  0.00  0.00    +0.002 A 
ATOM     17  C   UNL     1      -0.724   0.554  -1.474  0.00  0.00    +0.002 A 
ATOM     18  C   UNL     1       0.558   0.147  -1.232  0.00  0.00    +0.030 A 
ATOM     19  C   UNL     1       0.873  -1.214  -1.260  0.00  0.00    +0.089 A 
ATOM     20  C   UNL     1      -0.136  -2.151  -1.538  0.00  0.00    +0.066 A 
ATOM     21  C   UNL     1      -1.433  -1.719  -1.782  0.00  0.00    +0.028 A 
ATOM     22  N   UNL     1       0.473  -3.390  -1.496  0.00  0.00    -0.342 N 
ATOM     23  H   UNL     1       0.044  -4.247  -1.647  0.00  0.00    +0.167 HD
ATOM     24  C   UNL     1       1.786  -3.186  -1.205  0.00  0.00    +0.110 A 
ATOM     25  N   UNL     1       2.021  -1.913  -1.067  0.00  0.00    -0.232 NA
ENDBRANCH  15  24
ENDBRANCH  14  15
ENDBRANCH  10  14
ENDBRANCH   1  11
BRANCH   1  26
ATOM     26  N   UNL     1       6.915  -7.126  -1.570  0.00  0.00    -0.275 N 
ATOM     27  C   UNL     1       5.821  -7.905  -1.688  0.00  0.00    +0.284 C 
ATOM     28  O   UNL     1       4.963  -7.629  -2.506  0.00  0.00    -0.266 OA
ATOM     29  H   UNL     1       7.556  -7.294  -0.862  0.00  0.00    +0.155 HD
BRANCH  27  30
ATOM     30  C   UNL     1       5.665  -9.084  -0.832  0.00  0.00    +0.189 A 
ATOM     31  C   UNL     1       4.661 -10.007  -0.911  0.00  0.00    +0.054 A 
ATOM     32  C   UNL     1       4.905 -10.956   0.093  0.00  0.00    +0.042 A 
ATOM     33  C   UNL     1       6.033 -10.577   0.734  0.00  0.00    +0.196 A 
ATOM     34  O   UNL     1       6.491  -9.452   0.170  0.00  0.00    -0.458 OA
ENDBRANCH  27  30
ENDBRANCH   1  26
TORSDOF 7
