REMARK  Name = ZINC20681778
REMARK  3 active torsions:
REMARK  status: ('A' for Active; 'I' for Inactive)
REMARK    1  A    between atoms: C_9  and  C_18
REMARK    2  A    between atoms: C_21  and  O_25
REMARK    3  A    between atoms: C_23  and  O_24
REMARK                            x       y       z     vdW  Elec       q    Type
REMARK                         _______ _______ _______ _____ _____    ______ ____
ROOT
ATOM      1  C   UNL     1       3.895   2.393   0.180  0.00  0.00    +0.001 A 
ATOM      2  C   UNL     1       3.007   2.965  -0.712  0.00  0.00    +0.006 A 
ATOM      3  C   UNL     1       1.710   2.507  -0.799  0.00  0.00    -0.018 A 
ATOM      4  C   UNL     1       1.268   1.468   0.025  0.00  0.00    +0.046 A 
ATOM      5  C   UNL     1       2.178   0.895   0.915  0.00  0.00    +0.039 A 
ATOM      6  C   UNL     1       3.476   1.353   0.990  0.00  0.00    +0.017 A 
ATOM      7 BR   UNL     1       1.624  -0.527   2.032  0.00  0.00    -0.048 Br
ATOM      8  N   UNL     1      -0.032   0.966   0.019  0.00  0.00    -0.336 N 
ATOM      9  C   UNL     1      -0.947   1.506  -1.000  0.00  0.00    +0.108 C 
ATOM     10  C   UNL     1      -0.662   2.990  -1.113  0.00  0.00    +0.029 C 
ATOM     11  C   UNL     1       0.750   3.070  -1.774  0.00  0.00    +0.049 C 
ATOM     12  C   UNL     1       0.819   4.474  -2.248  0.00  0.00    -0.023 C 
ATOM     13  C   UNL     1      -0.414   4.894  -2.505  0.00  0.00    -0.030 C 
ATOM     14  C   UNL     1      -1.421   3.788  -2.178  0.00  0.00    +0.033 C 
ATOM     15  H   UNL     1      -0.387   0.203   0.727  0.00  0.00    +0.147 HD
ENDROOT
BRANCH   9  16
ATOM     16  C   UNL     1      -0.696   0.833  -2.325  0.00  0.00    +0.015 A 
ATOM     17  C   UNL     1       0.546   0.292  -2.600  0.00  0.00    +0.012 A 
ATOM     18  C   UNL     1       0.778  -0.327  -3.813  0.00  0.00    +0.046 A 
ATOM     19  C   UNL     1      -0.235  -0.406  -4.759  0.00  0.00    +0.120 A 
ATOM     20  C   UNL     1      -1.481   0.136  -4.485  0.00  0.00    +0.091 A 
ATOM     21  C   UNL     1      -1.713   0.751  -3.264  0.00  0.00    +0.125 A 
BRANCH  21  22
ATOM     22  O   UNL     1      -2.936   1.279  -2.991  0.00  0.00    -0.506 OA
ATOM     23  H   UNL     1      -3.742   1.214  -3.736  0.00  0.00    +0.292 HD
ENDBRANCH  21  22
BRANCH  19  24
ATOM     24  O   UNL     1      -0.005  -1.014  -5.952  0.00  0.00    -0.507 OA
ATOM     25  H   UNL     1      -0.808  -1.077  -6.701  0.00  0.00    +0.292 HD
ENDBRANCH  19  24
ENDBRANCH   9  16
TORSDOF 3
