REMARK  Name = ZINC36596902
REMARK  8 active torsions:
REMARK  status: ('A' for Active; 'I' for Inactive)
REMARK    1  A    between atoms: C_1  and  S_2
REMARK    2  A    between atoms: S_2  and  C_3
REMARK    3  A    between atoms: C_3  and  C_4
REMARK    4  A    between atoms: C_4  and  C_5
REMARK    5  A    between atoms: C_5  and  C_7
REMARK    6  A    between atoms: C_5  and  N_21
REMARK    7  A    between atoms: C_7  and  N_9
REMARK    8  A    between atoms: C_22  and  C_24
REMARK                            x       y       z     vdW  Elec       q    Type
REMARK                         _______ _______ _______ _____ _____    ______ ____
ROOT
ATOM      1  C   UNL     1      -3.372  -2.379   0.033  0.00  0.00    +0.162 C 
ENDROOT
BRANCH   1   2
ATOM      2  N   UNL     1      -4.019  -1.929  -1.203  0.00  0.00    -0.301 N 
ATOM      3  C   UNL     1      -4.489  -0.670  -1.298  0.00  0.00    +0.258 C 
ATOM      4  O   UNL     1      -4.377   0.092  -0.360  0.00  0.00    -0.272 OA
ATOM      5  H   UNL     1      -4.108  -2.538  -1.953  0.00  0.00    +0.150 HD
BRANCH   3   6
ATOM      6  C   UNL     1      -5.153  -0.207  -2.569  0.00  0.00    +0.296 C 
ATOM      7  C   UNL     1      -6.458  -0.987  -2.784  0.00  0.00    +0.283 C 
ATOM      8  O   UNL     1      -7.069  -0.514  -3.989  0.00  0.00    -0.484 OA
ATOM      9  C   UNL     1      -7.134   0.836  -4.153  0.00  0.00    +0.162 A 
ATOM     10  C   UNL     1      -8.011   1.366  -5.087  0.00  0.00    +0.049 A 
ATOM     11  C   UNL     1      -8.087   2.734  -5.268  0.00  0.00    +0.004 A 
ATOM     12  C   UNL     1      -7.289   3.578  -4.517  0.00  0.00    +0.004 A 
ATOM     13  C   UNL     1      -6.414   3.056  -3.583  0.00  0.00    +0.049 A 
ATOM     14  C   UNL     1      -6.334   1.683  -3.396  0.00  0.00    +0.163 A 
ATOM     15  O   UNL     1      -5.473   1.185  -2.467  0.00  0.00    -0.473 OA
ENDBRANCH   3   6
ENDBRANCH   1   2
BRANCH   1  16
ATOM     16  C   UNL     1      -3.492  -3.877   0.146  0.00  0.00    +0.259 C 
ATOM     17  O   UNL     1      -4.062  -4.508  -0.723  0.00  0.00    -0.272 OA
BRANCH  16  18
ATOM     18  N   UNL     1      -2.973  -4.508   1.195  0.00  0.00    -0.145 NA
ATOM     19  C   UNL     1      -3.168  -5.815   1.348  0.00  0.00    +0.198 A 
ATOM     20  N   UNL     1      -3.776  -6.631   0.447  0.00  0.00    -0.326 N 
ATOM     21  H   UNL     1      -4.139  -6.360  -0.410  0.00  0.00    +0.169 HD
ATOM     22  C   UNL     1      -3.789  -7.921   0.967  0.00  0.00    +0.065 A 
ATOM     23  C   UNL     1      -4.273  -9.130   0.488  0.00  0.00    +0.028 A 
ATOM     24  C   UNL     1      -4.138 -10.275   1.249  0.00  0.00    +0.002 A 
ATOM     25  C   UNL     1      -3.522 -10.221   2.488  0.00  0.00    +0.002 A 
ATOM     26  C   UNL     1      -3.038  -9.023   2.973  0.00  0.00    +0.028 A 
ATOM     27  C   UNL     1      -3.168  -7.867   2.217  0.00  0.00    +0.065 A 
ATOM     28  N   UNL     1      -2.786  -6.546   2.427  0.00  0.00    -0.326 N 
ATOM     29  H   UNL     1      -2.327  -6.206   3.211  0.00  0.00    +0.169 HD
ENDBRANCH  16  18
ENDBRANCH   1  16
BRANCH   1  30
ATOM     30  C   UNL     1      -1.894  -1.985   0.007  0.00  0.00    +0.042 C 
BRANCH  30  31
ATOM     31  C   UNL     1      -1.772  -0.460   0.018  0.00  0.00    +0.071 C 
BRANCH  31  33
ATOM     32  C   UNL     1      -0.047   1.820   0.005  0.00  0.00    +0.084 C 
ATOM     33  S   UNL     1      -0.019   0.006  -0.012  0.00  0.00    -0.164 S 
ENDBRANCH  31  33
ENDBRANCH  30  31
ENDBRANCH   1  30
TORSDOF 7
