REMARK  Name = ZINC37570563
REMARK  8 active torsions:
REMARK  status: ('A' for Active; 'I' for Inactive)
REMARK    1  A    between atoms: C_1  and  C_2
REMARK    2  A    between atoms: C_6  and  S_8
REMARK    3  A    between atoms: S_8  and  N_11
REMARK    4  A    between atoms: N_11  and  C_12
REMARK    5  A    between atoms: N_11  and  C_19
REMARK    6  A    between atoms: N_22  and  C_25
REMARK    7  A    between atoms: C_25  and  C_26
REMARK    8  A    between atoms: C_30  and  N_32
REMARK                            x       y       z     vdW  Elec       q    Type
REMARK                         _______ _______ _______ _____ _____    ______ ____
ROOT
ATOM      1  N   UNL     1       1.644  -3.200   3.123  0.00  0.00    -0.200 N 
ENDROOT
BRANCH   1   2
ATOM      2  C   UNL     1       2.290  -2.186   3.838  0.00  0.00    +0.052 A 
ATOM      3  C   UNL     1       3.433  -1.591   3.321  0.00  0.00    +0.027 A 
ATOM      4  C   UNL     1       4.069  -0.589   4.028  0.00  0.00    +0.040 A 
ATOM      5  C   UNL     1       3.567  -0.179   5.252  0.00  0.00    +0.124 A 
ATOM      6  C   UNL     1       2.428  -0.772   5.770  0.00  0.00    +0.040 A 
ATOM      7  C   UNL     1       1.786  -1.770   5.063  0.00  0.00    +0.027 A 
ATOM      8  F   UNL     1       4.192   0.800   5.943  0.00  0.00    -0.205 F 
ENDBRANCH   1   2
BRANCH   1   9
ATOM      9  C   UNL     1       2.011  -4.601   3.345  0.00  0.00    +0.095 C 
ATOM     10  C   UNL     1       1.709  -4.985   4.796  0.00  0.00    +0.006 C 
ATOM     11  C   UNL     1       2.167  -6.424   5.043  0.00  0.00    -0.077 C 
ATOM     12  N   UNL     1       3.611  -6.530   4.797  0.00  0.00    +0.382 N 
ATOM     13  C   UNL     1       3.899  -6.233   3.389  0.00  0.00    -0.077 C 
ATOM     14  C   UNL     1       3.507  -4.786   3.079  0.00  0.00    +0.006 C 
ATOM     15  H   UNL     1       4.100  -5.874   5.386  0.00  0.00    -0.081 HD
BRANCH  12  16
ATOM     16  C   UNL     1       4.060  -7.894   5.110  0.00  0.00    -0.043 C 
BRANCH  16  17
ATOM     17  C   UNL     1       5.559  -7.971   4.976  0.00  0.00    -0.062 A 
ATOM     18  C   UNL     1       6.128  -8.305   3.761  0.00  0.00    +0.002 A 
ATOM     19  C   UNL     1       7.503  -8.376   3.639  0.00  0.00    +0.002 A 
ATOM     20  C   UNL     1       8.309  -8.114   4.731  0.00  0.00    +0.033 A 
ATOM     21  C   UNL     1       7.740  -7.779   5.945  0.00  0.00    +0.126 A 
ATOM     22  C   UNL     1       6.365  -7.704   6.067  0.00  0.00    +0.034 A 
BRANCH  21  23
ATOM     23  N   UNL     1       8.603  -7.499   7.115  0.00  0.00    +0.056 N 
ATOM     24  O   UNL     1       9.805  -7.562   7.008  0.00  0.00    -0.126 OA
ATOM     25  O   UNL     1       8.105  -7.206   8.177  0.00  0.00    -0.126 OA
ENDBRANCH  21  23
ENDBRANCH  16  17
ENDBRANCH  12  16
ENDBRANCH   1   9
BRANCH   1  26
ATOM     26  S   UNL     1       0.464  -2.817   2.026  0.00  0.00    +0.075 S 
ATOM     27  O   UNL     1      -0.120  -1.598   2.466  0.00  0.00    -0.150 OA
ATOM     28  O   UNL     1      -0.299  -3.998   1.822  0.00  0.00    -0.150 OA
BRANCH  26  34
ATOM     29  C   UNL     1       2.735   0.507  -1.308  0.00  0.00    +0.044 C 
ATOM     30  C   UNL     1       2.298  -0.900  -0.992  0.00  0.00    -0.049 A 
ATOM     31  C   UNL     1       2.528  -1.916  -1.901  0.00  0.00    +0.003 A 
ATOM     32  C   UNL     1       2.128  -3.206  -1.611  0.00  0.00    +0.002 A 
ATOM     33  C   UNL     1       1.497  -3.482  -0.411  0.00  0.00    +0.029 A 
ATOM     34  C   UNL     1       1.268  -2.466   0.498  0.00  0.00    +0.109 A 
ATOM     35  C   UNL     1       1.673  -1.176   0.210  0.00  0.00    +0.032 A 
ENDBRANCH  26  34
ENDBRANCH   1  26
TORSDOF 7
