REMARK  Name = ZINC36205255
REMARK  12 active torsions:
REMARK  status: ('A' for Active; 'I' for Inactive)
REMARK    1  A    between atoms: C_1  and  C_2
REMARK    2  A    between atoms: C_5  and  C_9
REMARK    3  A    between atoms: C_7  and  C_8
REMARK    4  A    between atoms: C_18  and  C_20
REMARK    5  A    between atoms: C_20  and  N_21
REMARK    6  A    between atoms: N_21  and  C_22
REMARK    7  A    between atoms: N_21  and  C_28
REMARK    8  A    between atoms: C_22  and  C_23
REMARK    9  A    between atoms: C_28  and  C_29
REMARK   10  A    between atoms: C_29  and  C_31
REMARK   11  A    between atoms: C_29  and  O_38
REMARK   12  A    between atoms: C_31  and  C_32
REMARK                            x       y       z     vdW  Elec       q    Type
REMARK                         _______ _______ _______ _____ _____    ______ ____
ROOT
ATOM      1  C   UNL     1      -3.059  -7.558  -2.845  0.00  0.00    -0.003 C 
ENDROOT
BRANCH   1  11
ATOM      2  C   UNL     1      -0.040  -4.594   0.975  0.00  0.00    +0.004 A 
ATOM      3  C   UNL     1       0.660  -5.393   1.815  0.00  0.00    +0.056 A 
ATOM      4  S   UNL     1       0.256  -7.036   1.255  0.00  0.00    -0.076 S 
ATOM      5  C   UNL     1      -0.833  -6.616  -0.081  0.00  0.00    +0.116 A 
ATOM      6  C   UNL     1      -0.863  -5.212  -0.058  0.00  0.00    +0.080 A 
ATOM      7  C   UNL     1      -1.688  -4.593  -1.051  0.00  0.00    +0.260 A 
ATOM      8  O   UNL     1      -1.774  -3.379  -1.114  0.00  0.00    -0.267 OA
ATOM      9  N   UNL     1      -2.366  -5.372  -1.913  0.00  0.00    -0.312 N 
ATOM     10  H   UNL     1      -2.927  -4.958  -2.588  0.00  0.00    +0.170 HD
ATOM     11  C   UNL     1      -2.281  -6.726  -1.858  0.00  0.00    +0.094 A 
ATOM     12  N   UNL     1      -1.529  -7.320  -0.971  0.00  0.00    -0.229 NA
BRANCH   2  17
ATOM     13  C   UNL     1       0.207   1.136   1.486  0.00  0.00    +0.044 C 
ATOM     14  C   UNL     1       0.142  -0.364   1.352  0.00  0.00    -0.048 A 
ATOM     15  C   UNL     1       0.340  -0.954   0.117  0.00  0.00    +0.004 A 
ATOM     16  C   UNL     1       0.282  -2.327  -0.012  0.00  0.00    +0.009 A 
ATOM     17  C   UNL     1       0.024  -3.119   1.106  0.00  0.00    -0.016 A 
ATOM     18  C   UNL     1      -0.174  -2.518   2.349  0.00  0.00    +0.012 A 
ATOM     19  C   UNL     1      -0.109  -1.145   2.466  0.00  0.00    -0.047 A 
ATOM     20  C   UNL     1      -0.316  -0.494   3.809  0.00  0.00    +0.044 C 
ENDBRANCH   2  17
ENDBRANCH   1  11
BRANCH   1  21
ATOM     21  N   UNL     1      -2.809  -8.982  -2.590  0.00  0.00    +0.391 N 
ATOM     22  H   UNL     1      -1.815  -9.158  -2.610  0.00  0.00    -0.080 HD
BRANCH  21  23
ATOM     23  C   UNL     1      -3.343  -9.344  -1.270  0.00  0.00    -0.002 C 
BRANCH  23  24
ATOM     24  C   UNL     1      -2.962 -10.766  -0.946  0.00  0.00    +0.089 A 
ATOM     25  C   UNL     1      -1.797 -11.163  -0.403  0.00  0.00    +0.042 A 
ATOM     26  C   UNL     1      -1.864 -12.569  -0.273  0.00  0.00    +0.041 A 
ATOM     27  C   UNL     1      -3.066 -12.947  -0.744  0.00  0.00    +0.195 A 
ATOM     28  O   UNL     1      -3.729 -11.850  -1.146  0.00  0.00    -0.470 OA
ENDBRANCH  23  24
ENDBRANCH  21  23
BRANCH  21  29
ATOM     29  C   UNL     1      -3.470  -9.789  -3.624  0.00  0.00    -0.046 C 
BRANCH  29  30
ATOM     30  C   UNL     1      -2.815  -9.517  -4.980  0.00  0.00    +0.102 C 
BRANCH  30  31
ATOM     31  O   UNL     1      -1.438  -9.899  -4.929  0.00  0.00    -0.393 OA
ATOM     32  H   UNL     1      -1.298 -10.845  -4.786  0.00  0.00    +0.210 HD
ENDBRANCH  30  31
BRANCH  30  33
ATOM     33  C   UNL     1      -3.529 -10.327  -6.063  0.00  0.00    +0.064 C 
BRANCH  33  34
ATOM     34  C   UNL     1      -2.965  -9.967  -7.413  0.00  0.00    -0.045 A 
ATOM     35  C   UNL     1      -3.520  -8.931  -8.140  0.00  0.00    +0.004 A 
ATOM     36  C   UNL     1      -3.003  -8.600  -9.379  0.00  0.00    +0.000 A 
ATOM     37  C   UNL     1      -1.930  -9.306  -9.890  0.00  0.00    +0.000 A 
ATOM     38  C   UNL     1      -1.374 -10.342  -9.163  0.00  0.00    +0.000 A 
ATOM     39  C   UNL     1      -1.889 -10.669  -7.923  0.00  0.00    +0.004 A 
ENDBRANCH  33  34
ENDBRANCH  30  33
ENDBRANCH  29  30
ENDBRANCH  21  29
ENDBRANCH   1  21
TORSDOF 10
