REMARK  Name = ZINC02520601
REMARK  6 active torsions:
REMARK  status: ('A' for Active; 'I' for Inactive)
REMARK    1  A    between atoms: C_1  and  C_2
REMARK    2  A    between atoms: C_15  and  C_18
REMARK    3  A    between atoms: C_16  and  O_17
REMARK    4  A    between atoms: C_18  and  C_19
REMARK    5  A    between atoms: C_20  and  O_36
REMARK    6  A    between atoms: C_30  and  C_34
REMARK                            x       y       z     vdW  Elec       q    Type
REMARK                         _______ _______ _______ _____ _____    ______ ____
ROOT
ATOM      1  C   UNL     1       0.818  -0.406  -0.555  0.00  0.00    +0.088 C 
ENDROOT
BRANCH   1  15
ATOM      2  C   UNL     1      -3.707  -0.999  -2.414  0.00  0.00    +0.031 C 
ATOM      3  C   UNL     1      -3.068  -0.258  -3.590  0.00  0.00    +0.088 C 
ATOM      4  C   UNL     1      -4.027   0.822  -4.093  0.00  0.00    +0.029 C 
ATOM      5  C   UNL     1      -3.361   1.568  -5.253  0.00  0.00    +0.039 C 
ATOM      6  C   UNL     1      -2.049   2.137  -4.774  0.00  0.00    -0.020 A 
ATOM      7  C   UNL     1      -1.553   3.282  -5.360  0.00  0.00    +0.044 A 
ATOM      8  C   UNL     1      -0.349   3.831  -4.938  0.00  0.00    +0.124 A 
ATOM      9  C   UNL     1       0.364   3.234  -3.921  0.00  0.00    +0.052 A 
ATOM     10  C   UNL     1      -0.128   2.074  -3.318  0.00  0.00    +0.043 A 
ATOM     11  C   UNL     1      -1.345   1.513  -3.750  0.00  0.00    +0.059 A 
ATOM     12  N   UNL     1      -1.812   0.360  -3.150  0.00  0.00    -0.305 N 
ATOM     13  C   UNL     1      -1.123  -0.227  -2.151  0.00  0.00    +0.259 A 
ATOM     14  O   UNL     1      -1.571  -1.240  -1.642  0.00  0.00    -0.267 OA
ATOM     15  C   UNL     1       0.089   0.291  -1.675  0.00  0.00    +0.064 A 
ATOM     16  C   UNL     1       0.614   1.423  -2.230  0.00  0.00    +0.135 A 
ATOM     17  F   UNL     1       0.124   4.952  -5.525  0.00  0.00    -0.205 F 
BRANCH  16  18
ATOM     18  O   UNL     1       1.787   1.933  -1.788  0.00  0.00    -0.506 OA
ATOM     19  H   UNL     1       2.065   2.736  -2.250  0.00  0.00    +0.292 HD
ENDBRANCH  16  18
ENDBRANCH   1  15
BRANCH   1  20
ATOM     20  C   UNL     1       0.271   0.064   0.768  0.00  0.00    +0.064 A 
ATOM     21  C   UNL     1      -0.708  -0.653   1.395  0.00  0.00    +0.135 A 
ATOM     22  C   UNL     1      -1.216  -0.161   2.683  0.00  0.00    +0.043 A 
ATOM     23  C   UNL     1      -2.216  -0.857   3.366  0.00  0.00    +0.052 A 
ATOM     24  C   UNL     1      -2.682  -0.377   4.571  0.00  0.00    +0.124 A 
ATOM     25  C   UNL     1      -2.160   0.796   5.102  0.00  0.00    +0.044 A 
ATOM     26  C   UNL     1      -1.172   1.492   4.438  0.00  0.00    -0.020 A 
ATOM     27  C   UNL     1      -0.682   1.024   3.223  0.00  0.00    +0.059 A 
ATOM     28  N   UNL     1       0.313   1.694   2.539  0.00  0.00    -0.305 N 
ATOM     29  C   UNL     1       0.770   1.233   1.358  0.00  0.00    +0.259 A 
ATOM     30  O   UNL     1       1.645   1.856   0.780  0.00  0.00    -0.267 OA
ATOM     31  C   UNL     1       0.901   2.922   3.085  0.00  0.00    +0.088 C 
ATOM     32  C   UNL     1      -0.145   3.676   3.907  0.00  0.00    +0.029 C 
ATOM     33  C   UNL     1      -0.630   2.764   5.039  0.00  0.00    +0.039 C 
ATOM     34  C   UNL     1       1.381   3.810   1.935  0.00  0.00    +0.031 C 
ATOM     35  F   UNL     1      -3.648  -1.047   5.237  0.00  0.00    -0.205 F 
BRANCH  21  36
ATOM     36  O   UNL     1      -1.196  -1.789   0.845  0.00  0.00    -0.506 OA
ATOM     37  H   UNL     1      -1.885  -2.217   1.372  0.00  0.00    +0.292 HD
ENDBRANCH  21  36
ENDBRANCH   1  20
TORSDOF 4
