REMARK  Name = ZINC01605735
REMARK  10 active torsions:
REMARK  status: ('A' for Active; 'I' for Inactive)
REMARK    1  A    between atoms: C_1  and  O_2
REMARK    2  A    between atoms: O_2  and  C_3
REMARK    3  A    between atoms: C_3  and  C_5
REMARK    4  A    between atoms: C_5  and  C_7
REMARK    5  A    between atoms: C_5  and  N_13
REMARK    6  A    between atoms: C_7  and  C_8
REMARK    7  A    between atoms: C_14  and  C_16
REMARK    8  A    between atoms: C_16  and  C_18
REMARK    9  A    between atoms: C_16  and  N_47
REMARK   10  A    between atoms: C_18  and  C_19
REMARK                            x       y       z     vdW  Elec       q    Type
REMARK                         _______ _______ _______ _____ _____    ______ ____
ROOT
ATOM      1  C   UNL     1      -1.331   2.079   0.020  0.00  0.00    +0.017 C 
ENDROOT
BRANCH   1   3
ATOM      2  N   UNL     1       0.002  -0.004   0.002  0.00  0.00    -0.303 N 
ATOM      3  C   UNL     1      -0.016   1.344   0.009  0.00  0.00    +0.199 C 
ATOM      4  O   UNL     1       1.026   1.964   0.003  0.00  0.00    -0.278 OA
ATOM      5  H   UNL     1      -0.831  -0.500   0.007  0.00  0.00    +0.149 HD
BRANCH   2   6
ATOM      6  C   UNL     1       1.281  -0.719  -0.014  0.00  0.00    +0.187 C 
BRANCH   6   7
ATOM      7  C   UNL     1       1.793  -0.864   1.396  0.00  0.00    +0.328 C 
ATOM      8  O   UNL     1       1.155  -0.416   2.319  0.00  0.00    -0.249 OA
BRANCH   7  10
ATOM      9  C   UNL     1       3.389  -1.593   3.008  0.00  0.00    +0.280 C 
ATOM     10  O   UNL     1       2.957  -1.491   1.626  0.00  0.00    -0.467 OA
ENDBRANCH   7  10
ENDBRANCH   6   7
BRANCH   6  11
ATOM     11  C   UNL     1       1.082  -2.106  -0.629  0.00  0.00    +0.076 C 
BRANCH  11  12
ATOM     12  C   UNL     1       0.687  -1.961  -2.077  0.00  0.00    -0.008 A 
ATOM     13  C   UNL     1       1.479  -1.902  -3.175  0.00  0.00    +0.011 A 
ATOM     14  C   UNL     1       0.891  -1.767  -4.419  0.00  0.00    +0.008 A 
ATOM     15  C   UNL     1      -0.460  -1.699  -4.503  0.00  0.00    +0.045 A 
ATOM     16  S   UNL     1      -0.944  -1.833  -2.790  0.00  0.00    -0.102 S 
ENDBRANCH  11  12
ENDBRANCH   6  11
ENDBRANCH   2   6
ENDBRANCH   1   3
BRANCH   1  19
ATOM     17  H   UNL     1      -0.477   3.949  -0.097  0.00  0.00    -0.089 HD
ATOM     18  H   UNL     1      -1.997   3.946   0.577  0.00  0.00    -0.089 HD
ATOM     19  N   UNL     1      -1.111   3.447   0.523  0.00  0.00    +0.386 N 
ATOM     20  H   UNL     1      -0.695   3.399   1.460  0.00  0.00    -0.089 HD
ENDBRANCH   1  19
BRANCH   1  21
ATOM     21  C   UNL     1      -1.905   2.117  -1.398  0.00  0.00    +0.030 C 
BRANCH  21  22
ATOM     22  C   UNL     1      -3.276   2.744  -1.368  0.00  0.00    -0.023 A 
ATOM     23  C   UNL     1      -4.449   2.095  -1.300  0.00  0.00    +0.087 A 
ATOM     24  N   UNL     1      -5.480   2.995  -1.291  0.00  0.00    -0.360 N 
ATOM     25  H   UNL     1      -6.421   2.764  -1.244  0.00  0.00    +0.165 HD
ATOM     26  C   UNL     1      -4.983   4.277  -1.364  0.00  0.00    +0.047 A 
ATOM     27  C   UNL     1      -3.580   4.176  -1.416  0.00  0.00    +0.003 A 
ATOM     28  C   UNL     1      -2.801   5.331  -1.494  0.00  0.00    +0.010 A 
ATOM     29  C   UNL     1      -3.406   6.557  -1.520  0.00  0.00    +0.001 A 
ATOM     30  C   UNL     1      -4.789   6.662  -1.470  0.00  0.00    +0.002 A 
ATOM     31  C   UNL     1      -5.577   5.534  -1.392  0.00  0.00    +0.026 A 
ENDBRANCH  21  22
ENDBRANCH   1  21
TORSDOF 9
