REMARK  Name = ZINC63363241
REMARK  7 active torsions:
REMARK  status: ('A' for Active; 'I' for Inactive)
REMARK    1  A    between atoms: C_1  and  O_2
REMARK    2  A    between atoms: O_2  and  C_3
REMARK    3  A    between atoms: C_9  and  C_12
REMARK    4  A    between atoms: C_12  and  C_13
REMARK    5  A    between atoms: C_13  and  N_14
REMARK    6  A    between atoms: C_15  and  N_26
REMARK    7  A    between atoms: C_27  and  C_29
REMARK                            x       y       z     vdW  Elec       q    Type
REMARK                         _______ _______ _______ _____ _____    ______ ____
ROOT
ATOM      1  N   UNL     1      -0.759  -6.798   1.434  0.00  0.00    -0.263 N 
ATOM      2  C   UNL     1      -1.301  -8.151   1.319  0.00  0.00    +0.255 C 
ATOM      3  N   UNL     1      -0.349  -9.022   0.618  0.00  0.00    -0.310 N 
ATOM      4  C   UNL     1       0.995  -8.953   0.966  0.00  0.00    +0.042 A 
ATOM      5  C   UNL     1       1.838 -10.046   0.858  0.00  0.00    +0.024 A 
ATOM      6  C   UNL     1       3.165  -9.924   1.220  0.00  0.00    +0.002 A 
ATOM      7  C   UNL     1       3.659  -8.717   1.691  0.00  0.00    +0.001 A 
ATOM      8  C   UNL     1       2.833  -7.618   1.804  0.00  0.00    +0.015 A 
ATOM      9  C   UNL     1       1.493  -7.726   1.441  0.00  0.00    +0.058 A 
ATOM     10  C   UNL     1       0.569  -6.582   1.527  0.00  0.00    +0.251 C 
ATOM     11  O   UNL     1       1.000  -5.455   1.684  0.00  0.00    -0.270 OA
ATOM     12  H   UNL     1      -0.651  -9.632  -0.073  0.00  0.00    +0.149 HD
ENDROOT
BRANCH   2  13
ATOM     13  N   UNL     1      -1.550  -8.690   2.658  0.00  0.00    -0.277 N 
ATOM     14  C   UNL     1      -2.320  -9.785   2.812  0.00  0.00    +0.253 C 
ATOM     15  O   UNL     1      -2.808 -10.327   1.837  0.00  0.00    -0.270 OA
ATOM     16  H   UNL     1      -1.161  -8.258   3.435  0.00  0.00    +0.152 HD
BRANCH  14  17
ATOM     17  C   UNL     1      -2.570 -10.324   4.152  0.00  0.00    +0.074 A 
ATOM     18  C   UNL     1      -3.318 -11.430   4.524  0.00  0.00    +0.021 A 
ATOM     19  C   UNL     1      -3.369 -11.691   5.872  0.00  0.00    +0.008 A 
ATOM     20  C   UNL     1      -2.705 -10.874   6.727  0.00  0.00    +0.046 A 
ATOM     21  S   UNL     1      -1.984  -9.732   5.728  0.00  0.00    -0.092 S 
ENDBRANCH  14  17
ENDBRANCH   2  13
BRANCH   1  22
ATOM     22  C   UNL     1      -1.676  -5.655   1.443  0.00  0.00    +0.116 C 
BRANCH  22  23
ATOM     23  C   UNL     1      -1.908  -5.176   0.009  0.00  0.00    +0.052 C 
BRANCH  23  30
ATOM     24  C   UNL     1      -1.200  -0.637   0.010  0.00  0.00    +0.121 A 
ATOM     25  C   UNL     1      -2.375   0.135   0.020  0.00  0.00    +0.047 A 
ATOM     26  C   UNL     1      -3.607  -0.415   0.028  0.00  0.00    +0.029 A 
ATOM     27  C   UNL     1      -3.753  -1.875   0.027  0.00  0.00    +0.043 A 
ATOM     28  N   UNL     1      -4.809  -2.650   0.034  0.00  0.00    -0.380 N 
ATOM     29  C   UNL     1      -4.362  -4.047   0.029  0.00  0.00    +0.144 C 
ATOM     30  C   UNL     1      -2.851  -4.000   0.018  0.00  0.00    -0.040 C 
ATOM     31  C   UNL     1      -2.516  -2.690   0.016  0.00  0.00    +0.002 A 
ATOM     32  C   UNL     1      -1.226  -1.992   0.003  0.00  0.00    +0.055 A 
ATOM     33  H   UNL     1      -5.731  -2.350   0.042  0.00  0.00    +0.160 HD
BRANCH  24  35
ATOM     34  C   UNL     1      -0.017   1.425   0.010  0.00  0.00    +0.277 C 
ATOM     35  O   UNL     1       0.002  -0.004   0.002  0.00  0.00    -0.495 OA
ENDBRANCH  24  35
ENDBRANCH  23  30
ENDBRANCH  22  23
ENDBRANCH   1  22
TORSDOF 6
