REMARK  Name = ZINC14459279
REMARK  8 active torsions:
REMARK  status: ('A' for Active; 'I' for Inactive)
REMARK    1  A    between atoms: C_1  and  C_2
REMARK    2  A    between atoms: C_2  and  C_3
REMARK    3  A    between atoms: C_2  and  O_4
REMARK    4  A    between atoms: O_4  and  C_5
REMARK    5  A    between atoms: C_18  and  C_21
REMARK    6  A    between atoms: C_24  and  O_29
REMARK    7  A    between atoms: C_25  and  O_27
REMARK    8  A    between atoms: O_27  and  C_28
REMARK                            x       y       z     vdW  Elec       q    Type
REMARK                         _______ _______ _______ _____ _____    ______ ____
ROOT
ATOM      1  C   UNL     1       1.177   1.789   0.002  0.00  0.00    +0.121 A 
ATOM      2  C   UNL     1      -0.001   1.092   0.228  0.00  0.00    +0.047 A 
ATOM      3  C   UNL     1      -1.204   1.769   0.237  0.00  0.00    +0.027 A 
ATOM      4  C   UNL     1      -1.231   3.144   0.032  0.00  0.00    +0.032 A 
ATOM      5  C   UNL     1      -0.060   3.844  -0.197  0.00  0.00    -0.016 A 
ATOM      6  C   UNL     1       1.147   3.157  -0.209  0.00  0.00    +0.051 A 
ATOM      7  C   UNL     1      -0.030   5.329  -0.439  0.00  0.00    +0.049 C 
ATOM      8  C   UNL     1       0.583   5.556  -1.814  0.00  0.00    -0.023 C 
ATOM      9  C   UNL     1      -0.356   5.703  -2.715  0.00  0.00    -0.030 C 
ATOM     10  C   UNL     1      -1.728   5.601  -2.073  0.00  0.00    +0.033 C 
ATOM     11  C   UNL     1      -1.440   5.929  -0.588  0.00  0.00    +0.029 C 
ATOM     12  C   UNL     1      -2.449   5.257   0.324  0.00  0.00    +0.105 C 
ATOM     13  N   UNL     1      -2.463   3.813   0.060  0.00  0.00    -0.336 N 
ATOM     14  H   UNL     1      -3.295   3.338  -0.090  0.00  0.00    +0.147 HD
ENDROOT
BRANCH  12  15
ATOM     15  C   UNL     1      -2.067   5.501   1.761  0.00  0.00    -0.023 A 
ATOM     16  C   UNL     1      -1.076   4.737   2.351  0.00  0.00    +0.009 A 
ATOM     17  C   UNL     1      -0.722   4.957   3.669  0.00  0.00    +0.049 A 
ATOM     18  C   UNL     1      -1.360   5.945   4.402  0.00  0.00    +0.158 A 
ATOM     19  C   UNL     1      -2.356   6.714   3.808  0.00  0.00    +0.162 A 
ATOM     20  C   UNL     1      -2.703   6.492   2.485  0.00  0.00    +0.054 A 
BRANCH  19  21
ATOM     21  O   UNL     1      -2.985   7.685   4.524  0.00  0.00    -0.491 OA
ATOM     22  C   UNL     1      -3.998   8.434   3.849  0.00  0.00    +0.277 C 
ENDBRANCH  19  21
BRANCH  18  23
ATOM     23  O   UNL     1      -1.012   6.163   5.699  0.00  0.00    -0.503 OA
ATOM     24  H   UNL     1      -0.305   6.812   5.812  0.00  0.00    +0.292 HD
ENDBRANCH  18  23
ENDBRANCH  12  15
BRANCH   1  25
ATOM     25  O   UNL     1       2.365   1.127  -0.013  0.00  0.00    -0.489 OA
BRANCH  25  27
ATOM     26  C   UNL     1       3.571  -0.899  -0.541  0.00  0.00    +0.051 C 
ATOM     27  C   UNL     1       2.315  -0.297   0.092  0.00  0.00    +0.167 C 
ATOM     28  C   UNL     1       2.246  -0.697   1.567  0.00  0.00    +0.051 C 
ENDBRANCH  25  27
ENDBRANCH   1  25
TORSDOF 5
