REMARK  Name = ZINC04708632
REMARK  6 active torsions:
REMARK  status: ('A' for Active; 'I' for Inactive)
REMARK    1  A    between atoms: C_1  and  C_2
REMARK    2  A    between atoms: C_5  and  N_8
REMARK    3  A    between atoms: C_11  and  C_18
REMARK    4  A    between atoms: C_13  and  C_16
REMARK    5  A    between atoms: C_14  and  N_15
REMARK    6  A    between atoms: C_21  and  N_23
REMARK                            x       y       z     vdW  Elec       q    Type
REMARK                         _______ _______ _______ _____ _____    ______ ____
ROOT
ATOM      1  N   UNL     1      -3.043   7.274   0.066  0.00  0.00    -0.260 N 
ATOM      2  C   UNL     1      -3.176   6.422   1.132  0.00  0.00    +0.024 C 
ATOM      3  C   UNL     1      -3.826   5.247   0.997  0.00  0.00    +0.026 C 
ATOM      4  C   UNL     1      -4.425   4.840  -0.326  0.00  0.00    +0.104 C 
ATOM      5  C   UNL     1      -4.570   6.021  -1.241  0.00  0.00    +0.077 C 
ATOM      6  C   UNL     1      -3.884   7.170  -1.019  0.00  0.00    +0.107 C 
ATOM      7  C   UNL     1      -3.964   4.366   2.084  0.00  0.00    +0.162 C 
ATOM      8  O   UNL     1      -4.569   3.323   1.933  0.00  0.00    -0.292 OA
ATOM      9  C   UNL     1      -3.378   4.692   3.430  0.00  0.00    +0.080 C 
ATOM     10  C   UNL     1      -2.151   5.590   3.236  0.00  0.00    +0.014 C 
ATOM     11  C   UNL     1      -2.581   6.834   2.456  0.00  0.00    +0.052 C 
ENDROOT
BRANCH   1  16
ATOM     12  C   UNL     1       0.999  11.254   0.127  0.00  0.00    +0.044 C 
ATOM     13  C   UNL     1      -0.075  10.197   0.111  0.00  0.00    -0.050 A 
ATOM     14  C   UNL     1       0.200   8.943  -0.403  0.00  0.00    +0.005 A 
ATOM     15  C   UNL     1      -0.782   7.971  -0.419  0.00  0.00    +0.024 A 
ATOM     16  C   UNL     1      -2.046   8.256   0.081  0.00  0.00    +0.040 A 
ATOM     17  C   UNL     1      -2.320   9.518   0.591  0.00  0.00    +0.024 A 
ATOM     18  C   UNL     1      -1.332  10.483   0.610  0.00  0.00    +0.005 A 
ENDBRANCH   1  16
BRANCH   4  19
ATOM     19  C   UNL     1      -3.531   3.817  -0.978  0.00  0.00    +0.005 A 
ATOM     20  C   UNL     1      -3.813   2.538  -1.329  0.00  0.00    +0.014 A 
ATOM     21  C   UNL     1      -2.828   1.775  -1.928  0.00  0.00    +0.041 A 
ATOM     22  C   UNL     1      -1.606   2.325  -2.136  0.00  0.00    +0.164 A 
ATOM     23  S   UNL     1      -1.828   3.974  -1.488  0.00  0.00    -0.068 S 
BRANCH  22  24
ATOM     24  N   UNL     1      -0.402   1.717  -2.746  0.00  0.00    +0.063 N 
ATOM     25  O   UNL     1      -0.434   0.564  -3.137  0.00  0.00    -0.126 OA
ATOM     26  O   UNL     1       0.619   2.371  -2.862  0.00  0.00    -0.126 OA
ENDBRANCH  22  24
ENDBRANCH   4  19
BRANCH   6  27
ATOM     27  N   UNL     1      -4.029   8.233  -1.878  0.00  0.00    -0.345 N 
ATOM     28  H   UNL     1      -3.478   9.024  -1.768  0.00  0.00    +0.144 HD
ATOM     29  H   UNL     1      -4.683   8.193  -2.594  0.00  0.00    +0.144 HD
ENDBRANCH   6  27
BRANCH   5  30
ATOM     30  C   UNL     1      -5.447   5.933  -2.369  0.00  0.00    +0.099 C 
ATOM     31  N   UNL     1      -6.143   5.863  -3.264  0.00  0.00    -0.191 NA
ENDBRANCH   5  30
TORSDOF 5
