REMARK  Name = ZINC09836187
REMARK  9 active torsions:
REMARK  status: ('A' for Active; 'I' for Inactive)
REMARK    1  A    between atoms: C_1  and  C_2
REMARK    2  A    between atoms: C_2  and  C_3
REMARK    3  A    between atoms: C_6  and  N_9
REMARK    4  A    between atoms: C_19  and  C_20
REMARK    5  A    between atoms: C_19  and  O_31
REMARK    6  A    between atoms: N_22  and  C_23
REMARK    7  A    between atoms: C_23  and  C_24
REMARK    8  A    between atoms: C_29  and  C_30
REMARK    9  A    between atoms: C_29  and  N_61
REMARK                            x       y       z     vdW  Elec       q    Type
REMARK                         _______ _______ _______ _____ _____    ______ ____
ROOT
ATOM      1  N   UNL     1      -0.314   1.362   0.105  0.00  0.00    -0.214 N 
ATOM      2  C   UNL     1       0.759   2.058  -0.312  0.00  0.00    +0.314 C 
ATOM      3  O   UNL     1       0.618   3.236  -0.581  0.00  0.00    -0.252 OA
ATOM      4  N   UNL     1       1.976   1.515  -0.444  0.00  0.00    -0.269 N 
ATOM      5  C   UNL     1       2.244   0.175  -0.161  0.00  0.00    +0.043 A 
ATOM      6  C   UNL     1       3.524  -0.340  -0.314  0.00  0.00    +0.025 A 
ATOM      7  C   UNL     1       3.770  -1.669  -0.029  0.00  0.00    +0.017 A 
ATOM      8  C   UNL     1       2.746  -2.490   0.409  0.00  0.00    +0.018 A 
ATOM      9  C   UNL     1       1.467  -1.981   0.563  0.00  0.00    +0.025 A 
ATOM     10  C   UNL     1       1.221  -0.658   0.279  0.00  0.00    +0.034 A 
ATOM     11  C   UNL     1      -0.161  -0.065   0.435  0.00  0.00    +0.247 C 
ATOM     12 BR   UNL     1       3.093  -4.308   0.796  0.00  0.00    -0.050 Br
ATOM     13  H   UNL     1       2.704   2.078  -0.749  0.00  0.00    +0.156 HD
ENDROOT
BRANCH   1  17
ATOM     14  C   UNL     1      -4.030   3.217   0.440  0.00  0.00    -0.048 A 
ATOM     15  C   UNL     1      -3.098   3.352   1.452  0.00  0.00    +0.005 A 
ATOM     16  C   UNL     1      -1.865   2.739   1.344  0.00  0.00    +0.024 A 
ATOM     17  C   UNL     1      -1.562   1.985   0.217  0.00  0.00    +0.041 A 
ATOM     18  C   UNL     1      -2.499   1.856  -0.800  0.00  0.00    +0.024 A 
ATOM     19  C   UNL     1      -3.732   2.467  -0.683  0.00  0.00    +0.005 A 
BRANCH  14  21
ATOM     20  C   UNL     1      -5.300   5.291  -0.042  0.00  0.00    +0.009 C 
ATOM     21  C   UNL     1      -5.374   3.887   0.561  0.00  0.00    +0.032 C 
ENDBRANCH  14  21
ENDBRANCH   1  17
BRANCH  11  22
ATOM     22  C   UNL     1      -0.590  -0.259   1.867  0.00  0.00    +0.269 C 
ATOM     23  O   UNL     1      -1.448  -1.073   2.137  0.00  0.00    -0.270 OA
ATOM     24  N   UNL     1      -0.022   0.471   2.846  0.00  0.00    -0.313 N 
ATOM     25  H   UNL     1       0.664   1.123   2.630  0.00  0.00    +0.149 HD
BRANCH  24  26
ATOM     26  C   UNL     1      -0.440   0.282   4.237  0.00  0.00    +0.089 C 
BRANCH  26  27
ATOM     27  C   UNL     1       0.286   1.291   5.130  0.00  0.00    -0.051 C 
ATOM     28  C   UNL     1       1.810   1.043   5.093  0.00  0.00    -0.016 C 
ATOM     29  C   UNL     1       2.295   1.316   6.532  0.00  0.00    -0.020 C 
ATOM     30  C   UNL     1       1.024   1.706   7.316  0.00  0.00    -0.078 C 
ATOM     31  N   UNL     1      -0.059   1.097   6.536  0.00  0.00    +0.382 N 
ATOM     32  H   UNL     1      -0.124   0.095   6.747  0.00  0.00    -0.081 HD
BRANCH  31  33
ATOM     33  C   UNL     1      -1.367   1.752   6.857  0.00  0.00    -0.082 C 
ATOM     34  C   UNL     1      -1.935   1.190   8.162  0.00  0.00    -0.017 C 
ENDBRANCH  31  33
ENDBRANCH  26  27
ENDBRANCH  24  26
ENDBRANCH  11  22
BRANCH  11  35
ATOM     35  O   UNL     1      -1.056  -0.808  -0.395  0.00  0.00    -0.360 OA
ATOM     36  H   UNL     1      -1.026  -1.763  -0.248  0.00  0.00    +0.213 HD
ENDBRANCH  11  35
TORSDOF 7
