REMARK  Name = ZINC65318896
REMARK  8 active torsions:
REMARK  status: ('A' for Active; 'I' for Inactive)
REMARK    1  A    between atoms: C_1  and  C_2
REMARK    2  A    between atoms: C_7  and  C_12
REMARK    3  A    between atoms: C_12  and  N_13
REMARK    4  A    between atoms: N_13  and  S_14
REMARK    5  A    between atoms: S_14  and  C_17
REMARK    6  A    between atoms: C_19  and  C_24
REMARK    7  A    between atoms: C_22  and  C_23
REMARK    8  A    between atoms: C_27  and  C_31
REMARK                            x       y       z     vdW  Elec       q    Type
REMARK                         _______ _______ _______ _____ _____    ______ ____
ROOT
ATOM      1  C   UNL     1       4.340  -6.168   1.491  0.00  0.00    +0.108 A 
ATOM      2  C   UNL     1       5.475  -6.376   0.728  0.00  0.00    +0.035 A 
ATOM      3  C   UNL     1       5.739  -7.629   0.210  0.00  0.00    -0.012 A 
ATOM      4  C   UNL     1       4.870  -8.676   0.455  0.00  0.00    +0.007 A 
ATOM      5  C   UNL     1       3.736  -8.469   1.218  0.00  0.00    +0.005 A 
ATOM      6  C   UNL     1       3.474  -7.216   1.740  0.00  0.00    -0.024 A 
ATOM      7  C   UNL     1       2.241  -6.991   2.576  0.00  0.00    +0.046 C 
ENDROOT
BRANCH   3   8
ATOM      8  C   UNL     1       6.975  -7.856  -0.622  0.00  0.00    +0.180 C 
ATOM      9  N   UNL     1       7.462  -9.244  -0.448  0.00  0.00    -0.262 NA
ATOM     10  C   UNL     1       8.942  -9.108  -0.439  0.00  0.00    +0.298 C 
ATOM     11  O   UNL     1       9.159  -7.876   0.285  0.00  0.00    -0.270 OA
ATOM     12  N   UNL     1       8.072  -6.981  -0.155  0.00  0.00    -0.177 NA
ATOM     13  H   UNL     1       7.131  -9.637   0.421  0.00  0.00    +0.127 HD
ATOM     14  H   UNL     1       8.384  -6.367  -0.893  0.00  0.00    +0.156 HD
BRANCH  10  15
ATOM     15  C   UNL     1       9.579 -10.270   0.278  0.00  0.00    +0.261 C 
ATOM     16  O   UNL     1      10.211 -11.095  -0.346  0.00  0.00    -0.271 OA
ATOM     17  N   UNL     1       9.447 -10.392   1.614  0.00  0.00    -0.298 N 
ATOM     18  C   UNL     1       8.706  -9.471   2.489  0.00  0.00    +0.108 C 
ATOM     19  C   UNL     1       8.851  -9.996   3.933  0.00  0.00    +0.020 C 
ATOM     20  C   UNL     1      10.134 -10.864   3.860  0.00  0.00    +0.020 C 
ATOM     21  C   UNL     1      10.015 -11.473   2.439  0.00  0.00    +0.108 C 
ENDBRANCH  10  15
ENDBRANCH   3   8
BRANCH   1  22
ATOM     22  S   UNL     1       4.003  -4.570   2.151  0.00  0.00    +0.059 S 
ATOM     23  O   UNL     1       2.650  -4.276   1.833  0.00  0.00    -0.153 OA
ATOM     24  O   UNL     1       5.079  -3.731   1.753  0.00  0.00    -0.153 OA
BRANCH  22  25
ATOM     25  N   UNL     1       4.086  -4.694   3.800  0.00  0.00    -0.186 NA
ATOM     26  H   UNL     1       3.294  -4.539   4.339  0.00  0.00    +0.148 HD
BRANCH  25  27
ATOM     27  C   UNL     1       5.355  -5.038   4.447  0.00  0.00    +0.152 C 
BRANCH  27  34
ATOM     28  C   UNL     1       1.073  -1.122   8.371  0.00  0.00    +0.044 C 
ATOM     29  C   UNL     1       1.882  -2.301   7.896  0.00  0.00    -0.048 A 
ATOM     30  C   UNL     1       1.401  -3.597   8.153  0.00  0.00    +0.005 A 
ATOM     31  C   UNL     1       2.059  -4.707   7.764  0.00  0.00    +0.027 A 
ATOM     32  C   UNL     1       3.333  -4.579   7.042  0.00  0.00    +0.060 A 
ATOM     33  N   UNL     1       4.167  -5.453   6.557  0.00  0.00    -0.362 N 
ATOM     34  C   UNL     1       5.273  -4.711   5.939  0.00  0.00    +0.190 C 
ATOM     35  N   UNL     1       4.971  -3.286   6.128  0.00  0.00    -0.362 N 
ATOM     36  C   UNL     1       3.842  -3.207   6.770  0.00  0.00    +0.060 A 
ATOM     37  C   UNL     1       3.035  -2.071   7.237  0.00  0.00    +0.030 A 
ATOM     38  H   UNL     1       4.075  -6.418   6.598  0.00  0.00    +0.162 HD
ATOM     39  H   UNL     1       5.514  -2.540   5.828  0.00  0.00    +0.162 HD
ENDBRANCH  27  34
ENDBRANCH  25  27
ENDBRANCH  22  25
ENDBRANCH   1  22
TORSDOF 6
