REMARK  Name = ZINC34785495
REMARK  7 active torsions:
REMARK  status: ('A' for Active; 'I' for Inactive)
REMARK    1  A    between atoms: C_2  and  C_3
REMARK    2  A    between atoms: C_3  and  N_4
REMARK    3  A    between atoms: N_7  and  C_8
REMARK    4  A    between atoms: C_9  and  C_21
REMARK    5  A    between atoms: N_11  and  C_14
REMARK    6  A    between atoms: C_12  and  N_13
REMARK    7  A    between atoms: C_14  and  C_15
REMARK                            x       y       z     vdW  Elec       q    Type
REMARK                         _______ _______ _______ _____ _____    ______ ____
ROOT
ATOM      1  C   UNL     1       3.131   5.151   0.065  0.00  0.00    +0.102 A 
ATOM      2  C   UNL     1       4.378   5.758  -0.188  0.00  0.00    +0.116 A 
ATOM      3  N   UNL     1       4.260   7.050   0.045  0.00  0.00    -0.167 NA
ATOM      4  N   UNL     1       2.944   7.308   0.450  0.00  0.00    -0.244 N 
ATOM      5  C   UNL     1       2.264   6.130   0.451  0.00  0.00    +0.137 A 
ENDROOT
BRANCH   2   6
ATOM      6  C   UNL     1       5.609   5.064  -0.636  0.00  0.00    +0.004 A 
ATOM      7  C   UNL     1       5.868   3.760  -0.218  0.00  0.00    +0.011 A 
ATOM      8  C   UNL     1       7.015   3.118  -0.639  0.00  0.00    +0.020 A 
ATOM      9  C   UNL     1       7.908   3.767  -1.474  0.00  0.00    +0.041 A 
ATOM     10  C   UNL     1       7.656   5.062  -1.892  0.00  0.00    +0.020 A 
ATOM     11  C   UNL     1       6.509   5.711  -1.482  0.00  0.00    +0.011 A 
ATOM     12 CL   UNL     1       9.349   2.954  -1.999  0.00  0.00    -0.084 Cl
ENDBRANCH   2   6
BRANCH   1  16
ATOM     13  N   UNL     1       3.188   1.727  -1.121  0.00  0.00    -0.288 N 
ATOM     14  C   UNL     1       3.392   3.058  -1.057  0.00  0.00    +0.305 C 
ATOM     15  O   UNL     1       4.082   3.608  -1.894  0.00  0.00    -0.252 OA
ATOM     16  N   UNL     1       2.832   3.778  -0.066  0.00  0.00    -0.265 N 
ATOM     17  H   UNL     1       2.638   1.288  -0.454  0.00  0.00    +0.151 HD
ATOM     18  H   UNL     1       2.223   3.353   0.559  0.00  0.00    +0.157 HD
BRANCH  13  19
ATOM     19  C   UNL     1       3.797   0.944  -2.199  0.00  0.00    +0.195 C 
BRANCH  19  21
ATOM     20  C   UNL     1       3.129  -1.602  -1.926  0.00  0.00    +0.005 C 
ATOM     21  C   UNL     1       3.426  -0.472  -2.047  0.00  0.00    -0.087 C 
ENDBRANCH  19  21
ENDBRANCH  13  19
ENDBRANCH   1  16
BRANCH   5  22
ATOM     22  N   UNL     1       0.921   5.954   0.789  0.00  0.00    -0.342 N 
ATOM     23  H   UNL     1       0.499   5.090   0.665  0.00  0.00    +0.144 HD
ATOM     24  H   UNL     1       0.411   6.696   1.149  0.00  0.00    +0.144 HD
ENDBRANCH   5  22
BRANCH   4  25
ATOM     25  C   UNL     1       2.395   8.618   0.805  0.00  0.00    +0.180 C 
BRANCH  25  26
ATOM     26  C   UNL     1       1.831   9.278  -0.427  0.00  0.00    -0.026 A 
ATOM     27  C   UNL     1       2.637  10.080  -1.212  0.00  0.00    +0.005 A 
ATOM     28  C   UNL     1       2.120  10.685  -2.342  0.00  0.00    +0.000 A 
ATOM     29  C   UNL     1       0.796  10.487  -2.687  0.00  0.00    +0.000 A 
ATOM     30  C   UNL     1      -0.010   9.684  -1.902  0.00  0.00    +0.000 A 
ATOM     31  C   UNL     1       0.508   9.076  -0.774  0.00  0.00    +0.005 A 
ENDBRANCH  25  26
ENDBRANCH   4  25
TORSDOF 7
