REMARK  Name = ZINC00474360
REMARK  5 active torsions:
REMARK  status: ('A' for Active; 'I' for Inactive)
REMARK    1  A    between atoms: C_1  and  C_2
REMARK    2  A    between atoms: C_5  and  N_9
REMARK    3  A    between atoms: C_10  and  C_12
REMARK    4  A    between atoms: C_12  and  C_13
REMARK    5  A    between atoms: C_16  and  N_19
REMARK                            x       y       z     vdW  Elec       q    Type
REMARK                         _______ _______ _______ _____ _____    ______ ____
ROOT
ATOM      1  N   UNL     1       0.057  -4.171  -0.023  0.00  0.00    -0.284 N 
ATOM      2  C   UNL     1      -0.042  -4.839  -1.189  0.00  0.00    +0.222 C 
ATOM      3  O   UNL     1      -0.055  -4.230  -2.238  0.00  0.00    -0.275 OA
ATOM      4  H   UNL     1       0.149  -4.660   0.810  0.00  0.00    +0.155 HD
ENDROOT
BRANCH   1   9
ATOM      5  C   UNL     1      -0.063   1.502   0.016  0.00  0.00    +0.044 C 
ATOM      6  C   UNL     1      -0.031  -0.005   0.006  0.00  0.00    -0.049 A 
ATOM      7  C   UNL     1      -0.622  -0.701  -1.033  0.00  0.00    +0.005 A 
ATOM      8  C   UNL     1      -0.594  -2.081  -1.045  0.00  0.00    +0.024 A 
ATOM      9  C   UNL     1       0.028  -2.771  -0.013  0.00  0.00    +0.047 A 
ATOM     10  C   UNL     1       0.621  -2.070   1.029  0.00  0.00    +0.039 A 
ATOM     11  C   UNL     1       0.595  -0.688   1.032  0.00  0.00    +0.020 A 
ATOM     12 BR   UNL     1       1.470  -3.004   2.437  0.00  0.00    -0.048 Br
ENDBRANCH   1   9
BRANCH   2  13
ATOM     13  C   UNL     1      -0.136  -6.343  -1.190  0.00  0.00    +0.131 C 
BRANCH  13  14
ATOM     14  C   UNL     1      -0.237  -6.839  -2.609  0.00  0.00    -0.038 A 
ATOM     15  C   UNL     1      -1.476  -6.987  -3.204  0.00  0.00    +0.006 A 
ATOM     16  C   UNL     1      -1.568  -7.442  -4.506  0.00  0.00    +0.033 A 
ATOM     17  C   UNL     1      -0.421  -7.749  -5.213  0.00  0.00    +0.126 A 
ATOM     18  C   UNL     1       0.818  -7.601  -4.620  0.00  0.00    +0.033 A 
ATOM     19  C   UNL     1       0.910  -7.141  -3.319  0.00  0.00    +0.006 A 
BRANCH  17  20
ATOM     20  N   UNL     1      -0.520  -8.237  -6.607  0.00  0.00    +0.056 N 
ATOM     21  O   UNL     1      -1.604  -8.367  -7.127  0.00  0.00    -0.126 OA
ATOM     22  O   UNL     1       0.483  -8.506  -7.226  0.00  0.00    -0.126 OA
ENDBRANCH  17  20
ENDBRANCH  13  14
ENDBRANCH   2  13
TORSDOF 4
