REMARK  Name = ZINC63432216
REMARK  9 active torsions:
REMARK  status: ('A' for Active; 'I' for Inactive)
REMARK    1  A    between atoms: C_1  and  C_2
REMARK    2  A    between atoms: C_2  and  O_3
REMARK    3  A    between atoms: O_3  and  C_4
REMARK    4  A    between atoms: N_6  and  C_7
REMARK    5  A    between atoms: C_7  and  C_9
REMARK    6  A    between atoms: C_7  and  C_19
REMARK    7  A    between atoms: C_9  and  C_10
REMARK    8  A    between atoms: N_21  and  C_22
REMARK    9  A    between atoms: C_25  and  C_28
REMARK                            x       y       z     vdW  Elec       q    Type
REMARK                         _______ _______ _______ _____ _____    ______ ____
ROOT
ATOM      1  C   UNL     1      -2.907  -3.823   0.009  0.00  0.00    +0.166 C 
ENDROOT
BRANCH   1   4
ATOM      2  C   UNL     1      -1.497  -1.836   0.006  0.00  0.00    +0.401 C 
ATOM      3  O   UNL     1      -0.523  -2.563  -0.007  0.00  0.00    -0.226 OA
ATOM      4  N   UNL     1      -2.735  -2.368   0.015  0.00  0.00    -0.270 N 
ATOM      5  H   UNL     1      -3.512  -1.787   0.026  0.00  0.00    +0.153 HD
BRANCH   2   6
ATOM      6  O   UNL     1      -1.339  -0.499   0.012  0.00  0.00    -0.451 OA
BRANCH   6   8
ATOM      7  C   UNL     1      -0.019   1.526   0.010  0.00  0.00    +0.048 C 
ATOM      8  C   UNL     1       0.002  -0.004   0.002  0.00  0.00    +0.230 C 
ENDBRANCH   6   8
ENDBRANCH   2   6
ENDBRANCH   1   4
BRANCH   1   9
ATOM      9  C   UNL     1      -2.273  -4.398  -1.230  0.00  0.00    +0.236 C 
ATOM     10  O   UNL     1      -1.437  -3.761  -1.835  0.00  0.00    -0.274 OA
ATOM     11  N   UNL     1      -2.634  -5.621  -1.667  0.00  0.00    -0.284 N 
ATOM     12  H   UNL     1      -3.303  -6.131  -1.183  0.00  0.00    +0.152 HD
BRANCH  11  13
ATOM     13  C   UNL     1      -2.017  -6.181  -2.872  0.00  0.00    +0.251 C 
ATOM     14  N   UNL     1      -2.343  -7.614  -3.021  0.00  0.00    -0.254 NA
ATOM     15  C   UNL     1      -2.750  -8.065  -4.136  0.00  0.00    +0.056 C 
ATOM     16  C   UNL     1      -2.893  -7.097  -5.302  0.00  0.00    +0.128 C 
ATOM     17  S   UNL     1      -2.790  -5.488  -4.399  0.00  0.00    -0.109 S 
BRANCH  15  18
ATOM     18  C   UNL     1      -3.077  -9.495  -4.298  0.00  0.00    -0.003 A 
ATOM     19  C   UNL     1      -3.517  -9.979  -5.531  0.00  0.00    +0.010 A 
ATOM     20  C   UNL     1      -3.821 -11.317  -5.676  0.00  0.00    +0.001 A 
ATOM     21  C   UNL     1      -3.689 -12.179  -4.601  0.00  0.00    +0.000 A 
ATOM     22  C   UNL     1      -3.253 -11.707  -3.376  0.00  0.00    +0.001 A 
ATOM     23  C   UNL     1      -2.941 -10.372  -3.220  0.00  0.00    +0.010 A 
ENDBRANCH  15  18
ENDBRANCH  11  13
ENDBRANCH   1   9
BRANCH   1  24
ATOM     24  C   UNL     1      -2.239  -4.420   1.249  0.00  0.00    +0.065 C 
BRANCH  24  25
ATOM     25  C   UNL     1      -2.953  -3.940   2.486  0.00  0.00    -0.039 C 
ATOM     26  C   UNL     1      -3.937  -4.580   3.158  0.00  0.00    -0.001 A 
ATOM     27  C   UNL     1      -4.612  -5.867   2.945  0.00  0.00    +0.010 A 
ATOM     28  C   UNL     1      -5.583  -6.248   3.806  0.00  0.00    +0.001 A 
ATOM     29  C   UNL     1      -5.960  -5.448   4.893  0.00  0.00    +0.002 A 
ATOM     30  C   UNL     1      -5.387  -4.254   5.153  0.00  0.00    +0.026 A 
ATOM     31  C   UNL     1      -4.354  -3.754   4.313  0.00  0.00    +0.043 A 
ATOM     32  N   UNL     1      -3.655  -2.645   4.354  0.00  0.00    -0.380 N 
ATOM     33  C   UNL     1      -2.711  -2.646   3.231  0.00  0.00    +0.144 C 
ATOM     34  H   UNL     1      -3.745  -1.944   5.017  0.00  0.00    +0.160 HD
ENDBRANCH  24  25
ENDBRANCH   1  24
TORSDOF 8
