REMARK  Name = ZINC33828907
REMARK  16 active torsions:
REMARK  status: ('A' for Active; 'I' for Inactive)
REMARK    1  A    between atoms: C_1  and  C_2
REMARK    2  A    between atoms: C_2  and  C_4
REMARK    3  A    between atoms: C_2  and  N_19
REMARK    4  A    between atoms: N_14  and  C_15
REMARK    5  A    between atoms: C_15  and  C_16
REMARK    6  A    between atoms: C_16  and  O_17
REMARK    7  A    between atoms: O_17  and  C_18
REMARK    8  A    between atoms: N_19  and  C_20
REMARK    9  A    between atoms: C_20  and  C_21
REMARK   10  A    between atoms: C_21  and  C_22
REMARK   11  A    between atoms: C_22  and  C_23
REMARK   12  A    between atoms: C_23  and  C_24
REMARK   13  A    between atoms: C_24  and  C_25
REMARK   14  A    between atoms: C_25  and  N_26
REMARK   15  A    between atoms: C_27  and  C_29
REMARK   16  A    between atoms: C_33  and  N_35
REMARK                            x       y       z     vdW  Elec       q    Type
REMARK                         _______ _______ _______ _____ _____    ______ ____
ROOT
ATOM      1  N   UNL     1       0.430   5.863   0.477  0.00  0.00    -0.288 N 
ATOM      2  C   UNL     1      -0.390   5.311   1.394  0.00  0.00    +0.247 C 
ATOM      3  O   UNL     1      -1.248   5.988   1.928  0.00  0.00    -0.270 OA
ENDROOT
BRANCH   2   4
ATOM      4  C   UNL     1      -0.246   3.884   1.750  0.00  0.00    +0.039 A 
ATOM      5  C   UNL     1      -0.111   2.921   0.748  0.00  0.00    +0.013 A 
ATOM      6  C   UNL     1       0.022   1.591   1.087  0.00  0.00    +0.003 A 
ATOM      7  C   UNL     1       0.022   1.210   2.418  0.00  0.00    +0.033 A 
ATOM      8  C   UNL     1      -0.116   2.158   3.415  0.00  0.00    +0.127 A 
ATOM      9  C   UNL     1      -0.245   3.493   3.090  0.00  0.00    +0.045 A 
BRANCH   8  10
ATOM     10  N   UNL     1      -0.120   1.740   4.835  0.00  0.00    +0.056 N 
ATOM     11  O   UNL     1      -0.003   0.563   5.124  0.00  0.00    -0.126 OA
ATOM     12  O   UNL     1      -0.242   2.574   5.715  0.00  0.00    -0.126 OA
ENDBRANCH   8  10
ENDBRANCH   2   4
BRANCH   1  14
ATOM     13  C   UNL     1      -0.980   7.617  -0.481  0.00  0.00    +0.036 C 
ATOM     14  C   UNL     1       0.354   7.299   0.197  0.00  0.00    +0.139 C 
BRANCH  14  15
ATOM     15  C   UNL     1       0.458   8.069   1.489  0.00  0.00    +0.133 A 
ATOM     16  N   UNL     1      -0.626   8.582   1.988  0.00  0.00    -0.232 NA
ATOM     17  C   UNL     1      -0.611   9.282   3.150  0.00  0.00    +0.078 A 
ATOM     18  C   UNL     1      -1.776   9.829   3.691  0.00  0.00    +0.028 A 
ATOM     19  C   UNL     1      -1.714  10.537   4.869  0.00  0.00    +0.002 A 
ATOM     20  C   UNL     1      -0.505  10.715   5.529  0.00  0.00    +0.001 A 
ATOM     21  C   UNL     1       0.658  10.186   5.016  0.00  0.00    +0.015 A 
ATOM     22  C   UNL     1       0.617   9.465   3.824  0.00  0.00    +0.065 A 
ATOM     23  C   UNL     1       1.826   8.877   3.228  0.00  0.00    +0.262 A 
ATOM     24  O   UNL     1       2.915   8.997   3.758  0.00  0.00    -0.267 OA
ATOM     25  N   UNL     1       1.680   8.196   2.068  0.00  0.00    -0.292 N 
BRANCH  25  26
ATOM     26  C   UNL     1       2.851   7.589   1.431  0.00  0.00    +0.154 C 
BRANCH  26  27
ATOM     27  C   UNL     1       3.526   8.616   0.519  0.00  0.00    +0.181 C 
BRANCH  27  28
ATOM     28  O   UNL     1       4.010   9.706   1.306  0.00  0.00    -0.381 OA
ATOM     29  C   UNL     1       4.661  10.727   0.547  0.00  0.00    +0.194 C 
ENDBRANCH  27  28
ENDBRANCH  26  27
ENDBRANCH  25  26
ENDBRANCH  14  15
ENDBRANCH   1  14
BRANCH   1  30
ATOM     30  C   UNL     1       1.396   5.027  -0.239  0.00  0.00    +0.109 C 
BRANCH  30  31
ATOM     31  C   UNL     1       0.846   4.685  -1.625  0.00  0.00    +0.019 C 
BRANCH  31  32
ATOM     32  C   UNL     1       1.783   3.691  -2.314  0.00  0.00    +0.001 C 
BRANCH  32  33
ATOM     33  C   UNL     1       1.233   3.349  -3.700  0.00  0.00    -0.002 C 
BRANCH  33  34
ATOM     34  C   UNL     1       2.170   2.355  -4.390  0.00  0.00    -0.020 C 
BRANCH  34  35
ATOM     35  C   UNL     1       1.620   2.013  -5.776  0.00  0.00    -0.086 C 
BRANCH  35  36
ATOM     36  N   UNL     1       2.519   1.059  -6.438  0.00  0.00    +0.378 N 
ATOM     37  H   UNL     1       2.124   0.813  -7.434  0.00  0.00    -0.090 HD
ATOM     38  H   UNL     1       2.589   0.142  -5.835  0.00  0.00    -0.090 HD
ATOM     39  H   UNL     1       3.519   1.507  -6.540  0.00  0.00    -0.090 HD
ENDBRANCH  35  36
ENDBRANCH  34  35
ENDBRANCH  33  34
ENDBRANCH  32  33
ENDBRANCH  31  32
ENDBRANCH  30  31
ENDBRANCH   1  30
TORSDOF 14
