REMARK  Name = ZINC54672049
REMARK  5 active torsions:
REMARK  status: ('A' for Active; 'I' for Inactive)
REMARK    1  A    between atoms: C_1  and  C_2
REMARK    2  A    between atoms: C_3  and  C_9
REMARK    3  A    between atoms: N_5  and  C_7
REMARK    4  A    between atoms: N_11  and  N_12
REMARK    5  A    between atoms: C_13  and  C_15
REMARK                            x       y       z     vdW  Elec       q    Type
REMARK                         _______ _______ _______ _____ _____    ______ ____
ROOT
ATOM      1  N   UNL     1      -1.192   0.245  -4.516  0.00  0.00    -0.230 N 
ATOM      2  C   UNL     1      -2.365   0.436  -5.152  0.00  0.00    +0.267 C 
ATOM      3  O   UNL     1      -3.413   0.234  -4.567  0.00  0.00    -0.268 OA
ATOM      4  H   UNL     1      -0.356   0.407  -4.982  0.00  0.00    +0.173 HD
ENDROOT
BRANCH   2   5
ATOM      5  C   UNL     1      -2.379   0.886  -6.547  0.00  0.00    +0.076 A 
ATOM      6  C   UNL     1      -3.458   1.144  -7.369  0.00  0.00    +0.024 A 
ATOM      7  C   UNL     1      -3.178   1.564  -8.666  0.00  0.00    -0.036 A 
ATOM      8  C   UNL     1      -1.865   1.678  -8.996  0.00  0.00    -0.006 A 
ATOM      9  S   UNL     1      -1.007   1.252  -7.624  0.00  0.00    -0.088 S 
ATOM     10  C   UNL     1      -1.281   2.098 -10.313  0.00  0.00    +0.043 C 
ATOM     11  C   UNL     1      -2.256   3.042 -11.025  0.00  0.00    +0.005 C 
ATOM     12  C   UNL     1      -3.206   2.207 -11.878  0.00  0.00    +0.001 C 
ATOM     13  C   UNL     1      -4.008   1.246 -11.004  0.00  0.00    +0.005 C 
ATOM     14  C   UNL     1      -4.302   1.878  -9.648  0.00  0.00    +0.036 C 
ENDBRANCH   2   5
BRANCH   1  17
ATOM     15  C   UNL     1      -0.005  -0.375  -2.548  0.00  0.00    +0.265 C 
ATOM     16  O   UNL     1       1.042  -0.173  -3.132  0.00  0.00    -0.268 OA
ATOM     17  N   UNL     1      -1.179  -0.185  -3.183  0.00  0.00    -0.230 N 
ATOM     18  H   UNL     1      -2.014  -0.346  -2.717  0.00  0.00    +0.173 HD
BRANCH  15  21
ATOM     19  C   UNL     1      -0.018   1.503   0.010  0.00  0.00    +0.068 C 
ATOM     20  C   UNL     1       0.002  -0.004   0.002  0.00  0.00    +0.074 A 
ATOM     21  C   UNL     1       0.008  -0.828  -1.146  0.00  0.00    +0.097 A 
ATOM     22  C   UNL     1       0.029  -2.139  -0.707  0.00  0.00    +0.139 A 
ATOM     23  N   UNL     1       0.035  -2.111   0.636  0.00  0.00    -0.255 N 
ATOM     24  N   UNL     1       0.023  -0.776   1.053  0.00  0.00    -0.175 NA
ATOM     25  C   UNL     1       0.056  -3.283   1.516  0.00  0.00    +0.174 C 
ATOM     26 CL   UNL     1       0.043  -3.558  -1.706  0.00  0.00    -0.062 Cl
ENDBRANCH  15  21
ENDBRANCH   1  17
TORSDOF 3
