REMARK  Name = ZINC67290946
REMARK  5 active torsions:
REMARK  status: ('A' for Active; 'I' for Inactive)
REMARK    1  A    between atoms: C_3  and  C_10
REMARK    2  A    between atoms: C_5  and  C_7
REMARK    3  A    between atoms: C_10  and  C_11
REMARK    4  A    between atoms: C_11  and  N_12
REMARK    5  A    between atoms: N_15  and  C_16
REMARK                            x       y       z     vdW  Elec       q    Type
REMARK                         _______ _______ _______ _____ _____    ______ ____
ROOT
ATOM      1  N   UNL     1       5.380   3.207   1.411  0.00  0.00    -0.299 N 
ATOM      2  C   UNL     1       5.962   3.559   2.575  0.00  0.00    +0.304 C 
ATOM      3  O   UNL     1       5.451   3.241   3.631  0.00  0.00    -0.253 OA
ATOM      4  N   UNL     1       7.111   4.265   2.567  0.00  0.00    -0.268 N 
ATOM      5  H   UNL     1       5.788   3.460   0.569  0.00  0.00    +0.150 HD
ATOM      6  H   UNL     1       7.553   4.462   1.726  0.00  0.00    +0.156 HD
ENDROOT
BRANCH   4   7
ATOM      7  C   UNL     1       7.666   4.712   3.772  0.00  0.00    +0.054 A 
ATOM      8  C   UNL     1       7.553   3.939   4.919  0.00  0.00    +0.040 A 
ATOM      9  C   UNL     1       8.102   4.383   6.107  0.00  0.00    +0.020 A 
ATOM     10  C   UNL     1       8.764   5.597   6.154  0.00  0.00    +0.017 A 
ATOM     11  C   UNL     1       8.878   6.370   5.013  0.00  0.00    +0.023 A 
ATOM     12  C   UNL     1       8.336   5.928   3.821  0.00  0.00    +0.062 A 
ATOM     13 CL   UNL     1       8.486   6.896   2.387  0.00  0.00    -0.082 Cl
ATOM     14 BR   UNL     1       7.948   3.330   7.671  0.00  0.00    -0.050 Br
ENDBRANCH   4   7
BRANCH   1  15
ATOM     15  C   UNL     1       4.132   2.440   1.420  0.00  0.00    +0.110 C 
BRANCH  15  16
ATOM     16  C   UNL     1       3.688   2.173  -0.020  0.00  0.00    +0.054 C 
BRANCH  16  19
ATOM     17  C   UNL     1       0.004   1.328   0.005  0.00  0.00    +0.001 A 
ATOM     18  C   UNL     1       1.188   2.045  -0.003  0.00  0.00    +0.004 A 
ATOM     19  C   UNL     1       2.404   1.384  -0.011  0.00  0.00    -0.045 A 
ATOM     20  C   UNL     1       2.443   0.005  -0.012  0.00  0.00    +0.016 A 
ATOM     21  C   UNL     1       1.253  -0.724  -0.004  0.00  0.00    +0.037 A 
ATOM     22  C   UNL     1       0.030  -0.051   0.005  0.00  0.00    +0.013 A 
BRANCH  21  23
ATOM     23  C   UNL     1       1.287  -2.202  -0.005  0.00  0.00    +0.242 C 
ATOM     24  O   UNL     1       2.354  -2.785  -0.012  0.00  0.00    -0.270 OA
ATOM     25  N   UNL     1       0.136  -2.903   0.003  0.00  0.00    -0.325 N 
ATOM     26  H   UNL     1      -0.715  -2.438   0.009  0.00  0.00    +0.145 HD
ATOM     27  H   UNL     1       0.159  -3.873   0.003  0.00  0.00    +0.145 HD
ENDBRANCH  21  23
ENDBRANCH  16  19
ENDBRANCH  15  16
ENDBRANCH   1  15
TORSDOF 5
