REMARK  Name = ZINC65421000
REMARK  10 active torsions:
REMARK  status: ('A' for Active; 'I' for Inactive)
REMARK    1  A    between atoms: C_1  and  C_2
REMARK    2  A    between atoms: N_6  and  C_8
REMARK    3  A    between atoms: C_8  and  C_9
REMARK    4  A    between atoms: C_8  and  C_10
REMARK    5  A    between atoms: C_8  and  C_11
REMARK    6  A    between atoms: C_11  and  N_12
REMARK    7  A    between atoms: C_13  and  C_15
REMARK    8  A    between atoms: C_15  and  C_16
REMARK    9  A    between atoms: C_15  and  N_27
REMARK   10  A    between atoms: C_16  and  C_17
REMARK                            x       y       z     vdW  Elec       q    Type
REMARK                         _______ _______ _______ _____ _____    ______ ____
ROOT
ATOM      1  C   UNL     1       2.961  -6.266  -0.367  0.00  0.00    +0.165 C 
ENDROOT
BRANCH   1   2
ATOM      2  N   UNL     1       3.423  -7.645  -0.191  0.00  0.00    -0.288 N 
ATOM      3  C   UNL     1       2.542  -8.616   0.121  0.00  0.00    +0.298 C 
ATOM      4  O   UNL     1       1.364  -8.347   0.255  0.00  0.00    -0.253 OA
ATOM      5  N   UNL     1       2.967  -9.884   0.283  0.00  0.00    -0.313 N 
ATOM      6  H   UNL     1       4.363  -7.859  -0.297  0.00  0.00    +0.151 HD
ATOM      7  H   UNL     1       3.907 -10.098   0.176  0.00  0.00    +0.146 HD
ATOM      8  H   UNL     1       2.333 -10.583   0.507  0.00  0.00    +0.146 HD
ENDBRANCH   1   2
BRANCH   1  10
ATOM      9  N   UNL     1       2.189  -4.461   1.137  0.00  0.00    -0.315 N 
ATOM     10  C   UNL     1       2.323  -5.782   0.909  0.00  0.00    +0.234 C 
ATOM     11  O   UNL     1       1.929  -6.582   1.731  0.00  0.00    -0.274 OA
ATOM     12  H   UNL     1       2.503  -3.821   0.480  0.00  0.00    +0.149 HD
BRANCH   9  13
ATOM     13  C   UNL     1       1.568  -3.991   2.378  0.00  0.00    +0.092 C 
BRANCH  13  14
ATOM     14  C   UNL     1       1.539  -2.461   2.387  0.00  0.00    -0.055 C 
ATOM     15  C   UNL     1       2.969  -1.923   2.296  0.00  0.00    -0.008 C 
ATOM     16  C   UNL     1       0.891  -1.970   3.683  0.00  0.00    -0.008 C 
BRANCH  14  22
ATOM     17  C   UNL     1      -0.019   1.526   0.010  0.00  0.00    +0.005 C 
ATOM     18  C   UNL     1       0.002  -0.004   0.002  0.00  0.00    -0.031 C 
ATOM     19  C   UNL     1      -1.434  -0.535   0.018  0.00  0.00    -0.001 C 
ATOM     20  C   UNL     1      -1.402  -2.064   0.089  0.00  0.00    -0.018 C 
ATOM     21  C   UNL     1      -0.610  -2.496   1.325  0.00  0.00    -0.078 C 
ATOM     22  N   UNL     1       0.761  -1.980   1.237  0.00  0.00    +0.384 N 
ATOM     23  C   UNL     1       0.742  -0.512   1.241  0.00  0.00    -0.075 C 
ATOM     24  H   UNL     1       1.189  -2.307   0.384  0.00  0.00    -0.081 HD
ENDBRANCH  14  22
ENDBRANCH  13  14
ENDBRANCH   9  13
ENDBRANCH   1  10
BRANCH   1  25
ATOM     25  C   UNL     1       1.937  -6.213  -1.502  0.00  0.00    +0.069 C 
BRANCH  25  26
ATOM     26  C   UNL     1       2.607  -6.578  -2.801  0.00  0.00    -0.020 A 
ATOM     27  C   UNL     1       3.124  -5.726  -3.700  0.00  0.00    +0.087 A 
ATOM     28  N   UNL     1       3.649  -6.423  -4.755  0.00  0.00    -0.360 N 
ATOM     29  H   UNL     1       4.078  -6.024  -5.528  0.00  0.00    +0.165 HD
ATOM     30  C   UNL     1       3.477  -7.774  -4.556  0.00  0.00    +0.047 A 
ATOM     31  C   UNL     1       2.822  -7.931  -3.320  0.00  0.00    +0.003 A 
ATOM     32  C   UNL     1       2.518  -9.210  -2.851  0.00  0.00    +0.010 A 
ATOM     33  C   UNL     1       2.862 -10.305  -3.593  0.00  0.00    +0.001 A 
ATOM     34  C   UNL     1       3.512 -10.155  -4.810  0.00  0.00    +0.002 A 
ATOM     35  C   UNL     1       3.813  -8.902  -5.297  0.00  0.00    +0.026 A 
ENDBRANCH  25  26
ENDBRANCH   1  25
TORSDOF 7
