REMARK  Name = ZINC09241175
REMARK  4 active torsions:
REMARK  status: ('A' for Active; 'I' for Inactive)
REMARK    1  A    between atoms: C_7  and  C_11
REMARK    2  A    between atoms: N_12  and  N_13
REMARK    3  A    between atoms: C_14  and  C_16
REMARK    4  A    between atoms: C_18  and  C_22
REMARK                            x       y       z     vdW  Elec       q    Type
REMARK                         _______ _______ _______ _____ _____    ______ ____
ROOT
ATOM      1  N   UNL     1      -1.460  -4.170  -0.004  0.00  0.00    -0.202 N 
ATOM      2  C   UNL     1      -2.794  -3.976   0.011  0.00  0.00    +0.281 C 
ATOM      3  O   UNL     1      -3.245  -2.846   0.021  0.00  0.00    -0.267 OA
ATOM      4  H   UNL     1      -1.101  -5.071  -0.012  0.00  0.00    +0.178 HD
ENDROOT
BRANCH   2   5
ATOM      5  C   UNL     1      -3.705  -5.132   0.014  0.00  0.00    +0.122 A 
ATOM      6  C   UNL     1      -5.082  -5.086   0.023  0.00  0.00    +0.063 A 
ATOM      7  C   UNL     1      -5.551  -6.409   0.022  0.00  0.00    +0.100 A 
ATOM      8  N   UNL     1      -4.511  -7.221   0.014  0.00  0.00    -0.173 NA
ATOM      9  N   UNL     1      -3.342  -6.450   0.003  0.00  0.00    -0.272 N 
ATOM     10  H   UNL     1      -2.434  -6.792  -0.008  0.00  0.00    +0.189 HD
BRANCH   7  11
ATOM     11  C   UNL     1      -6.972  -6.824   0.030  0.00  0.00    +0.041 A 
ATOM     12  C   UNL     1      -7.501  -8.085   0.036  0.00  0.00    +0.019 A 
ATOM     13  C   UNL     1      -8.873  -8.229   0.043  0.00  0.00    +0.028 A 
ATOM     14  C   UNL     1      -9.653  -7.117   0.044  0.00  0.00    +0.079 A 
ATOM     15  S   UNL     1      -8.440  -5.808   0.043  0.00  0.00    -0.075 S 
ATOM     16 CL   UNL     1     -11.385  -7.000   0.052  0.00  0.00    -0.076 Cl
ENDBRANCH   7  11
ENDBRANCH   2   5
BRANCH   1  18
ATOM     17  C   UNL     1       0.693  -3.256  -0.021  0.00  0.00    +0.140 C 
ATOM     18  N   UNL     1      -0.593  -3.070  -0.007  0.00  0.00    -0.187 NA
BRANCH  17  25
ATOM     19  C   UNL     1      -0.017   1.373   0.010  0.00  0.00    +0.001 A 
ATOM     20  C   UNL     1       1.172   2.090   0.002  0.00  0.00    +0.002 A 
ATOM     21  C   UNL     1       2.385   1.438  -0.013  0.00  0.00    +0.026 A 
ATOM     22  C   UNL     1       2.425   0.047  -0.021  0.00  0.00    +0.047 A 
ATOM     23  C   UNL     1       1.222  -0.677  -0.013  0.00  0.00    +0.008 A 
ATOM     24  C   UNL     1       0.002  -0.004   0.002  0.00  0.00    +0.010 A 
ATOM     25  C   UNL     1       1.604  -2.101  -0.025  0.00  0.00    +0.020 A 
ATOM     26  C   UNL     1       2.964  -2.137  -0.038  0.00  0.00    +0.093 A 
ATOM     27  N   UNL     1       3.458  -0.867  -0.036  0.00  0.00    -0.360 N 
ATOM     28  H   UNL     1       4.401  -0.638  -0.045  0.00  0.00    +0.165 HD
ENDBRANCH  17  25
ENDBRANCH   1  18
TORSDOF 4
