REMARK  Name = ZINC00636242
REMARK  6 active torsions:
REMARK  status: ('A' for Active; 'I' for Inactive)
REMARK    1  A    between atoms: C_1  and  C_2
REMARK    2  A    between atoms: C_5  and  S_8
REMARK    3  A    between atoms: S_8  and  C_11
REMARK    4  A    between atoms: N_22  and  C_25
REMARK    5  A    between atoms: C_23  and  N_24
REMARK    6  A    between atoms: C_25  and  C_26
REMARK                            x       y       z     vdW  Elec       q    Type
REMARK                         _______ _______ _______ _____ _____    ______ ____
ROOT
ATOM      1  C   UNL     1      -2.826   4.793   4.922  0.00  0.00    +0.160 A 
ATOM      2  C   UNL     1      -3.819   5.613   4.335  0.00  0.00    +0.135 A 
ATOM      3  C   UNL     1      -3.372   6.997   4.543  0.00  0.00    +0.163 A 
ATOM      4  N   UNL     1      -4.106   7.992   4.098  0.00  0.00    -0.226 NA
ATOM      5  C   UNL     1      -5.254   7.738   3.457  0.00  0.00    +0.092 A 
ATOM      6  C   UNL     1      -6.045   8.798   2.976  0.00  0.00    +0.030 A 
ATOM      7  C   UNL     1      -7.211   8.533   2.326  0.00  0.00    +0.002 A 
ATOM      8  C   UNL     1      -7.637   7.221   2.126  0.00  0.00    +0.002 A 
ATOM      9  C   UNL     1      -6.900   6.170   2.576  0.00  0.00    +0.030 A 
ATOM     10  C   UNL     1      -5.688   6.404   3.254  0.00  0.00    +0.090 A 
ATOM     11  N   UNL     1      -4.956   5.378   3.700  0.00  0.00    -0.240 NA
ATOM     12  N   UNL     1      -2.175   6.917   5.222  0.00  0.00    -0.309 N 
ATOM     13  C   UNL     1      -1.871   5.597   5.443  0.00  0.00    +0.126 A 
ENDROOT
BRANCH   1  14
ATOM     14  S   UNL     1      -2.837   3.031   4.972  0.00  0.00    +0.030 S 
ATOM     15  O   UNL     1      -4.194   2.630   4.851  0.00  0.00    -0.164 OA
ATOM     16  O   UNL     1      -2.026   2.652   6.076  0.00  0.00    -0.164 OA
BRANCH  14  21
ATOM     17  C   UNL     1      -0.013   1.086   0.008  0.00  0.00    +0.044 C 
ATOM     18  C   UNL     1      -0.718   1.572   1.248  0.00  0.00    -0.050 A 
ATOM     19  C   UNL     1      -2.083   1.789   1.226  0.00  0.00    +0.005 A 
ATOM     20  C   UNL     1      -2.731   2.230   2.365  0.00  0.00    +0.027 A 
ATOM     21  C   UNL     1      -2.012   2.464   3.522  0.00  0.00    +0.094 A 
ATOM     22  C   UNL     1      -0.646   2.252   3.542  0.00  0.00    +0.027 A 
ATOM     23  C   UNL     1       0.001   1.806   2.405  0.00  0.00    +0.005 A 
ENDBRANCH  14  21
ENDBRANCH   1  14
BRANCH  13  24
ATOM     24  N   UNL     1      -0.741   5.151   6.104  0.00  0.00    -0.343 N 
ATOM     25  H   UNL     1      -0.591   4.199   6.220  0.00  0.00    +0.144 HD
ATOM     26  H   UNL     1      -0.098   5.789   6.451  0.00  0.00    +0.144 HD
ENDBRANCH  13  24
BRANCH  12  27
ATOM     27  C   UNL     1      -1.361   8.059   5.645  0.00  0.00    +0.156 C 
BRANCH  27  28
ATOM     28  C   UNL     1      -1.787   8.498   7.048  0.00  0.00    +0.138 C 
ATOM     29  C   UNL     1      -0.901   9.671   7.537  0.00  0.00    +0.035 C 
ATOM     30  C   UNL     1      -1.846  10.344   8.569  0.00  0.00    +0.031 C 
ATOM     31  C   UNL     1      -3.236  10.120   7.934  0.00  0.00    +0.160 C 
ATOM     32  O   UNL     1      -3.123   9.023   7.021  0.00  0.00    -0.375 OA
ENDBRANCH  27  28
ENDBRANCH  12  27
TORSDOF 5
