REMARK  Name = ZINC20617414
REMARK  11 active torsions:
REMARK  status: ('A' for Active; 'I' for Inactive)
REMARK    1  A    between atoms: C_1  and  C_2
REMARK    2  A    between atoms: C_4  and  C_35
REMARK    3  A    between atoms: C_6  and  N_8
REMARK    4  A    between atoms: C_10  and  C_22
REMARK    5  A    between atoms: C_13  and  C_20
REMARK    6  A    between atoms: C_16  and  C_19
REMARK    7  A    between atoms: C_20  and  O_21
REMARK    8  A    between atoms: N_24  and  C_25
REMARK    9  A    between atoms: C_27  and  C_34
REMARK   10  A    between atoms: C_30  and  O_31
REMARK   11  A    between atoms: O_31  and  C_32
REMARK                            x       y       z     vdW  Elec       q    Type
REMARK                         _______ _______ _______ _____ _____    ______ ____
ROOT
ATOM      1  N   UNL     1       0.088   2.493   4.691  0.00  0.00    -0.325 N 
ATOM      2  C   UNL     1      -0.518   3.013   5.735  0.00  0.00    +0.212 A 
ATOM      3  C   UNL     1       0.237   3.364   6.955  0.00  0.00    +0.098 A 
ATOM      4  C   UNL     1      -0.279   4.369   7.747  0.00  0.00    +0.030 A 
ATOM      5  C   UNL     1      -1.534   4.988   7.315  0.00  0.00    +0.027 A 
ATOM      6  C   UNL     1      -2.008   6.173   7.891  0.00  0.00    +0.007 A 
ATOM      7  C   UNL     1      -3.196   6.700   7.428  0.00  0.00    +0.117 A 
ATOM      8  N   UNL     1      -3.877   6.108   6.464  0.00  0.00    -0.256 NA
ATOM      9  C   UNL     1      -3.474   4.992   5.892  0.00  0.00    +0.081 A 
ATOM     10  C   UNL     1      -2.291   4.386   6.293  0.00  0.00    +0.159 A 
ATOM     11  O   UNL     1      -1.858   3.237   5.723  0.00  0.00    -0.437 OA
ATOM     12  C   UNL     1      -4.301   4.370   4.797  0.00  0.00    +0.069 C 
ATOM     13  H   UNL     1       1.158   2.241   4.746  0.00  0.00    +0.169 HD
ENDROOT
BRANCH   1  19
ATOM     14  C   UNL     1      -1.661   4.157   0.433  0.00  0.00    +0.044 C 
ATOM     15  C   UNL     1      -1.480   3.053   1.442  0.00  0.00    -0.048 A 
ATOM     16  C   UNL     1      -2.027   1.804   1.204  0.00  0.00    +0.006 A 
ATOM     17  C   UNL     1      -1.863   0.782   2.122  0.00  0.00    -0.048 A 
ATOM     18  C   UNL     1      -1.160   1.005   3.288  0.00  0.00    +0.029 A 
ATOM     19  C   UNL     1      -0.610   2.265   3.538  0.00  0.00    +0.042 A 
ATOM     20  C   UNL     1      -0.775   3.290   2.603  0.00  0.00    +0.029 A 
ATOM     21  C   UNL     1      -2.457  -0.576   1.851  0.00  0.00    +0.044 C 
ENDBRANCH   1  19
BRANCH   3  22
ATOM     22  C   UNL     1       1.490   2.672   7.307  0.00  0.00    +0.253 C 
ATOM     23  O   UNL     1       2.092   2.981   8.317  0.00  0.00    -0.270 OA
ATOM     24  N   UNL     1       1.969   1.698   6.508  0.00  0.00    -0.278 N 
ATOM     25  H   UNL     1       1.380   1.355   5.645  0.00  0.00    +0.155 HD
BRANCH  24  26
ATOM     26  C   UNL     1       3.217   1.121   6.778  0.00  0.00    +0.076 A 
ATOM     27  C   UNL     1       4.173   1.833   7.488  0.00  0.00    +0.031 A 
ATOM     28  C   UNL     1       5.403   1.263   7.753  0.00  0.00    -0.030 A 
ATOM     29  C   UNL     1       5.686  -0.018   7.312  0.00  0.00    +0.047 A 
ATOM     30  C   UNL     1       4.737  -0.734   6.604  0.00  0.00    +0.067 A 
ATOM     31  C   UNL     1       3.499  -0.171   6.339  0.00  0.00    +0.143 A 
ATOM     32 CL   UNL     1       7.233  -0.729   7.648  0.00  0.00    -0.083 Cl
ATOM     33  C   UNL     1       6.441   2.038   8.524  0.00  0.00    +0.045 C 
BRANCH  31  34
ATOM     34  O   UNL     1       2.564  -0.875   5.648  0.00  0.00    -0.493 OA
ATOM     35  C   UNL     1       2.923  -2.193   5.229  0.00  0.00    +0.277 C 
ENDBRANCH  31  34
ENDBRANCH  24  26
ENDBRANCH   3  22
BRANCH   6  36
ATOM     36  C   UNL     1      -1.238   6.857   8.991  0.00  0.00    +0.193 C 
BRANCH  36  37
ATOM     37  O   UNL     1      -1.935   8.036   9.399  0.00  0.00    -0.390 OA
ATOM     38  H   UNL     1      -1.523   8.670  10.197  0.00  0.00    +0.210 HD
ENDBRANCH  36  37
ENDBRANCH   6  36
TORSDOF 6
