REMARK  Name = ZINC48846866
REMARK  7 active torsions:
REMARK  status: ('A' for Active; 'I' for Inactive)
REMARK    1  A    between atoms: C_1  and  C_2
REMARK    2  A    between atoms: C_2  and  C_3
REMARK    3  A    between atoms: C_3  and  C_4
REMARK    4  A    between atoms: C_3  and  C_11
REMARK    5  A    between atoms: C_3  and  N_14
REMARK    6  A    between atoms: N_14  and  C_15
REMARK    7  A    between atoms: C_21  and  N_23
REMARK                            x       y       z     vdW  Elec       q    Type
REMARK                         _______ _______ _______ _____ _____    ______ ____
ROOT
ATOM      1  C   UNL     1       0.931  -0.646   1.270  0.00  0.00    +0.147 C 
ENDROOT
BRANCH   1   2
ATOM      2  C   UNL     1       2.222   0.116   1.111  0.00  0.00    -0.016 A 
ATOM      3  C   UNL     1       2.549   1.116   2.007  0.00  0.00    +0.007 A 
ATOM      4  C   UNL     1       3.732   1.815   1.861  0.00  0.00    +0.020 A 
ATOM      5  C   UNL     1       4.590   1.514   0.818  0.00  0.00    +0.041 A 
ATOM      6  C   UNL     1       4.262   0.513  -0.079  0.00  0.00    +0.020 A 
ATOM      7  C   UNL     1       3.081  -0.190   0.071  0.00  0.00    +0.007 A 
ATOM      8 CL   UNL     1       6.076   2.392   0.635  0.00  0.00    -0.084 Cl
ENDBRANCH   1   2
BRANCH   1   9
ATOM      9  C   UNL     1       1.233  -2.110   1.464  0.00  0.00    +0.380 C 
ATOM     10  O   UNL     1       1.835  -2.728   0.603  0.00  0.00    -0.244 OA
ATOM     11  O   UNL     1       0.874  -2.676   2.483  0.00  0.00    -0.244 OA
ENDBRANCH   1   9
BRANCH   1  13
ATOM     12  C   UNL     1      -0.148   1.028  -0.239  0.00  0.00    +0.006 C 
ATOM     13  C   UNL     1       0.074  -0.464   0.016  0.00  0.00    +0.035 C 
ENDBRANCH   1  13
BRANCH   1  14
ATOM     14  N   UNL     1       0.203  -0.136   2.439  0.00  0.00    -0.297 NA
ATOM     15  H   UNL     1       0.759  -0.221   3.277  0.00  0.00    +0.123 HD
BRANCH  14  16
ATOM     16  C   UNL     1      -1.089  -0.818   2.593  0.00  0.00    +0.040 C 
ATOM     17  C   UNL     1      -2.197   0.045   1.987  0.00  0.00    +0.017 C 
ATOM     18  C   UNL     1      -2.244   1.395   2.706  0.00  0.00    +0.001 C 
ATOM     19  C   UNL     1      -2.528   1.170   4.193  0.00  0.00    -0.001 C 
ATOM     20  C   UNL     1      -1.420   0.306   4.799  0.00  0.00    -0.015 C 
ATOM     21  C   UNL     1      -1.373  -1.043   4.080  0.00  0.00    -0.058 C 
BRANCH  21  22
ATOM     22  N   UNL     1      -0.309  -1.872   4.662  0.00  0.00    +0.381 N 
ATOM     23  H   UNL     1       0.578  -1.403   4.556  0.00  0.00    -0.090 HD
ATOM     24  H   UNL     1      -0.497  -2.020   5.642  0.00  0.00    -0.090 HD
ATOM     25  H   UNL     1      -0.279  -2.762   4.187  0.00  0.00    -0.090 HD
ENDBRANCH  21  22
ENDBRANCH  14  16
ENDBRANCH   1  14
TORSDOF 6
