REMARK  Name = ZINC54425966
REMARK  5 active torsions:
REMARK  status: ('A' for Active; 'I' for Inactive)
REMARK    1  A    between atoms: C_1  and  C_2
REMARK    2  A    between atoms: C_2  and  C_3
REMARK    3  A    between atoms: C_2  and  O_4
REMARK    4  A    between atoms: O_4  and  C_5
REMARK    5  A    between atoms: C_8  and  C_11
REMARK                            x       y       z     vdW  Elec       q    Type
REMARK                         _______ _______ _______ _____ _____    ______ ____
ROOT
ATOM      1  C   UNL     1      -3.936  -0.947  -4.965  0.00  0.00    +0.209 C 
ATOM      2  N   UNL     1      -5.311  -0.423  -4.860  0.00  0.00    -0.294 N 
ATOM      3  C   UNL     1      -6.281  -1.252  -4.316  0.00  0.00    +0.159 C 
ATOM      4  N   UNL     1      -6.388  -2.528  -4.870  0.00  0.00    -0.259 N 
ATOM      5  C   UNL     1      -5.188  -3.091  -5.296  0.00  0.00    +0.205 A 
ATOM      6  N   UNL     1      -4.022  -2.359  -5.356  0.00  0.00    -0.288 N 
ATOM      7  C   UNL     1      -3.044  -3.191  -5.821  0.00  0.00    +0.072 A 
ATOM      8  C   UNL     1      -1.693  -3.006  -6.088  0.00  0.00    +0.028 A 
ATOM      9  C   UNL     1      -0.988  -4.100  -6.562  0.00  0.00    +0.002 A 
ATOM     10  C   UNL     1      -1.590  -5.330  -6.766  0.00  0.00    +0.002 A 
ATOM     11  C   UNL     1      -2.933  -5.540  -6.508  0.00  0.00    +0.030 A 
ATOM     12  C   UNL     1      -3.665  -4.449  -6.029  0.00  0.00    +0.091 A 
ATOM     13  N   UNL     1      -4.966  -4.316  -5.687  0.00  0.00    -0.214 NA
ATOM     14  N   UNL     1      -7.051  -0.860  -3.341  0.00  0.00    -0.375 N 
ATOM     15  H   UNL     1      -5.529   0.473  -5.161  0.00  0.00    +0.151 HD
ATOM     16  H   UNL     1      -6.953   0.033  -2.975  0.00  0.00    +0.158 HD
ATOM     17  H   UNL     1      -7.237  -2.990  -4.952  0.00  0.00    +0.158 HD
ATOM     18  H   UNL     1      -7.721  -1.462  -2.980  0.00  0.00    +0.158 HD
ENDROOT
BRANCH   1  22
ATOM     19  C   UNL     1      -1.965  -0.607  -1.189  0.00  0.00    +0.121 A 
ATOM     20  C   UNL     1      -1.270  -0.349  -2.361  0.00  0.00    +0.046 A 
ATOM     21  C   UNL     1      -1.909  -0.460  -3.581  0.00  0.00    +0.011 A 
ATOM     22  C   UNL     1      -3.241  -0.827  -3.634  0.00  0.00    -0.007 A 
ATOM     23  C   UNL     1      -3.937  -1.084  -2.466  0.00  0.00    +0.011 A 
ATOM     24  C   UNL     1      -3.300  -0.981  -1.245  0.00  0.00    +0.046 A 
BRANCH  19  25
ATOM     25  O   UNL     1      -1.339  -0.499   0.012  0.00  0.00    -0.489 OA
BRANCH  25  27
ATOM     26  C   UNL     1       0.290   1.280  -0.134  0.00  0.00    +0.051 C 
ATOM     27  C   UNL     1       0.064  -0.228  -0.010  0.00  0.00    +0.167 C 
ATOM     28  C   UNL     1       0.703  -0.735   1.284  0.00  0.00    +0.051 C 
ENDBRANCH  25  27
ENDBRANCH  19  25
ENDBRANCH   1  22
TORSDOF 3
