REMARK  Name = ZINC37274875
REMARK  18 active torsions:
REMARK  status: ('A' for Active; 'I' for Inactive)
REMARK    1  A    between atoms: C_1  and  C_2
REMARK    2  A    between atoms: C_2  and  C_3
REMARK    3  A    between atoms: C_2  and  C_4
REMARK    4  A    between atoms: C_5  and  C_24
REMARK    5  A    between atoms: C_6  and  O_17
REMARK    6  A    between atoms: N_7  and  C_9
REMARK    7  A    between atoms: C_12  and  O_15
REMARK    8  A    between atoms: O_15  and  C_16
REMARK    9  A    between atoms: O_17  and  C_18
REMARK   10  A    between atoms: C_24  and  N_25
REMARK   11  A    between atoms: N_25  and  C_26
REMARK   12  A    between atoms: N_25  and  C_35
REMARK   13  A    between atoms: C_26  and  C_27
REMARK   14  A    between atoms: C_27  and  C_29
REMARK   15  A    between atoms: C_27  and  O_34
REMARK   16  A    between atoms: C_29  and  O_30
REMARK   17  A    between atoms: O_30  and  C_31
REMARK   18  A    between atoms: C_31  and  C_32
REMARK                            x       y       z     vdW  Elec       q    Type
REMARK                         _______ _______ _______ _____ _____    ______ ____
ROOT
ATOM      1  C   UNL     1      -0.841  -0.413   0.048  0.00  0.00    +0.071 A 
ATOM      2  C   UNL     1      -1.478  -1.439  -0.657  0.00  0.00    +0.021 A 
ATOM      3  C   UNL     1      -2.585  -1.802   0.044  0.00  0.00    +0.225 A 
ATOM      4  N   UNL     1      -2.637  -1.024   1.158  0.00  0.00    -0.200 N 
ATOM      5  N   UNL     1      -1.528  -0.168   1.134  0.00  0.00    -0.168 NA
ENDROOT
BRANCH   4   6
ATOM      6  C   UNL     1      -3.622  -1.073   2.155  0.00  0.00    +0.069 A 
ATOM      7  C   UNL     1      -4.960  -1.195   1.804  0.00  0.00    +0.031 A 
ATOM      8  C   UNL     1      -5.929  -1.244   2.786  0.00  0.00    +0.048 A 
ATOM      9  C   UNL     1      -5.567  -1.170   4.123  0.00  0.00    +0.120 A 
ATOM     10  C   UNL     1      -4.230  -1.048   4.475  0.00  0.00    +0.048 A 
ATOM     11  C   UNL     1      -3.260  -1.006   3.494  0.00  0.00    +0.031 A 
BRANCH   9  12
ATOM     12  O   UNL     1      -6.522  -1.218   5.090  0.00  0.00    -0.495 OA
ATOM     13  C   UNL     1      -6.077  -1.137   6.446  0.00  0.00    +0.277 C 
ENDBRANCH   9  12
ENDBRANCH   4   6
BRANCH   1  15
ATOM     14  C   UNL     1       0.153   1.783  -0.535  0.00  0.00    +0.014 C 
ATOM     15  C   UNL     1       0.427   0.287  -0.369  0.00  0.00    +0.034 C 
ATOM     16  C   UNL     1       1.500   0.081   0.703  0.00  0.00    +0.014 C 
ENDBRANCH   1  15
BRANCH   3  17
ATOM     17  O   UNL     1      -3.475  -2.766  -0.304  0.00  0.00    -0.438 OA
BRANCH  17  18
ATOM     18  C   UNL     1      -4.504  -2.419  -1.121  0.00  0.00    +0.130 A 
ATOM     19  C   UNL     1      -4.569  -1.138  -1.651  0.00  0.00    +0.046 A 
ATOM     20  C   UNL     1      -5.616  -0.787  -2.481  0.00  0.00    +0.004 A 
ATOM     21  C   UNL     1      -6.599  -1.711  -2.784  0.00  0.00    +0.000 A 
ATOM     22  C   UNL     1      -6.537  -2.988  -2.257  0.00  0.00    +0.004 A 
ATOM     23  C   UNL     1      -5.489  -3.346  -1.431  0.00  0.00    +0.046 A 
ENDBRANCH  17  18
ENDBRANCH   3  17
BRANCH   2  24
ATOM     24  C   UNL     1      -1.019  -2.035  -1.963  0.00  0.00    -0.035 C 
BRANCH  24  25
ATOM     25  N   UNL     1      -0.123  -3.168  -1.696  0.00  0.00    +0.386 N 
ATOM     26  H   UNL     1       0.635  -2.865  -1.103  0.00  0.00    -0.081 HD
BRANCH  25  27
ATOM     27  C   UNL     1      -0.873  -4.237  -1.022  0.00  0.00    -0.068 C 
ATOM     28  C   UNL     1      -0.616  -4.448   0.471  0.00  0.00    -0.017 C 
ATOM     29  C   UNL     1      -0.087  -5.460  -0.546  0.00  0.00    -0.017 C 
ENDBRANCH  25  27
BRANCH  25  30
ATOM     30  C   UNL     1       0.418  -3.674  -2.964  0.00  0.00    -0.044 C 
BRANCH  30  31
ATOM     31  C   UNL     1       1.314  -2.608  -3.598  0.00  0.00    +0.124 C 
BRANCH  31  32
ATOM     32  O   UNL     1       2.396  -2.308  -2.713  0.00  0.00    -0.391 OA
ATOM     33  H   UNL     1       2.958  -3.067  -2.507  0.00  0.00    +0.210 HD
ENDBRANCH  31  32
BRANCH  31  34
ATOM     34  C   UNL     1       1.870  -3.131  -4.923  0.00  0.00    +0.190 C 
BRANCH  34  35
ATOM     35  O   UNL     1       2.612  -2.096  -5.571  0.00  0.00    -0.365 OA
BRANCH  35  36
ATOM     36  C   UNL     1       3.177  -2.482  -6.825  0.00  0.00    +0.248 C 
BRANCH  36  37
ATOM     37  C   UNL     1       3.915  -1.347  -7.402  0.00  0.00    -0.077 C 
ATOM     38  C   UNL     1       4.504  -0.441  -7.862  0.00  0.00    +0.006 C 
ENDBRANCH  36  37
ENDBRANCH  35  36
ENDBRANCH  34  35
ENDBRANCH  31  34
ENDBRANCH  30  31
ENDBRANCH  25  30
ENDBRANCH  24  25
ENDBRANCH   2  24
TORSDOF 15
