REMARK  Name = ZINC39399206
REMARK  10 active torsions:
REMARK  status: ('A' for Active; 'I' for Inactive)
REMARK    1  A    between atoms: C_1  and  C_2
REMARK    2  A    between atoms: C_7  and  C_8
REMARK    3  A    between atoms: C_10  and  C_22
REMARK    4  A    between atoms: N_12  and  C_14
REMARK    5  A    between atoms: C_22  and  N_23
REMARK    6  A    between atoms: N_23  and  C_24
REMARK    7  A    between atoms: C_24  and  C_25
REMARK    8  A    between atoms: C_25  and  C_26
REMARK    9  A    between atoms: C_27  and  C_33
REMARK   10  A    between atoms: C_30  and  C_32
REMARK                            x       y       z     vdW  Elec       q    Type
REMARK                         _______ _______ _______ _____ _____    ______ ____
ROOT
ATOM      1  C   UNL     1       0.025   0.045   2.504  0.00  0.00    +0.129 C 
ATOM      2  C   UNL     1      -1.381   0.464   2.877  0.00  0.00    -0.049 C 
ATOM      3  C   UNL     1      -1.663  -0.127   4.021  0.00  0.00    +0.093 C 
ATOM      4  N   UNL     1      -0.611  -0.900   4.471  0.00  0.00    -0.239 N 
ATOM      5  N   UNL     1       0.447  -0.844   3.605  0.00  0.00    -0.225 NA
ATOM      6  H   UNL     1       0.681  -1.763   3.259  0.00  0.00    +0.146 HD
ENDROOT
BRANCH   4   7
ATOM      7  C   UNL     1      -0.624  -1.643   5.658  0.00  0.00    +0.085 A 
ATOM      8  C   UNL     1      -1.161  -2.923   5.672  0.00  0.00    +0.030 A 
ATOM      9  C   UNL     1      -1.172  -3.654   6.844  0.00  0.00    +0.040 A 
ATOM     10  C   UNL     1      -0.648  -3.111   8.005  0.00  0.00    +0.126 A 
ATOM     11  C   UNL     1      -0.112  -1.835   7.996  0.00  0.00    +0.078 A 
ATOM     12  C   UNL     1      -0.093  -1.101   6.824  0.00  0.00    +0.149 A 
ATOM     13  F   UNL     1       0.435   0.143   6.813  0.00  0.00    -0.203 F 
ATOM     14  F   UNL     1      -0.661  -3.829   9.150  0.00  0.00    -0.205 F 
ENDBRANCH   4   7
BRANCH   1  21
ATOM     15  C   UNL     1       0.483   1.466   0.031  0.00  0.00    +0.044 C 
ATOM     16  C   UNL     1       0.242  -0.022   0.012  0.00  0.00    -0.045 A 
ATOM     17  C   UNL     1       0.246  -0.708  -1.189  0.00  0.00    +0.004 A 
ATOM     18  C   UNL     1       0.024  -2.072  -1.206  0.00  0.00    +0.000 A 
ATOM     19  C   UNL     1      -0.200  -2.751  -0.023  0.00  0.00    +0.000 A 
ATOM     20  C   UNL     1      -0.203  -2.065   1.177  0.00  0.00    +0.006 A 
ATOM     21  C   UNL     1       0.023  -0.702   1.195  0.00  0.00    -0.022 A 
ENDBRANCH   1  21
BRANCH   2  22
ATOM     22  C   UNL     1      -2.283   1.380   2.093  0.00  0.00    -0.048 C 
BRANCH  22  23
ATOM     23  N   UNL     1      -1.986   2.776   2.440  0.00  0.00    +0.382 N 
ATOM     24  H   UNL     1      -2.139   2.917   3.427  0.00  0.00    -0.085 HD
ATOM     25  H   UNL     1      -1.023   2.980   2.217  0.00  0.00    -0.085 HD
BRANCH  23  26
ATOM     26  C   UNL     1      -2.865   3.669   1.675  0.00  0.00    -0.078 C 
BRANCH  26  27
ATOM     27  C   UNL     1      -2.555   5.123   2.036  0.00  0.00    +0.016 C 
BRANCH  27  28
ATOM     28  C   UNL     1      -3.458   6.040   1.251  0.00  0.00    -0.023 C 
ATOM     29  C   UNL     1      -4.618   6.577   1.634  0.00  0.00    +0.061 C 
ATOM     30  N   UNL     1      -5.137   7.348   0.653  0.00  0.00    -0.159 NA
ATOM     31  N   UNL     1      -4.454   7.400  -0.373  0.00  0.00    -0.180 NA
ATOM     32  C   UNL     1      -3.256   6.572  -0.157  0.00  0.00    +0.153 C 
ATOM     33  C   UNL     1      -1.986   7.421  -0.237  0.00  0.00    +0.039 C 
ATOM     34  C   UNL     1      -5.262   6.355   2.979  0.00  0.00    +0.067 C 
ENDBRANCH  27  28
ENDBRANCH  26  27
ENDBRANCH  23  26
ENDBRANCH  22  23
ENDBRANCH   2  22
TORSDOF 7
