REMARK  Name = ZINC57211602
REMARK  6 active torsions:
REMARK  status: ('A' for Active; 'I' for Inactive)
REMARK    1  A    between atoms: C_4  and  C_7
REMARK    2  A    between atoms: C_15  and  C_16
REMARK    3  A    between atoms: C_19  and  O_22
REMARK    4  A    between atoms: O_22  and  C_23
REMARK    5  A    between atoms: C_23  and  C_24
REMARK    6  A    between atoms: C_27  and  N_30
REMARK                            x       y       z     vdW  Elec       q    Type
REMARK                         _______ _______ _______ _____ _____    ______ ____
ROOT
ATOM      1  C   UNL     1       3.716  -1.337  -1.292  0.00  0.00    +0.045 C 
ATOM      2  C   UNL     1       4.941  -1.000  -2.133  0.00  0.00    +0.131 C 
ATOM      3  S   UNL     1       5.366  -2.696  -2.723  0.00  0.00    -0.084 S 
ATOM      4  C   UNL     1       4.314  -3.573  -1.587  0.00  0.00    +0.168 C 
ATOM      5  N   UNL     1       4.319  -4.852  -1.298  0.00  0.00    -0.152 NA
ATOM      6  C   UNL     1       3.451  -5.331  -0.383  0.00  0.00    +0.273 C 
ATOM      7  O   UNL     1       3.371  -6.527  -0.155  0.00  0.00    -0.268 OA
ATOM      8  C   UNL     1       2.598  -4.355   0.339  0.00  0.00    +0.082 C 
ATOM      9  C   UNL     1       2.044  -4.641   1.565  0.00  0.00    +0.024 C 
ATOM     10  C   UNL     1       2.374  -3.046  -0.340  0.00  0.00    +0.144 C 
ATOM     11  N   UNL     1       1.254  -2.375  -0.254  0.00  0.00    -0.282 NA
ATOM     12  N   UNL     1       3.486  -2.603  -1.076  0.00  0.00    -0.278 N 
ATOM     13  H   UNL     1       0.492  -2.759   0.208  0.00  0.00    +0.188 HD
ENDROOT
BRANCH   1  17
ATOM     14  C   UNL     1       1.197   1.685   0.278  0.00  0.00    +0.000 A 
ATOM     15  C   UNL     1       1.631   0.656   1.097  0.00  0.00    +0.001 A 
ATOM     16  C   UNL     1       2.451  -0.331   0.595  0.00  0.00    +0.009 A 
ATOM     17  C   UNL     1       2.845  -0.292  -0.750  0.00  0.00    -0.004 A 
ATOM     18  C   UNL     1       2.399   0.752  -1.572  0.00  0.00    +0.009 A 
ATOM     19  C   UNL     1       1.581   1.731  -1.052  0.00  0.00    +0.001 A 
ENDBRANCH   1  17
BRANCH   9  20
ATOM     20  C   UNL     1       2.438  -5.857   2.281  0.00  0.00    -0.024 A 
ATOM     21  C   UNL     1       3.768  -6.298   2.241  0.00  0.00    +0.011 A 
ATOM     22  C   UNL     1       4.131  -7.437   2.913  0.00  0.00    +0.046 A 
ATOM     23  C   UNL     1       3.182  -8.155   3.633  0.00  0.00    +0.121 A 
ATOM     24  C   UNL     1       1.860  -7.723   3.676  0.00  0.00    +0.046 A 
ATOM     25  C   UNL     1       1.487  -6.583   3.013  0.00  0.00    +0.011 A 
BRANCH  23  26
ATOM     26  O   UNL     1       3.546  -9.281   4.296  0.00  0.00    -0.487 OA
BRANCH  26  27
ATOM     27  C   UNL     1       2.523  -9.970   5.016  0.00  0.00    +0.264 C 
BRANCH  27  28
ATOM     28  C   UNL     1       3.110 -11.187   5.683  0.00  0.00    -0.010 A 
ATOM     29  C   UNL     1       3.139 -12.396   5.013  0.00  0.00    +0.009 A 
ATOM     30  C   UNL     1       3.678 -13.513   5.625  0.00  0.00    +0.033 A 
ATOM     31  C   UNL     1       4.188 -13.420   6.906  0.00  0.00    +0.126 A 
ATOM     32  C   UNL     1       4.160 -12.211   7.576  0.00  0.00    +0.033 A 
ATOM     33  C   UNL     1       3.625 -11.094   6.962  0.00  0.00    +0.009 A 
BRANCH  31  34
ATOM     34  N   UNL     1       4.764 -14.616   7.562  0.00  0.00    +0.056 N 
ATOM     35  O   UNL     1       4.788 -15.673   6.977  0.00  0.00    -0.126 OA
ATOM     36  O   UNL     1       5.210 -14.534   8.683  0.00  0.00    -0.126 OA
ENDBRANCH  31  34
ENDBRANCH  27  28
ENDBRANCH  26  27
ENDBRANCH  23  26
ENDBRANCH   9  20
TORSDOF 6
