REMARK  Name = ZINC20156100
REMARK  8 active torsions:
REMARK  status: ('A' for Active; 'I' for Inactive)
REMARK    1  A    between atoms: C_1  and  C_2
REMARK    2  A    between atoms: N_5  and  C_8
REMARK    3  A    between atoms: C_8  and  C_10
REMARK    4  A    between atoms: C_8  and  C_20
REMARK    5  A    between atoms: C_14  and  O_18
REMARK    6  A    between atoms: C_15  and  O_16
REMARK    7  A    between atoms: O_16  and  C_17
REMARK    8  A    between atoms: O_18  and  C_19
REMARK                            x       y       z     vdW  Elec       q    Type
REMARK                         _______ _______ _______ _____ _____    ______ ____
ROOT
ATOM      1  C   UNL     1      -2.562   3.862   0.046  0.00  0.00    +0.008 C 
ENDROOT
BRANCH   1   2
ATOM      2  C   UNL     1      -2.940   4.319   1.432  0.00  0.00    +0.074 A 
ATOM      3  C   UNL     1      -3.076   5.646   1.709  0.00  0.00    +0.280 A 
ATOM      4  N   UNL     1      -3.422   6.039   2.977  0.00  0.00    -0.184 NA
ATOM      5  C   UNL     1      -3.626   5.124   3.942  0.00  0.00    +0.183 A 
ATOM      6  S   UNL     1      -4.056   5.641   5.517  0.00  0.00    -0.011 S 
ATOM      7  N   UNL     1      -3.498   3.809   3.689  0.00  0.00    -0.301 N 
ATOM      8  H   UNL     1      -3.664   3.075   4.491  0.00  0.00    +0.171 HD
ATOM      9  C   UNL     1      -3.164   3.380   2.455  0.00  0.00    +0.258 A 
ATOM     10  O   UNL     1      -3.054   2.188   2.229  0.00  0.00    -0.267 OA
ATOM     11  O   UNL     1      -2.871   6.568   0.744  0.00  0.00    -0.265 OA
ENDBRANCH   1   2
BRANCH   1  16
ATOM     12  C   UNL     1      -6.633   0.739  -2.471  0.00  0.00    +0.007 C 
ATOM     13  C   UNL     1      -5.670   1.872  -2.112  0.00  0.00    -0.018 C 
ATOM     14  C   UNL     1      -4.227   1.378  -2.242  0.00  0.00    -0.015 C 
ATOM     15  C   UNL     1      -3.270   2.497  -1.823  0.00  0.00    -0.077 C 
ATOM     16  N   UNL     1      -3.550   2.888  -0.435  0.00  0.00    +0.387 N 
ATOM     17  C   UNL     1      -4.915   3.410  -0.295  0.00  0.00    -0.077 C 
ATOM     18  C   UNL     1      -5.921   2.318  -0.669  0.00  0.00    -0.015 C 
ATOM     19  H   UNL     1      -3.470   1.986   0.189  0.00  0.00    -0.080 HD
ENDBRANCH   1  16
BRANCH   1  20
ATOM     20  C   UNL     1      -1.199   3.219   0.084  0.00  0.00    -0.011 A 
ATOM     21  C   UNL     1      -1.085   1.849   0.233  0.00  0.00    +0.006 A 
ATOM     22  C   UNL     1       0.163   1.257   0.274  0.00  0.00    +0.004 A 
ATOM     23  C   UNL     1       1.303   2.031   0.155  0.00  0.00    +0.049 A 
ATOM     24  C   UNL     1       1.196   3.403   0.000  0.00  0.00    +0.162 A 
ATOM     25  C   UNL     1      -0.061   4.000  -0.035  0.00  0.00    +0.163 A 
BRANCH  25  26
ATOM     26  O   UNL     1      -0.172   5.347  -0.187  0.00  0.00    -0.491 OA
ATOM     27  C   UNL     1      -0.258   5.844  -1.524  0.00  0.00    +0.277 C 
ENDBRANCH  25  26
BRANCH  24  28
ATOM     28  O   UNL     1       2.316   4.165  -0.117  0.00  0.00    -0.491 OA
ATOM     29  C   UNL     1       3.571   3.485  -0.072  0.00  0.00    +0.277 C 
ENDBRANCH  24  28
ENDBRANCH   1  20
TORSDOF 5
