REMARK  Name = ZINC38546000
REMARK  7 active torsions:
REMARK  status: ('A' for Active; 'I' for Inactive)
REMARK    1  A    between atoms: C_1  and  C_2
REMARK    2  A    between atoms: C_3  and  C_32
REMARK    3  A    between atoms: C_5  and  N_24
REMARK    4  A    between atoms: C_6  and  C_7
REMARK    5  A    between atoms: C_7  and  C_9
REMARK    6  A    between atoms: C_7  and  N_18
REMARK    7  A    between atoms: C_25  and  C_27
REMARK                            x       y       z     vdW  Elec       q    Type
REMARK                         _______ _______ _______ _____ _____    ______ ____
ROOT
ATOM      1  C   UNL     1       0.511   0.208   2.429  0.00  0.00    -0.004 C 
ENDROOT
BRANCH   1   2
ATOM      2  C   UNL     1      -0.717   0.251   3.301  0.00  0.00    -0.053 A 
ATOM      3  C   UNL     1      -0.968  -0.778   4.189  0.00  0.00    +0.006 A 
ATOM      4  C   UNL     1      -2.093  -0.743   4.992  0.00  0.00    +0.050 A 
ATOM      5  C   UNL     1      -2.971   0.325   4.908  0.00  0.00    +0.166 A 
ATOM      6  C   UNL     1      -2.718   1.362   4.014  0.00  0.00    +0.166 A 
ATOM      7  C   UNL     1      -1.586   1.323   3.216  0.00  0.00    +0.052 A 
ATOM      8  O   UNL     1      -3.719   2.284   4.120  0.00  0.00    -0.453 OA
ATOM      9  C   UNL     1      -4.797   1.606   4.791  0.00  0.00    +0.466 C 
ATOM     10  O   UNL     1      -4.131   0.598   5.574  0.00  0.00    -0.453 OA
ENDBRANCH   1   2
BRANCH   1  16
ATOM     11  C   UNL     1       0.405   1.901   0.059  0.00  0.00    +0.045 C 
ATOM     12  C   UNL     1       0.102   0.428  -0.039  0.00  0.00    -0.037 A 
ATOM     13  C   UNL     1      -0.217  -0.129  -1.232  0.00  0.00    -0.008 A 
ATOM     14  S   UNL     1      -0.469  -1.840  -0.788  0.00  0.00    -0.078 S 
ATOM     15  C   UNL     1      -0.131  -1.701   0.959  0.00  0.00    +0.074 A 
ATOM     16  C   UNL     1       0.153  -0.375   1.086  0.00  0.00    -0.025 A 
ATOM     17  C   UNL     1      -0.332   0.526  -2.584  0.00  0.00    +0.052 C 
BRANCH  15  18
ATOM     18  N   UNL     1      -0.149  -2.695   1.940  0.00  0.00    -0.275 N 
ATOM     19  C   UNL     1      -0.325  -3.984   1.590  0.00  0.00    +0.255 C 
ATOM     20  O   UNL     1      -0.469  -4.283   0.419  0.00  0.00    -0.269 OA
ATOM     21  H   UNL     1      -0.035  -2.457   2.873  0.00  0.00    +0.156 HD
BRANCH  19  22
ATOM     22  C   UNL     1      -0.344  -5.027   2.620  0.00  0.00    +0.074 A 
ATOM     23  C   UNL     1      -0.504  -6.397   2.474  0.00  0.00    +0.021 A 
ATOM     24  C   UNL     1      -0.477  -7.128   3.637  0.00  0.00    +0.008 A 
ATOM     25  C   UNL     1      -0.302  -6.484   4.817  0.00  0.00    +0.046 A 
ATOM     26  S   UNL     1      -0.159  -4.866   4.386  0.00  0.00    -0.092 S 
ENDBRANCH  19  22
ENDBRANCH  15  18
ENDBRANCH   1  16
BRANCH   1  27
ATOM     27  N   UNL     1       1.537  -0.627   3.067  0.00  0.00    +0.387 N 
ATOM     28  C   UNL     1       1.968   0.003   4.321  0.00  0.00    -0.078 C 
ATOM     29  C   UNL     1       2.977  -0.903   5.031  0.00  0.00    -0.019 C 
ATOM     30  C   UNL     1       4.190  -1.117   4.121  0.00  0.00    -0.004 C 
ATOM     31  C   UNL     1       3.720  -1.706   2.788  0.00  0.00    -0.019 C 
ATOM     32  C   UNL     1       2.683  -0.770   2.162  0.00  0.00    -0.078 C 
ATOM     33  H   UNL     1       1.151  -1.538   3.266  0.00  0.00    -0.080 HD
ENDBRANCH   1  27
TORSDOF 5
