REMARK  Name = ZINC02135333
REMARK  8 active torsions:
REMARK  status: ('A' for Active; 'I' for Inactive)
REMARK    1  A    between atoms: C_1  and  C_2
REMARK    2  A    between atoms: C_16  and  C_18
REMARK    3  A    between atoms: C_18  and  C_19
REMARK    4  A    between atoms: C_19  and  C_20
REMARK    5  A    between atoms: N_25  and  C_28
REMARK    6  A    between atoms: C_28  and  C_29
REMARK    7  A    between atoms: C_34  and  O_35
REMARK    8  A    between atoms: O_35  and  C_36
REMARK                            x       y       z     vdW  Elec       q    Type
REMARK                         _______ _______ _______ _____ _____    ______ ____
ROOT
ATOM      1  C   UNL     1      -6.108   3.071   2.832  0.00  0.00    +0.045 C 
ATOM      2  C   UNL     1      -5.221   2.244   1.936  0.00  0.00    -0.029 A 
ATOM      3  C   UNL     1      -5.708   1.085   1.367  0.00  0.00    +0.005 A 
ATOM      4  C   UNL     1      -4.903   0.319   0.545  0.00  0.00    +0.001 A 
ATOM      5  C   UNL     1      -3.601   0.716   0.292  0.00  0.00    +0.004 A 
ATOM      6  C   UNL     1      -3.112   1.871   0.858  0.00  0.00    -0.027 A 
ATOM      7  C   UNL     1      -3.914   2.651   1.686  0.00  0.00    +0.039 A 
ATOM      8  N   UNL     1      -3.203   3.766   2.136  0.00  0.00    -0.286 N 
ATOM      9  C   UNL     1      -1.944   3.793   1.657  0.00  0.00    +0.211 C 
ATOM     10  O   UNL     1      -1.103   4.639   1.878  0.00  0.00    -0.277 OA
ATOM     11  C   UNL     1      -1.784   2.572   0.794  0.00  0.00    +0.050 C 
ATOM     12  C   UNL     1      -0.649   1.673   1.299  0.00  0.00    +0.088 C 
ATOM     13  C   UNL     1      -0.013   1.086   0.008  0.00  0.00    +0.073 C 
ATOM     14  C   UNL     1      -0.832   1.675  -1.160  0.00  0.00    -0.057 C 
ATOM     15  C   UNL     1       1.374   1.687  -0.002  0.00  0.00    +0.224 C 
ATOM     16  O   UNL     1       2.215   1.494  -0.853  0.00  0.00    -0.275 OA
ATOM     17  N   UNL     1       1.529   2.465   1.075  0.00  0.00    -0.237 N 
ATOM     18  C   UNL     1       0.458   2.527   1.874  0.00  0.00    +0.225 C 
ATOM     19  O   UNL     1       0.386   3.169   2.901  0.00  0.00    -0.275 OA
ATOM     20  H   UNL     1      -3.572   4.442   2.726  0.00  0.00    +0.155 HD
ATOM     21  N   UNL     1      -1.424   2.900  -0.575  0.00  0.00    +0.394 N 
ATOM     22  H   UNL     1      -0.740   3.665  -0.588  0.00  0.00    -0.083 HD
ATOM     23  H   UNL     1      -2.259   3.178  -1.104  0.00  0.00    -0.083 HD
ENDROOT
BRANCH  14  24
ATOM     24  C   UNL     1       0.084   2.005  -2.340  0.00  0.00    -0.006 C 
BRANCH  24  25
ATOM     25  C   UNL     1      -0.761   2.469  -3.527  0.00  0.00    +0.094 C 
BRANCH  25  26
ATOM     26  C   UNL     1       0.141   2.795  -4.689  0.00  0.00    +0.210 C 
ATOM     27  O   UNL     1       1.342   2.669  -4.578  0.00  0.00    -0.276 OA
ATOM     28  N   UNL     1      -0.387   3.227  -5.852  0.00  0.00    -0.329 N 
ATOM     29  H   UNL     1      -1.347   3.328  -5.941  0.00  0.00    +0.145 HD
ATOM     30  H   UNL     1       0.194   3.437  -6.600  0.00  0.00    +0.145 HD
ENDBRANCH  25  26
ENDBRANCH  24  25
ENDBRANCH  14  24
BRANCH  17  31
ATOM     31  C   UNL     1       2.771   3.189   1.357  0.00  0.00    +0.155 C 
BRANCH  31  32
ATOM     32  C   UNL     1       2.713   4.553   0.719  0.00  0.00    +0.012 A 
ATOM     33  C   UNL     1       3.356   4.782  -0.483  0.00  0.00    +0.009 A 
ATOM     34  C   UNL     1       3.303   6.032  -1.069  0.00  0.00    +0.001 A 
ATOM     35  C   UNL     1       2.607   7.058  -0.456  0.00  0.00    +0.004 A 
ATOM     36  C   UNL     1       1.963   6.834   0.745  0.00  0.00    +0.046 A 
ATOM     37  C   UNL     1       2.010   5.578   1.334  0.00  0.00    +0.125 A 
BRANCH  37  38
ATOM     38  O   UNL     1       1.373   5.355   2.513  0.00  0.00    -0.495 OA
ATOM     39  C   UNL     1       0.669   6.457   3.089  0.00  0.00    +0.277 C 
ENDBRANCH  37  38
ENDBRANCH  31  32
ENDBRANCH  17  31
TORSDOF 6
