REMARK  Name = ZINC22464260
REMARK  10 active torsions:
REMARK  status: ('A' for Active; 'I' for Inactive)
REMARK    1  A    between atoms: C_1  and  C_2
REMARK    2  A    between atoms: C_2  and  C_3
REMARK    3  A    between atoms: C_3  and  C_4
REMARK    4  A    between atoms: C_4  and  C_5
REMARK    5  A    between atoms: C_5  and  C_7
REMARK    6  A    between atoms: C_5  and  N_24
REMARK    7  A    between atoms: N_9  and  C_10
REMARK    8  A    between atoms: C_10  and  C_11
REMARK    9  A    between atoms: C_11  and  C_13
REMARK   10  A    between atoms: C_11  and  N_19
REMARK                            x       y       z     vdW  Elec       q    Type
REMARK                         _______ _______ _______ _____ _____    ______ ____
ROOT
ATOM      1  C   UNL     1       4.760   5.310   0.197  0.00  0.00    +0.158 C 
ENDROOT
BRANCH   1   2
ATOM      2  N   UNL     1       3.671   4.450   0.667  0.00  0.00    -0.316 N 
ATOM      3  C   UNL     1       2.370   4.902   0.625  0.00  0.00    +0.150 C 
ATOM      4  N   UNL     1       2.102   6.085   0.173  0.00  0.00    -0.113 NA
ATOM      5  S   UNL     1       0.441   6.253   0.288  0.00  0.00    +0.101 S 
ATOM      6  O   UNL     1      -0.082   6.301  -1.032  0.00  0.00    -0.146 OA
ATOM      7  O   UNL     1       0.171   7.240   1.274  0.00  0.00    -0.146 OA
ATOM      8  C   UNL     1       0.023   4.674   0.977  0.00  0.00    +0.123 A 
ATOM      9  C   UNL     1       1.270   4.045   1.095  0.00  0.00    +0.043 A 
ATOM     10  C   UNL     1       1.290   2.745   1.623  0.00  0.00    +0.013 A 
ATOM     11  C   UNL     1       0.117   2.131   2.002  0.00  0.00    +0.001 A 
ATOM     12  C   UNL     1      -1.100   2.776   1.867  0.00  0.00    +0.002 A 
ATOM     13  C   UNL     1      -1.138   4.064   1.353  0.00  0.00    +0.030 A 
ATOM     14  H   UNL     1       3.892   3.444   1.052  0.00  0.00    +0.148 HD
ENDBRANCH   1   2
BRANCH   1  15
ATOM     15  C   UNL     1       5.924   4.455  -0.235  0.00  0.00    +0.233 C 
ATOM     16  O   UNL     1       5.851   3.247  -0.158  0.00  0.00    -0.274 OA
ATOM     17  N   UNL     1       7.046   5.034  -0.707  0.00  0.00    -0.315 N 
ATOM     18  H   UNL     1       7.113   6.129  -0.777  0.00  0.00    +0.149 HD
BRANCH  17  19
ATOM     19  C   UNL     1       8.178   4.203  -1.126  0.00  0.00    +0.093 C 
BRANCH  19  20
ATOM     20  C   UNL     1       9.372   5.099  -1.460  0.00  0.00    -0.020 C 
BRANCH  20  21
ATOM     21  C   UNL     1      10.509   4.252  -1.969  0.00  0.00    -0.059 A 
ATOM     22  C   UNL     1      11.238   3.471  -1.091  0.00  0.00    +0.002 A 
ATOM     23  C   UNL     1      12.278   2.691  -1.559  0.00  0.00    +0.000 A 
ATOM     24  C   UNL     1      12.596   2.697  -2.904  0.00  0.00    +0.000 A 
ATOM     25  C   UNL     1      11.871   3.481  -3.782  0.00  0.00    +0.000 A 
ATOM     26  C   UNL     1      10.828   4.258  -3.314  0.00  0.00    +0.002 A 
ENDBRANCH  20  21
BRANCH  20  27
ATOM     27  N   UNL     1       9.799   5.816  -0.251  0.00  0.00    +0.385 N 
ATOM     28  C   UNL     1      11.118   6.467  -0.456  0.00  0.00    -0.078 C 
ATOM     29  C   UNL     1      11.152   7.556   0.646  0.00  0.00    -0.020 C 
ATOM     30  C   UNL     1       9.689   8.054   0.684  0.00  0.00    -0.020 C 
ATOM     31  C   UNL     1       8.857   6.907   0.079  0.00  0.00    -0.078 C 
ATOM     32  H   UNL     1       9.836   5.060   0.548  0.00  0.00    -0.081 HD
ENDBRANCH  20  27
ENDBRANCH  19  20
ENDBRANCH  17  19
ENDBRANCH   1  15
BRANCH   1  33
ATOM     33  C   UNL     1       5.202   6.238   1.330  0.00  0.00    +0.032 C 
BRANCH  33  34
ATOM     34  C   UNL     1       4.058   7.191   1.683  0.00  0.00    +0.002 C 
BRANCH  34  36
ATOM     35  C   UNL     1       3.356   9.072   3.170  0.00  0.00    +0.004 C 
ATOM     36  C   UNL     1       4.499   8.120   2.816  0.00  0.00    -0.003 C 
ENDBRANCH  34  36
ENDBRANCH  33  34
ENDBRANCH   1  33
TORSDOF 9
