REMARK  Name = ZINC21325125
REMARK  8 active torsions:
REMARK  status: ('A' for Active; 'I' for Inactive)
REMARK    1  A    between atoms: C_1  and  C_2
REMARK    2  A    between atoms: C_2  and  C_26
REMARK    3  A    between atoms: N_3  and  N_4
REMARK    4  A    between atoms: C_8  and  S_11
REMARK    5  A    between atoms: N_9  and  N_10
REMARK    6  A    between atoms: S_11  and  C_12
REMARK    7  A    between atoms: C_12  and  C_13
REMARK    8  A    between atoms: N_15  and  C_16
REMARK                            x       y       z     vdW  Elec       q    Type
REMARK                         _______ _______ _______ _____ _____    ______ ____
ROOT
ATOM      1  N   UNL     1     -11.281   4.117  -0.635  0.00  0.00    -0.204 N 
ATOM      2  C   UNL     1      -9.900   4.168  -0.526  0.00  0.00    +0.254 A 
ATOM      3  N   UNL     1      -9.171   5.256  -0.462  0.00  0.00    -0.109 NA
ATOM      4  N   UNL     1      -7.828   4.872  -0.354  0.00  0.00    -0.119 NA
ATOM      5  C   UNL     1      -7.779   3.561  -0.366  0.00  0.00    +0.210 A 
ATOM      6  N   UNL     1      -9.058   3.092  -0.469  0.00  0.00    -0.211 N 
ATOM      7  H   UNL     1     -11.794   3.145  -0.683  0.00  0.00    +0.178 HD
ENDROOT
BRANCH   1  10
ATOM      8  C   UNL     1     -14.023   3.925  -0.851  0.00  0.00    +0.068 C 
ATOM      9  C   UNL     1     -13.320   5.257  -0.786  0.00  0.00    +0.070 C 
ATOM     10  N   UNL     1     -12.024   5.304  -0.684  0.00  0.00    -0.184 NA
BRANCH   9  11
ATOM     11  C   UNL     1     -14.098   6.500  -0.837  0.00  0.00    +0.035 A 
ATOM     12  C   UNL     1     -13.653   7.809  -0.792  0.00  0.00    +0.017 A 
ATOM     13  C   UNL     1     -14.587   8.819  -0.858  0.00  0.00    +0.008 A 
ATOM     14  C   UNL     1     -15.903   8.502  -0.963  0.00  0.00    +0.046 A 
ATOM     15  S   UNL     1     -15.864   6.717  -0.982  0.00  0.00    -0.095 S 
ENDBRANCH   9  11
ENDBRANCH   1  10
BRANCH   6  16
ATOM     16  N   UNL     1      -9.431   1.778  -0.506  0.00  0.00    -0.294 N 
ATOM     17  H   UNL     1      -8.667   0.988  -0.453  0.00  0.00    +0.163 HD
ATOM     18  H   UNL     1     -10.494   1.510  -0.591  0.00  0.00    +0.163 HD
ENDBRANCH   6  16
BRANCH   5  19
ATOM     19  S   UNL     1      -6.321   2.578  -0.260  0.00  0.00    -0.075 S 
BRANCH  19  20
ATOM     20  C   UNL     1      -4.979   3.794  -0.146  0.00  0.00    +0.173 C 
BRANCH  20  21
ATOM     21  C   UNL     1      -3.658   3.076  -0.049  0.00  0.00    +0.228 C 
ATOM     22  O   UNL     1      -3.624   1.863  -0.055  0.00  0.00    -0.275 OA
ATOM     23  N   UNL     1      -2.513   3.781   0.045  0.00  0.00    -0.284 N 
ATOM     24  H   UNL     1      -2.548   4.876   0.142  0.00  0.00    +0.155 HD
BRANCH  23  25
ATOM     25  C   UNL     1      -1.283   3.122   0.020  0.00  0.00    +0.041 A 
ATOM     26  C   UNL     1      -1.166   1.891  -0.590  0.00  0.00    +0.024 A 
ATOM     27  C   UNL     1       0.055   1.224  -0.617  0.00  0.00    +0.002 A 
ATOM     28  C   UNL     1       1.167   1.769  -0.052  0.00  0.00    +0.008 A 
ATOM     29  C   UNL     1       1.092   3.025   0.574  0.00  0.00    -0.016 A 
ATOM     30  C   UNL     1      -0.146   3.712   0.612  0.00  0.00    +0.003 A 
ATOM     31  C   UNL     1      -0.220   4.967   1.238  0.00  0.00    +0.010 A 
ATOM     32  C   UNL     1       0.897   5.506   1.799  0.00  0.00    +0.001 A 
ATOM     33  C   UNL     1       2.116   4.831   1.763  0.00  0.00    +0.001 A 
ATOM     34  C   UNL     1       2.224   3.613   1.165  0.00  0.00    +0.008 A 
ENDBRANCH  23  25
ENDBRANCH  20  21
ENDBRANCH  19  20
ENDBRANCH   5  19
TORSDOF 7
