REMARK  Name = ZINC21240801
REMARK  12 active torsions:
REMARK  status: ('A' for Active; 'I' for Inactive)
REMARK    1  A    between atoms: C_1  and  C_2
REMARK    2  A    between atoms: C_2  and  O_3
REMARK    3  A    between atoms: O_3  and  C_4
REMARK    4  A    between atoms: C_7  and  C_12
REMARK    5  A    between atoms: C_9  and  O_10
REMARK    6  A    between atoms: O_10  and  C_11
REMARK    7  A    between atoms: C_17  and  C_27
REMARK    8  A    between atoms: C_29  and  O_36
REMARK    9  A    between atoms: C_30  and  O_35
REMARK   10  A    between atoms: C_31  and  O_33
REMARK   11  A    between atoms: O_33  and  C_34
REMARK   12  A    between atoms: O_36  and  C_37
REMARK                            x       y       z     vdW  Elec       q    Type
REMARK                         _______ _______ _______ _____ _____    ______ ____
ROOT
ATOM      1  C   UNL     1      -2.382   0.899  -0.163  0.00  0.00    +0.032 C 
ATOM      2  C   UNL     1      -2.562   0.016  -1.396  0.00  0.00    +0.059 C 
ATOM      3  C   UNL     1      -3.882  -0.735  -1.306  0.00  0.00    +0.017 C 
ATOM      4  C   UNL     1      -4.363  -1.117  -0.113  0.00  0.00    +0.036 C 
ATOM      5  C   UNL     1      -5.641  -1.890   0.121  0.00  0.00    +0.136 C 
ATOM      6  N   UNL     1      -6.497  -1.991  -1.042  0.00  0.00    -0.331 N 
ATOM      7  C   UNL     1      -6.083  -2.677  -2.181  0.00  0.00    +0.049 A 
ATOM      8  C   UNL     1      -6.715  -3.841  -2.590  0.00  0.00    +0.025 A 
ATOM      9  C   UNL     1      -6.244  -4.519  -3.700  0.00  0.00    +0.002 A 
ATOM     10  C   UNL     1      -5.148  -4.043  -4.398  0.00  0.00    +0.002 A 
ATOM     11  C   UNL     1      -4.525  -2.871  -4.004  0.00  0.00    +0.025 A 
ATOM     12  C   UNL     1      -5.011  -2.182  -2.907  0.00  0.00    +0.052 A 
ATOM     13  N   UNL     1      -4.484  -0.959  -2.503  0.00  0.00    -0.316 N 
ATOM     14  C   UNL     1      -3.663  -0.801   1.075  0.00  0.00    +0.163 C 
ATOM     15  O   UNL     1      -4.112  -1.181   2.138  0.00  0.00    -0.292 OA
ATOM     16  C   UNL     1      -2.387  -0.013   1.069  0.00  0.00    +0.088 C 
ATOM     17  H   UNL     1      -7.491  -1.521  -1.035  0.00  0.00    +0.147 HD
ATOM     18  H   UNL     1      -4.581  -0.142  -3.232  0.00  0.00    +0.152 HD
ENDROOT
BRANCH   1  22
ATOM     19  C   UNL     1       1.346   2.980  -0.411  0.00  0.00    +0.162 A 
ATOM     20  C   UNL     1       1.322   1.595  -0.405  0.00  0.00    +0.050 A 
ATOM     21  C   UNL     1       0.115   0.925  -0.321  0.00  0.00    +0.008 A 
ATOM     22  C   UNL     1      -1.069   1.635  -0.248  0.00  0.00    -0.040 A 
ATOM     23  C   UNL     1      -1.052   3.017  -0.248  0.00  0.00    +0.053 A 
ATOM     24  C   UNL     1       0.154   3.694  -0.332  0.00  0.00    +0.162 A 
BRANCH  24  25
ATOM     25  O   UNL     1       0.173   5.054  -0.337  0.00  0.00    -0.491 OA
ATOM     26  C   UNL     1      -1.088   5.721  -0.254  0.00  0.00    +0.277 C 
ENDBRANCH  24  25
BRANCH  19  27
ATOM     27  O   UNL     1       2.532   3.640  -0.494  0.00  0.00    -0.489 OA
BRANCH  27  29
ATOM     28  C   UNL     1       4.940   3.754  -0.659  0.00  0.00    +0.048 C 
ATOM     29  C   UNL     1       3.715   2.842  -0.572  0.00  0.00    +0.226 C 
ENDBRANCH  27  29
ENDBRANCH  19  27
ENDBRANCH   1  22
BRANCH   5  30
ATOM     30  C   UNL     1      -5.282  -3.282   0.573  0.00  0.00    -0.016 A 
ATOM     31  C   UNL     1      -4.558  -4.113  -0.262  0.00  0.00    +0.055 A 
ATOM     32  C   UNL     1      -4.221  -5.393   0.153  0.00  0.00    +0.165 A 
ATOM     33  C   UNL     1      -4.621  -5.843   1.406  0.00  0.00    +0.201 A 
ATOM     34  C   UNL     1      -5.353  -5.006   2.240  0.00  0.00    +0.165 A 
ATOM     35  C   UNL     1      -5.681  -3.726   1.820  0.00  0.00    +0.055 A 
BRANCH  34  36
ATOM     36  O   UNL     1      -5.745  -5.442   3.467  0.00  0.00    -0.491 OA
ATOM     37  C   UNL     1      -6.494  -4.529   4.271  0.00  0.00    +0.277 C 
ENDBRANCH  34  36
BRANCH  33  38
ATOM     38  O   UNL     1      -4.296  -7.100   1.814  0.00  0.00    -0.501 OA
ATOM     39  H   UNL     1      -4.614  -7.455   2.806  0.00  0.00    +0.292 HD
ENDBRANCH  33  38
BRANCH  32  40
ATOM     40  O   UNL     1      -3.505  -6.208  -0.667  0.00  0.00    -0.491 OA
ATOM     41  C   UNL     1      -3.035  -5.644  -1.893  0.00  0.00    +0.277 C 
ENDBRANCH  32  40
ENDBRANCH   5  30
TORSDOF 8
