REMARK  Name = ZINC67225349
REMARK  8 active torsions:
REMARK  status: ('A' for Active; 'I' for Inactive)
REMARK    1  A    between atoms: C_1  and  C_2
REMARK    2  A    between atoms: C_7  and  C_8
REMARK    3  A    between atoms: C_8  and  N_9
REMARK    4  A    between atoms: C_21  and  C_29
REMARK    5  A    between atoms: C_23  and  C_27
REMARK    6  A    between atoms: C_24  and  N_26
REMARK    7  A    between atoms: C_32  and  O_36
REMARK    8  A    between atoms: C_33  and  O_35
REMARK                            x       y       z     vdW  Elec       q    Type
REMARK                         _______ _______ _______ _____ _____    ______ ____
ROOT
ATOM      1  N   UNL     1      -1.388   0.091   3.019  0.00  0.00    -0.198 N 
ATOM      2  C   UNL     1      -2.118   1.186   2.540  0.00  0.00    +0.062 A 
ATOM      3  C   UNL     1      -1.435   2.353   2.219  0.00  0.00    +0.025 A 
ATOM      4  C   UNL     1      -2.125   3.454   1.752  0.00  0.00    +0.002 A 
ATOM      5  C   UNL     1      -3.501   3.397   1.602  0.00  0.00    +0.001 A 
ATOM      6  C   UNL     1      -4.189   2.246   1.914  0.00  0.00    +0.013 A 
ATOM      7  C   UNL     1      -3.503   1.119   2.385  0.00  0.00    +0.042 A 
ATOM      8  C   UNL     1      -4.295  -0.097   2.688  0.00  0.00    +0.162 C 
ATOM      9  C   UNL     1      -3.806  -1.082   3.435  0.00  0.00    +0.141 C 
ATOM     10  S   UNL     1      -2.168  -0.932   4.076  0.00  0.00    +0.076 S 
ATOM     11  O   UNL     1      -1.555  -2.208   3.948  0.00  0.00    -0.150 OA
ATOM     12  O   UNL     1      -2.272  -0.248   5.317  0.00  0.00    -0.150 OA
ATOM     13  C   UNL     1      -4.608  -2.315   3.744  0.00  0.00    +0.118 C 
ATOM     14  C   UNL     1      -5.755  -2.443   2.779  0.00  0.00    +0.099 C 
ATOM     15  C   UNL     1      -6.158  -1.371   2.051  0.00  0.00    +0.199 C 
ATOM     16  O   UNL     1      -5.552  -0.179   2.174  0.00  0.00    -0.439 OA
ENDROOT
BRANCH  13  17
ATOM     17  C   UNL     1      -5.148  -2.222   5.148  0.00  0.00    -0.030 A 
ATOM     18  C   UNL     1      -5.991  -1.183   5.495  0.00  0.00    +0.008 A 
ATOM     19  C   UNL     1      -6.489  -1.093   6.782  0.00  0.00    +0.049 A 
ATOM     20  C   UNL     1      -6.143  -2.046   7.726  0.00  0.00    +0.158 A 
ATOM     21  C   UNL     1      -5.295  -3.092   7.376  0.00  0.00    +0.159 A 
ATOM     22  C   UNL     1      -4.804  -3.179   6.084  0.00  0.00    +0.053 A 
BRANCH  21  23
ATOM     23  O   UNL     1      -4.953  -4.030   8.300  0.00  0.00    -0.503 OA
ATOM     24  H   UNL     1      -5.553  -4.789   8.331  0.00  0.00    +0.292 HD
ENDBRANCH  21  23
BRANCH  20  25
ATOM     25  O   UNL     1      -6.632  -1.959   8.992  0.00  0.00    -0.503 OA
ATOM     26  H   UNL     1      -7.471  -2.421   9.123  0.00  0.00    +0.292 HD
ENDBRANCH  20  25
ENDBRANCH  13  17
BRANCH  15  27
ATOM     27  N   UNL     1      -7.204  -1.507   1.174  0.00  0.00    -0.328 N 
ATOM     28  H   UNL     1      -7.649  -2.364   1.078  0.00  0.00    +0.145 HD
ATOM     29  H   UNL     1      -7.500  -0.746   0.649  0.00  0.00    +0.145 HD
ENDBRANCH  15  27
BRANCH  14  30
ATOM     30  C   UNL     1      -6.424  -3.700   2.628  0.00  0.00    +0.101 C 
ATOM     31  N   UNL     1      -6.955  -4.697   2.508  0.00  0.00    -0.191 NA
ENDBRANCH  14  30
BRANCH   1  32
ATOM     32  C   UNL     1      -0.004  -0.147   2.604  0.00  0.00    +0.167 C 
BRANCH  32  39
ATOM     33  C   UNL     1       2.509  -0.906   1.396  0.00  0.00    +0.044 C 
ATOM     34  C   UNL     1       1.209  -1.269   0.724  0.00  0.00    -0.046 A 
ATOM     35  C   UNL     1       1.219  -1.970  -0.467  0.00  0.00    +0.003 A 
ATOM     36  C   UNL     1       0.028  -2.302  -1.084  0.00  0.00    +0.000 A 
ATOM     37  C   UNL     1      -1.174  -1.934  -0.508  0.00  0.00    +0.000 A 
ATOM     38  C   UNL     1      -1.184  -1.234   0.683  0.00  0.00    +0.005 A 
ATOM     39  C   UNL     1       0.007  -0.905   1.302  0.00  0.00    -0.025 A 
ENDBRANCH  32  39
ENDBRANCH   1  32
TORSDOF 7
