REMARK  Name = ZINC66198657
REMARK  9 active torsions:
REMARK  status: ('A' for Active; 'I' for Inactive)
REMARK    1  A    between atoms: C_1  and  C_2
REMARK    2  A    between atoms: C_2  and  C_4
REMARK    3  A    between atoms: C_2  and  C_14
REMARK    4  A    between atoms: C_7  and  C_10
REMARK    5  A    between atoms: C_10  and  C_11
REMARK    6  A    between atoms: C_11  and  C_12
REMARK    7  A    between atoms: C_11  and  C_13
REMARK    8  A    between atoms: N_16  and  C_17
REMARK    9  A    between atoms: C_18  and  C_26
REMARK                            x       y       z     vdW  Elec       q    Type
REMARK                         _______ _______ _______ _____ _____    ______ ____
ROOT
ATOM      1  C   UNL     1      -1.412  -0.526   0.013  0.00  0.00    +0.225 C 
ATOM      2  O   UNL     1      -1.808  -1.223  -0.897  0.00  0.00    -0.275 OA
ATOM      3  N   UNL     1      -2.236  -0.217   1.033  0.00  0.00    -0.279 N 
ATOM      4  H   UNL     1      -1.920   0.341   1.761  0.00  0.00    +0.155 HD
ENDROOT
BRANCH   3   5
ATOM      5  C   UNL     1      -3.537  -0.697   1.043  0.00  0.00    +0.084 A 
ATOM      6  C   UNL     1      -4.518  -0.479   1.997  0.00  0.00    +0.068 A 
ATOM      7  C   UNL     1      -5.812  -1.100   1.773  0.00  0.00    -0.023 A 
ATOM      8  C   UNL     1      -5.888  -1.825   0.636  0.00  0.00    -0.004 A 
ATOM      9  S   UNL     1      -4.288  -1.669  -0.102  0.00  0.00    -0.077 S 
ATOM     10  C   UNL     1      -7.076  -2.582   0.128  0.00  0.00    +0.043 C 
ATOM     11  C   UNL     1      -8.084  -2.724   1.278  0.00  0.00    +0.005 C 
ATOM     12  C   UNL     1      -8.273  -1.358   1.944  0.00  0.00    +0.005 C 
ATOM     13  C   UNL     1      -7.005  -0.972   2.709  0.00  0.00    +0.037 C 
BRANCH   6  14
ATOM     14  C   UNL     1      -4.261   0.342   3.184  0.00  0.00    +0.244 C 
ATOM     15  O   UNL     1      -4.474   1.540   3.153  0.00  0.00    -0.270 OA
ATOM     16  N   UNL     1      -3.788  -0.229   4.310  0.00  0.00    -0.325 N 
ATOM     17  H   UNL     1      -3.618  -1.183   4.335  0.00  0.00    +0.145 HD
ATOM     18  H   UNL     1      -3.618   0.315   5.095  0.00  0.00    +0.145 HD
ENDBRANCH   6  14
ENDBRANCH   3   5
BRANCH   1  20
ATOM     19  C   UNL     1      -0.019   1.526   0.010  0.00  0.00    +0.022 C 
ATOM     20  C   UNL     1       0.002  -0.004   0.002  0.00  0.00    +0.102 C 
BRANCH  20  21
ATOM     21  C   UNL     1       0.707  -0.490  -1.238  0.00  0.00    -0.036 A 
ATOM     22  C   UNL     1       0.222  -0.151  -2.487  0.00  0.00    +0.004 A 
ATOM     23  C   UNL     1       0.869  -0.597  -3.624  0.00  0.00    +0.004 A 
ATOM     24  C   UNL     1       2.002  -1.381  -3.513  0.00  0.00    -0.047 A 
ATOM     25  C   UNL     1       2.488  -1.720  -2.263  0.00  0.00    +0.004 A 
ATOM     26  C   UNL     1       1.843  -1.270  -1.126  0.00  0.00    +0.004 A 
BRANCH  24  27
ATOM     27  C   UNL     1       2.707  -1.868  -4.752  0.00  0.00    +0.038 C 
BRANCH  27  28
ATOM     28  C   UNL     1       3.766  -0.847  -5.171  0.00  0.00    -0.013 C 
ATOM     29  C   UNL     1       4.850  -0.766  -4.094  0.00  0.00    +0.007 C 
ATOM     30  C   UNL     1       4.395  -1.279  -6.497  0.00  0.00    +0.007 C 
ENDBRANCH  27  28
ENDBRANCH  24  27
ENDBRANCH  20  21
ENDBRANCH   1  20
TORSDOF 6
