REMARK  Name = ZINC13065624
REMARK  11 active torsions:
REMARK  status: ('A' for Active; 'I' for Inactive)
REMARK    1  A    between atoms: C_1  and  C_2
REMARK    2  A    between atoms: C_2  and  O_3
REMARK    3  A    between atoms: O_3  and  C_4
REMARK    4  A    between atoms: C_11  and  C_16
REMARK    5  A    between atoms: C_16  and  N_64
REMARK    6  A    between atoms: C_17  and  C_18
REMARK    7  A    between atoms: C_17  and  N_64
REMARK    8  A    between atoms: C_27  and  C_28
REMARK    9  A    between atoms: C_27  and  N_64
REMARK   10  A    between atoms: N_32  and  C_33
REMARK   11  A    between atoms: C_33  and  C_34
REMARK                            x       y       z     vdW  Elec       q    Type
REMARK                         _______ _______ _______ _____ _____    ______ ____
ROOT
ATOM      1  N   UNL     1       5.927  -1.116   1.122  0.00  0.00    +0.390 N 
ATOM      2  H   UNL     1       5.985  -0.593   0.241  0.00  0.00    -0.080 HD
ENDROOT
BRANCH   1   3
ATOM      3  C   UNL     1       5.621  -2.530   0.822  0.00  0.00    -0.036 C 
BRANCH   3  11
ATOM      4  C   UNL     1      10.464  -5.215  -1.965  0.00  0.00    +0.121 A 
ATOM      5  C   UNL     1      10.075  -4.910  -3.267  0.00  0.00    +0.047 A 
ATOM      6  C   UNL     1       8.912  -4.212  -3.507  0.00  0.00    +0.030 A 
ATOM      7  C   UNL     1       8.114  -3.805  -2.443  0.00  0.00    +0.049 A 
ATOM      8  C   UNL     1       8.503  -4.111  -1.126  0.00  0.00    +0.002 A 
ATOM      9  C   UNL     1       9.686  -4.821  -0.895  0.00  0.00    +0.055 A 
ATOM     10  C   UNL     1       7.655  -3.672  -0.015  0.00  0.00    +0.017 A 
ATOM     11  C   UNL     1       6.517  -2.992  -0.298  0.00  0.00    +0.001 A 
ATOM     12  C   UNL     1       6.171  -2.710  -1.637  0.00  0.00    +0.251 A 
ATOM     13  O   UNL     1       5.146  -2.094  -1.869  0.00  0.00    -0.268 OA
ATOM     14  N   UNL     1       6.945  -3.105  -2.663  0.00  0.00    -0.322 N 
ATOM     15  H   UNL     1       6.678  -2.895  -3.572  0.00  0.00    +0.169 HD
BRANCH   4  16
ATOM     16  O   UNL     1      11.615  -5.905  -1.746  0.00  0.00    -0.492 OA
BRANCH  16  18
ATOM     17  C   UNL     1      13.624  -7.044  -2.456  0.00  0.00    +0.048 C 
ATOM     18  C   UNL     1      12.373  -6.283  -2.897  0.00  0.00    +0.225 C 
ENDBRANCH  16  18
ENDBRANCH   4  16
ENDBRANCH   3  11
ENDBRANCH   1   3
BRANCH   1  19
ATOM     19  C   UNL     1       4.854  -0.533   1.956  0.00  0.00    -0.042 C 
BRANCH  19  20
ATOM     20  C   UNL     1       3.593  -0.448   1.136  0.00  0.00    -0.060 A 
ATOM     21  C   UNL     1       2.636  -1.441   1.237  0.00  0.00    +0.005 A 
ATOM     22  C   UNL     1       1.478  -1.368   0.486  0.00  0.00    +0.050 A 
ATOM     23  C   UNL     1       1.272  -0.298  -0.369  0.00  0.00    +0.166 A 
ATOM     24  C   UNL     1       2.235   0.703  -0.470  0.00  0.00    +0.166 A 
ATOM     25  C   UNL     1       3.394   0.623   0.285  0.00  0.00    +0.051 A 
ATOM     26  O   UNL     1       1.803   1.636  -1.368  0.00  0.00    -0.453 OA
ATOM     27  C   UNL     1       0.388   1.406  -1.509  0.00  0.00    +0.466 C 
ATOM     28  O   UNL     1       0.236   0.007  -1.204  0.00  0.00    -0.453 OA
ENDBRANCH  19  20
ENDBRANCH   1  19
BRANCH   1  29
ATOM     29  C   UNL     1       7.223  -1.018   1.825  0.00  0.00    +0.001 C 
BRANCH  29  30
ATOM     30  C   UNL     1       7.615   0.434   1.923  0.00  0.00    +0.136 A 
ATOM     31  N   UNL     1       8.314   1.117   1.049  0.00  0.00    -0.115 NA
ATOM     32  N   UNL     1       8.435   2.321   1.489  0.00  0.00    -0.023 NA
ATOM     33  N   UNL     1       7.838   2.423   2.625  0.00  0.00    -0.044 NA
ATOM     34  N   UNL     1       7.319   1.281   2.927  0.00  0.00    -0.224 N 
BRANCH  34  35
ATOM     35  C   UNL     1       6.553   0.964   4.135  0.00  0.00    +0.221 C 
BRANCH  35  36
ATOM     36  C   UNL     1       7.491   0.486   5.213  0.00  0.00    +0.126 A 
ATOM     37  C   UNL     1       8.108   1.264   6.120  0.00  0.00    +0.046 A 
ATOM     38  C   UNL     1       8.884   0.408   6.934  0.00  0.00    +0.041 A 
ATOM     39  C   UNL     1       8.701  -0.842   6.471  0.00  0.00    +0.195 A 
ATOM     40  O   UNL     1       7.856  -0.788   5.428  0.00  0.00    -0.466 OA
ENDBRANCH  35  36
ENDBRANCH  34  35
ENDBRANCH  29  30
ENDBRANCH   1  29
TORSDOF 10
