REMARK  Name = ZINC12163165
REMARK  8 active torsions:
REMARK  status: ('A' for Active; 'I' for Inactive)
REMARK    1  A    between atoms: N_9  and  S_12
REMARK    2  A    between atoms: S_12  and  C_15
REMARK    3  A    between atoms: C_15  and  C_16
REMARK    4  A    between atoms: C_16  and  C_17
REMARK    5  A    between atoms: C_17  and  N_18
REMARK    6  A    between atoms: C_19  and  C_21
REMARK    7  A    between atoms: C_21  and  O_22
REMARK    8  A    between atoms: O_22  and  C_23
REMARK                            x       y       z     vdW  Elec       q    Type
REMARK                         _______ _______ _______ _____ _____    ______ ____
ROOT
ATOM      1  C   UNL     1       6.635  -4.826  -0.091  0.00  0.00    +0.187 C 
ENDROOT
BRANCH   1   2
ATOM      2  S   UNL     1       6.567  -6.639  -0.101  0.00  0.00    +0.032 S 
ATOM      3  O   UNL     1       6.055  -7.116   1.137  0.00  0.00    -0.158 OA
ATOM      4  O   UNL     1       6.031  -7.102  -1.333  0.00  0.00    -0.158 OA
BRANCH   2  13
ATOM      5  C   UNL     1      14.312  -6.042  -1.228  0.00  0.00    +0.005 A 
ATOM      6  C   UNL     1      14.685  -5.261  -0.142  0.00  0.00    +0.018 A 
ATOM      7  C   UNL     1      13.792  -5.074   0.894  0.00  0.00    +0.084 A 
ATOM      8  C   UNL     1      12.201  -6.377  -0.154  0.00  0.00    +0.099 A 
ATOM      9  C   UNL     1      13.050  -6.608  -1.232  0.00  0.00    +0.042 A 
ATOM     10  N   UNL     1      10.930  -6.939  -0.145  0.00  0.00    -0.314 N 
ATOM     11  C   UNL     1      10.201  -6.573   1.077  0.00  0.00    +0.123 C 
ATOM     12  C   UNL     1       8.884  -7.353   1.135  0.00  0.00    +0.128 C 
ATOM     13  N   UNL     1       8.150  -7.124  -0.119  0.00  0.00    -0.178 NA
ATOM     14  C   UNL     1       8.857  -7.344  -1.389  0.00  0.00    +0.128 C 
ATOM     15  C   UNL     1      10.178  -6.559  -1.348  0.00  0.00    +0.123 C 
ATOM     16  N   UNL     1      12.542  -5.609   0.921  0.00  0.00    -0.350 N 
ATOM     17  H   UNL     1      11.896  -5.445   1.701  0.00  0.00    +0.166 HD
ENDBRANCH   2  13
ENDBRANCH   1   2
BRANCH   1  18
ATOM     18  C   UNL     1       5.213  -4.262  -0.074  0.00  0.00    +0.043 C 
BRANCH  18  19
ATOM     19  C   UNL     1       5.271  -2.733  -0.066  0.00  0.00    +0.106 C 
BRANCH  19  20
ATOM     20  N   UNL     1       3.909  -2.193  -0.049  0.00  0.00    -0.312 N 
ATOM     21  C   UNL     1       3.713  -0.860  -0.040  0.00  0.00    +0.251 C 
ATOM     22  O   UNL     1       4.664  -0.107  -0.044  0.00  0.00    -0.272 OA
ATOM     23  H   UNL     1       3.148  -2.795  -0.045  0.00  0.00    +0.149 HD
BRANCH  21  24
ATOM     24  C   UNL     1       2.312  -0.304  -0.023  0.00  0.00    +0.324 C 
BRANCH  24  25
ATOM     25  O   UNL     1       2.366   1.123  -0.015  0.00  0.00    -0.481 OA
BRANCH  25  26
ATOM     26  C   UNL     1       1.179   1.786   0.000  0.00  0.00    +0.140 A 
ATOM     27  C   UNL     1      -0.013   1.076   0.008  0.00  0.00    +0.048 A 
ATOM     28  C   UNL     1      -1.218   1.751   0.017  0.00  0.00    +0.023 A 
ATOM     29  C   UNL     1      -1.238   3.134   0.031  0.00  0.00    +0.043 A 
ATOM     30  C   UNL     1      -0.051   3.845   0.023  0.00  0.00    +0.043 A 
ATOM     31  C   UNL     1       1.157   3.174   0.008  0.00  0.00    +0.084 A 
ATOM     32 CL   UNL     1       2.647   4.066  -0.002  0.00  0.00    -0.080 Cl
ATOM     33 CL   UNL     1      -2.754   3.979   0.049  0.00  0.00    -0.083 Cl
ENDBRANCH  25  26
ENDBRANCH  24  25
ENDBRANCH  21  24
ENDBRANCH  19  20
ENDBRANCH  18  19
ENDBRANCH   1  18
TORSDOF 8
