REMARK  Name = ZINC04663864
REMARK  7 active torsions:
REMARK  status: ('A' for Active; 'I' for Inactive)
REMARK    1  A    between atoms: C_1  and  C_2
REMARK    2  A    between atoms: C_3  and  C_9
REMARK    3  A    between atoms: C_4  and  O_8
REMARK    4  A    between atoms: C_9  and  C_10
REMARK    5  A    between atoms: C_9  and  C_17
REMARK    6  A    between atoms: C_18  and  C_24
REMARK    7  A    between atoms: C_22  and  O_23
REMARK                            x       y       z     vdW  Elec       q    Type
REMARK                         _______ _______ _______ _____ _____    ______ ____
ROOT
ATOM      1  C   UNL     1      -0.014  -0.337  -2.547  0.00  0.00    +0.093 C 
ENDROOT
BRANCH   1   4
ATOM      2  C   UNL     1      -0.977   1.852  -0.469  0.00  0.00    +0.068 C 
ATOM      3  C   UNL     1      -0.742   0.394  -0.172  0.00  0.00    +0.068 A 
ATOM      4  C   UNL     1      -0.317  -0.571  -1.090  0.00  0.00    +0.048 A 
ATOM      5  C   UNL     1      -0.227  -1.759  -0.434  0.00  0.00    +0.213 A 
ATOM      6  N   UNL     1      -0.583  -1.544   0.852  0.00  0.00    -0.247 N 
ATOM      7  H   UNL     1      -0.613  -2.212   1.554  0.00  0.00    +0.192 HD
ATOM      8  N   UNL     1      -0.896  -0.186   0.991  0.00  0.00    -0.176 NA
BRANCH   5   9
ATOM      9  O   UNL     1       0.153  -2.946  -0.974  0.00  0.00    -0.492 OA
ATOM     10  H   UNL     1       1.091  -3.148  -0.858  0.00  0.00    +0.294 HD
ENDBRANCH   5   9
ENDBRANCH   1   4
BRANCH   1  11
ATOM     11  C   UNL     1      -1.035  -1.053  -3.394  0.00  0.00    -0.034 A 
ATOM     12  C   UNL     1      -1.052  -2.435  -3.435  0.00  0.00    +0.004 A 
ATOM     13  C   UNL     1      -1.987  -3.092  -4.212  0.00  0.00    +0.001 A 
ATOM     14  C   UNL     1      -2.907  -2.368  -4.947  0.00  0.00    +0.014 A 
ATOM     15  C   UNL     1      -2.890  -0.986  -4.907  0.00  0.00    +0.014 A 
ATOM     16  C   UNL     1      -1.957  -0.329  -4.125  0.00  0.00    +0.019 A 
ATOM     17  I   UNL     1      -4.283   0.112  -6.022  0.00  0.00    -0.044 I 
ENDBRANCH   1  11
BRANCH   1  18
ATOM     18  C   UNL     1       1.361  -0.864  -2.866  0.00  0.00    +0.048 A 
ATOM     19  C   UNL     1       2.438  -0.826  -2.047  0.00  0.00    +0.041 A 
ATOM     20  N   UNL     1       3.473  -1.397  -2.699  0.00  0.00    -0.278 N 
ATOM     21  N   UNL     1       3.020  -1.801  -3.961  0.00  0.00    -0.136 NA
ATOM     22  H   UNL     1       4.372  -1.508  -2.353  0.00  0.00    +0.189 HD
ATOM     23  C   UNL     1       1.751  -1.487  -4.061  0.00  0.00    +0.236 A 
ATOM     24  C   UNL     1       2.475  -0.247  -0.656  0.00  0.00    +0.065 C 
BRANCH  23  25
ATOM     25  O   UNL     1       0.953  -1.721  -5.136  0.00  0.00    -0.491 OA
ATOM     26  H   UNL     1       1.003  -1.039  -5.820  0.00  0.00    +0.294 HD
ENDBRANCH  23  25
ENDBRANCH   1  18
TORSDOF 5
