REMARK  Name = ZINC23471933
REMARK  14 active torsions:
REMARK  status: ('A' for Active; 'I' for Inactive)
REMARK    1  A    between atoms: C_1  and  C_2
REMARK    2  A    between atoms: C_2  and  O_3
REMARK    3  A    between atoms: O_3  and  C_4
REMARK    4  A    between atoms: C_6  and  C_21
REMARK    5  A    between atoms: C_9  and  O_10
REMARK    6  A    between atoms: O_10  and  C_11
REMARK    7  A    between atoms: C_11  and  C_12
REMARK    8  A    between atoms: C_21  and  N_22
REMARK    9  A    between atoms: N_22  and  C_23
REMARK   10  A    between atoms: C_23  and  C_24
REMARK   11  A    between atoms: C_24  and  N_25
REMARK   12  A    between atoms: N_25  and  C_26
REMARK   13  A    between atoms: C_26  and  C_27
REMARK   14  A    between atoms: C_27  and  O_28
REMARK                            x       y       z     vdW  Elec       q    Type
REMARK                         _______ _______ _______ _____ _____    ______ ____
ROOT
ATOM      1  C   UNL     1       0.802  -1.825   1.306  0.00  0.00    +0.163 A 
ATOM      2  C   UNL     1       0.260  -2.673   0.352  0.00  0.00    +0.051 A 
ATOM      3  C   UNL     1       0.371  -4.043   0.502  0.00  0.00    -0.060 A 
ATOM      4  C   UNL     1       1.022  -4.571   1.602  0.00  0.00    +0.021 A 
ATOM      5  C   UNL     1       1.565  -3.730   2.557  0.00  0.00    +0.063 A 
ATOM      6  C   UNL     1       1.462  -2.356   2.409  0.00  0.00    +0.176 A 
ATOM      7 BR   UNL     1       2.453  -4.456   4.061  0.00  0.00    -0.046 Br
ENDROOT
BRANCH   1   8
ATOM      8  O   UNL     1       0.693  -0.477   1.160  0.00  0.00    -0.489 OA
BRANCH   8  10
ATOM      9  C   UNL     1      -0.019   1.526   0.010  0.00  0.00    +0.048 C 
ATOM     10  C   UNL     1       0.002  -0.004   0.002  0.00  0.00    +0.226 C 
ENDBRANCH   8  10
ENDBRANCH   1   8
BRANCH   6  11
ATOM     11  O   UNL     1       2.000  -1.528   3.345  0.00  0.00    -0.483 OA
BRANCH  11  12
ATOM     12  C   UNL     1       1.161  -1.151   4.438  0.00  0.00    +0.266 C 
BRANCH  12  13
ATOM     13  C   UNL     1       1.922  -0.238   5.365  0.00  0.00    +0.008 A 
ATOM     14  C   UNL     1       3.229   0.106   5.076  0.00  0.00    +0.010 A 
ATOM     15  C   UNL     1       3.927   0.943   5.926  0.00  0.00    +0.020 A 
ATOM     16  C   UNL     1       3.318   1.437   7.066  0.00  0.00    +0.042 A 
ATOM     17  C   UNL     1       2.010   1.092   7.355  0.00  0.00    +0.040 A 
ATOM     18  C   UNL     1       1.310   0.259   6.502  0.00  0.00    +0.049 A 
ATOM     19 CL   UNL     1      -0.334  -0.169   6.861  0.00  0.00    -0.083 Cl
ATOM     20 CL   UNL     1       4.196   2.487   8.133  0.00  0.00    -0.083 Cl
ENDBRANCH  12  13
ENDBRANCH  11  12
ENDBRANCH   6  11
BRANCH   3  21
ATOM     21  C   UNL     1      -0.219  -4.963  -0.535  0.00  0.00    -0.047 C 
BRANCH  21  22
ATOM     22  N   UNL     1       0.785  -5.241  -1.571  0.00  0.00    +0.381 N 
ATOM     23  H   UNL     1       1.066  -4.376  -2.008  0.00  0.00    -0.086 HD
ATOM     24  H   UNL     1       1.589  -5.681  -1.149  0.00  0.00    -0.086 HD
BRANCH  22  25
ATOM     25  C   UNL     1       0.210  -6.138  -2.582  0.00  0.00    -0.102 C 
BRANCH  25  26
ATOM     26  C   UNL     1       1.256  -6.428  -3.660  0.00  0.00    -0.102 C 
BRANCH  26  27
ATOM     27  N   UNL     1       0.680  -7.324  -4.672  0.00  0.00    +0.379 N 
ATOM     28  H   UNL     1       0.400  -8.189  -4.234  0.00  0.00    -0.086 HD
ATOM     29  H   UNL     1      -0.124  -6.884  -5.093  0.00  0.00    -0.086 HD
BRANCH  27  30
ATOM     30  C   UNL     1       1.685  -7.603  -5.707  0.00  0.00    -0.055 C 
BRANCH  30  31
ATOM     31  C   UNL     1       1.085  -8.537  -6.761  0.00  0.00    +0.137 C 
BRANCH  31  32
ATOM     32  O   UNL     1       0.019  -7.869  -7.438  0.00  0.00    -0.397 OA
ATOM     33  H   UNL     1      -0.408  -8.403  -8.122  0.00  0.00    +0.209 HD
ENDBRANCH  31  32
ENDBRANCH  30  31
ENDBRANCH  27  30
ENDBRANCH  26  27
ENDBRANCH  25  26
ENDBRANCH  22  25
ENDBRANCH  21  22
ENDBRANCH   3  21
TORSDOF 13
