REMARK  Name = ZINC14159430
REMARK  7 active torsions:
REMARK  status: ('A' for Active; 'I' for Inactive)
REMARK    1  A    between atoms: C_2  and  C_27
REMARK    2  A    between atoms: C_10  and  S_11
REMARK    3  A    between atoms: S_11  and  C_12
REMARK    4  A    between atoms: C_12  and  C_13
REMARK    5  A    between atoms: N_18  and  C_19
REMARK    6  A    between atoms: C_19  and  C_20
REMARK    7  A    between atoms: C_20  and  C_21
REMARK                            x       y       z     vdW  Elec       q    Type
REMARK                         _______ _______ _______ _____ _____    ______ ____
ROOT
ATOM      1  C   UNL     1       0.093   4.341   0.024  0.00  0.00    +0.173 C 
ENDROOT
BRANCH   1   2
ATOM      2  C   UNL     1       0.349   5.827   0.028  0.00  0.00    +0.231 C 
ATOM      3  O   UNL     1       1.487   6.245   0.019  0.00  0.00    -0.274 OA
ATOM      4  N   UNL     1      -0.686   6.689   0.043  0.00  0.00    -0.240 N 
ATOM      5  C   UNL     1      -0.457   8.017   0.047  0.00  0.00    +0.306 C 
ATOM      6  O   UNL     1       0.684   8.437   0.038  0.00  0.00    -0.252 OA
ATOM      7  N   UNL     1      -1.492   8.880   0.061  0.00  0.00    -0.299 N 
ATOM      8  H   UNL     1      -1.597   6.354   0.050  0.00  0.00    +0.159 HD
ATOM      9  H   UNL     1      -2.403   8.545   0.069  0.00  0.00    +0.150 HD
BRANCH   7  10
ATOM     10  C   UNL     1      -1.243  10.323   0.066  0.00  0.00    +0.110 C 
BRANCH  10  11
ATOM     11  C   UNL     1      -2.578  11.072   0.083  0.00  0.00    +0.049 C 
BRANCH  11  12
ATOM     12  C   UNL     1      -2.321  12.557   0.087  0.00  0.00    -0.072 C 
ATOM     13  C   UNL     1      -2.327  13.177  -1.048  0.00  0.00    -0.028 C 
ATOM     14  C   UNL     1      -2.079  14.649  -1.204  0.00  0.00    +0.027 C 
ATOM     15  C   UNL     1      -2.245  15.357   0.143  0.00  0.00    +0.004 C 
ATOM     16  C   UNL     1      -1.429  14.595   1.195  0.00  0.00    +0.005 C 
ATOM     17  C   UNL     1      -2.081  13.225   1.409  0.00  0.00    +0.030 C 
ENDBRANCH  11  12
ENDBRANCH  10  11
ENDBRANCH   7  10
ENDBRANCH   1   2
BRANCH   1  18
ATOM     18  S   UNL     1       1.675   3.455   0.004  0.00  0.00    -0.076 S 
BRANCH  18  28
ATOM     19  C   UNL     1       3.194  -1.824  -0.040  0.00  0.00    +0.037 A 
ATOM     20  C   UNL     1       3.990  -0.663  -0.041  0.00  0.00    +0.073 A 
ATOM     21  C   UNL     1       3.419   0.557  -0.028  0.00  0.00    +0.107 A 
ATOM     22  N   UNL     1       2.058   0.686  -0.014  0.00  0.00    -0.276 N 
ATOM     23  C   UNL     1       1.251  -0.432  -0.012  0.00  0.00    +0.180 A 
ATOM     24  C   UNL     1       1.838  -1.714  -0.025  0.00  0.00    +0.086 A 
ATOM     25 CL   UNL     1       0.842  -3.136  -0.024  0.00  0.00    -0.080 Cl
ATOM     26  N   UNL     1       0.002  -0.004   0.002  0.00  0.00    -0.127 NA
ATOM     27  N   UNL     1      -0.015   1.282   0.009  0.00  0.00    -0.122 NA
ATOM     28  C   UNL     1       1.211   1.755  -0.000  0.00  0.00    +0.196 A 
BRANCH  20  29
ATOM     29  C   UNL     1       5.492  -0.787  -0.057  0.00  0.00    +0.419 C 
ATOM     30  F   UNL     1       5.849  -2.139  -0.068  0.00  0.00    -0.166 F 
ATOM     31  F   UNL     1       6.000  -0.161  -1.201  0.00  0.00    -0.166 F 
ATOM     32  F   UNL     1       6.022  -0.174   1.084  0.00  0.00    -0.166 F 
ENDBRANCH  20  29
ENDBRANCH  18  28
ENDBRANCH   1  18
TORSDOF 7
