REMARK  Name = ZINC36313622
REMARK  16 active torsions:
REMARK  status: ('A' for Active; 'I' for Inactive)
REMARK    1  A    between atoms: C_1  and  C_2
REMARK    2  A    between atoms: C_2  and  C_3
REMARK    3  A    between atoms: C_2  and  C_4
REMARK    4  A    between atoms: C_4  and  O_5
REMARK    5  A    between atoms: O_5  and  C_6
REMARK    6  A    between atoms: C_6  and  C_7
REMARK    7  A    between atoms: C_7  and  C_9
REMARK    8  A    between atoms: C_7  and  O_33
REMARK    9  A    between atoms: C_9  and  N_10
REMARK   10  A    between atoms: N_10  and  C_11
REMARK   11  A    between atoms: N_10  and  C_16
REMARK   12  A    between atoms: C_11  and  C_12
REMARK   13  A    between atoms: C_12  and  C_13
REMARK   14  A    between atoms: C_13  and  O_14
REMARK   15  A    between atoms: O_14  and  C_15
REMARK   16  A    between atoms: C_16  and  C_17
REMARK                            x       y       z     vdW  Elec       q    Type
REMARK                         _______ _______ _______ _____ _____    ______ ____
ROOT
ATOM      1  N   UNL     1       6.222  -0.084  -3.008  0.00  0.00    +0.386 N 
ATOM      2  H   UNL     1       6.219   0.877  -2.701  0.00  0.00    -0.081 HD
ENDROOT
BRANCH   1   3
ATOM      3  C   UNL     1       4.881  -0.451  -3.482  0.00  0.00    -0.044 C 
BRANCH   3   4
ATOM      4  C   UNL     1       3.855  -0.163  -2.384  0.00  0.00    +0.124 C 
BRANCH   4   5
ATOM      5  O   UNL     1       3.799   1.244  -2.141  0.00  0.00    -0.391 OA
ATOM      6  H   UNL     1       3.543   1.766  -2.914  0.00  0.00    +0.210 HD
ENDBRANCH   4   5
BRANCH   4   7
ATOM      7  C   UNL     1       2.478  -0.659  -2.829  0.00  0.00    +0.189 C 
BRANCH   7   8
ATOM      8  O   UNL     1       1.544  -0.497  -1.760  0.00  0.00    -0.377 OA
BRANCH   8   9
ATOM      9  C   UNL     1       0.220  -0.932  -2.074  0.00  0.00    +0.163 C 
BRANCH   9  11
ATOM     10  C   UNL     1      -0.812   0.786  -0.582  0.00  0.00    +0.009 C 
ATOM     11  C   UNL     1      -0.690  -0.713  -0.863  0.00  0.00    +0.009 C 
ATOM     12  C   UNL     1      -2.075  -1.292  -1.154  0.00  0.00    +0.009 C 
ENDBRANCH   9  11
ENDBRANCH   8   9
ENDBRANCH   7   8
ENDBRANCH   4   7
ENDBRANCH   3   4
ENDBRANCH   1   3
BRANCH   1  13
ATOM     13  C   UNL     1       6.599  -0.955  -1.886  0.00  0.00    -0.076 C 
BRANCH  13  14
ATOM     14  C   UNL     1       7.938  -0.491  -1.309  0.00  0.00    +0.009 C 
BRANCH  14  15
ATOM     15  C   UNL     1       8.265  -1.309  -0.058  0.00  0.00    +0.157 C 
BRANCH  15  16
ATOM     16  O   UNL     1       9.516  -0.877   0.481  0.00  0.00    -0.383 OA
ATOM     17  C   UNL     1       9.916  -1.581   1.658  0.00  0.00    +0.193 C 
ENDBRANCH  15  16
ENDBRANCH  14  15
ENDBRANCH  13  14
ENDBRANCH   1  13
BRANCH   1  18
ATOM     18  C   UNL     1       7.189  -0.247  -4.101  0.00  0.00    -0.003 C 
BRANCH  18  19
ATOM     19  C   UNL     1       6.903   0.765  -5.180  0.00  0.00    +0.094 A 
ATOM     20  N   UNL     1       7.598   0.712  -6.346  0.00  0.00    -0.312 N 
ATOM     21  H   UNL     1       8.269   0.022  -6.467  0.00  0.00    +0.170 HD
ATOM     22  C   UNL     1       7.374   1.596  -7.335  0.00  0.00    +0.260 A 
ATOM     23  O   UNL     1       8.006   1.535  -8.376  0.00  0.00    -0.267 OA
ATOM     24  C   UNL     1       6.379   2.610  -7.145  0.00  0.00    +0.075 A 
ATOM     25  C   UNL     1       5.973   3.666  -8.077  0.00  0.00    -0.023 A 
ATOM     26  C   UNL     1       5.007   4.508  -7.655  0.00  0.00    -0.004 A 
ATOM     27  S   UNL     1       4.582   3.947  -6.026  0.00  0.00    -0.073 S 
ATOM     28  C   UNL     1       5.713   2.585  -5.911  0.00  0.00    +0.116 A 
ATOM     29  N   UNL     1       5.986   1.674  -4.980  0.00  0.00    -0.229 NA
ATOM     30  C   UNL     1       4.421   5.675  -8.387  0.00  0.00    +0.043 C 
ATOM     31  C   UNL     1       4.034   5.240  -9.807  0.00  0.00    +0.005 C 
ATOM     32  C   UNL     1       5.235   5.458 -10.722  0.00  0.00    +0.001 C 
ATOM     33  C   UNL     1       6.531   5.227  -9.947  0.00  0.00    +0.005 C 
ATOM     34  C   UNL     1       6.612   3.786  -9.457  0.00  0.00    +0.037 C 
ENDBRANCH  18  19
ENDBRANCH   1  18
TORSDOF 13
