REMARK  Name = ZINC63181978
REMARK  7 active torsions:
REMARK  status: ('A' for Active; 'I' for Inactive)
REMARK    1  A    between atoms: C_1  and  C_2
REMARK    2  A    between atoms: C_2  and  C_3
REMARK    3  A    between atoms: C_2  and  C_4
REMARK    4  A    between atoms: C_8  and  N_10
REMARK    5  A    between atoms: N_10  and  C_11
REMARK    6  A    between atoms: N_10  and  S_12
REMARK    7  A    between atoms: S_12  and  C_15
REMARK                            x       y       z     vdW  Elec       q    Type
REMARK                         _______ _______ _______ _____ _____    ______ ____
ROOT
ATOM      1  C   UNL     1      -6.338  -3.029  -2.169  0.00  0.00    +0.111 A 
ATOM      2  C   UNL     1      -7.005  -2.259  -1.234  0.00  0.00    +0.031 A 
ATOM      3  C   UNL     1      -8.220  -1.692  -1.552  0.00  0.00    +0.027 A 
ATOM      4  C   UNL     1      -8.790  -1.885  -2.813  0.00  0.00    +0.055 A 
ATOM      5  C   UNL     1      -8.121  -2.656  -3.750  0.00  0.00    +0.057 A 
ATOM      6  C   UNL     1      -6.887  -3.221  -3.418  0.00  0.00    +0.054 A 
ATOM      7  N   UNL     1      -8.603  -2.907  -5.031  0.00  0.00    -0.284 N 
ATOM      8  C   UNL     1      -9.867  -3.183  -5.344  0.00  0.00    +0.226 C 
ATOM      9  O   UNL     1     -10.156  -3.423  -6.497  0.00  0.00    -0.275 OA
ATOM     10  C   UNL     1     -10.945  -3.202  -4.291  0.00  0.00    +0.192 C 
ATOM     11  C   UNL     1     -11.045  -1.823  -3.692  0.00  0.00    +0.226 C 
ATOM     12  O   UNL     1     -12.082  -1.202  -3.798  0.00  0.00    -0.275 OA
ATOM     13  N   UNL     1     -10.018  -1.275  -3.048  0.00  0.00    -0.284 N 
ATOM     14  H   UNL     1      -7.963  -2.878  -5.759  0.00  0.00    +0.155 HD
ATOM     15  H   UNL     1     -10.135  -0.372  -2.714  0.00  0.00    +0.155 HD
ENDROOT
BRANCH   1  16
ATOM     16  S   UNL     1      -4.784  -3.756  -1.767  0.00  0.00    +0.075 S 
ATOM     17  O   UNL     1      -4.690  -4.956  -2.522  0.00  0.00    -0.150 OA
ATOM     18  O   UNL     1      -4.681  -3.737  -0.350  0.00  0.00    -0.150 OA
BRANCH  16  19
ATOM     19  N   UNL     1      -3.606  -2.743  -2.340  0.00  0.00    -0.206 N 
ATOM     20  C   UNL     1      -3.116  -2.892  -3.713  0.00  0.00    +0.157 C 
BRANCH  19  25
ATOM     21  C   UNL     1      -1.278  -0.283  -0.916  0.00  0.00    -0.043 A 
ATOM     22  C   UNL     1      -2.040   0.230   0.119  0.00  0.00    +0.004 A 
ATOM     23  C   UNL     1      -3.320  -0.243   0.338  0.00  0.00    +0.002 A 
ATOM     24  C   UNL     1      -3.843  -1.229  -0.476  0.00  0.00    +0.025 A 
ATOM     25  C   UNL     1      -3.081  -1.746  -1.516  0.00  0.00    +0.051 A 
ATOM     26  C   UNL     1      -1.796  -1.265  -1.736  0.00  0.00    +0.028 A 
BRANCH  21  28
ATOM     27  C   UNL     1       0.063   1.738  -1.434  0.00  0.00    +0.012 C 
ATOM     28  C   UNL     1       0.118   0.235  -1.151  0.00  0.00    +0.013 C 
ATOM     29  C   UNL     1       0.972  -0.019   0.093  0.00  0.00    +0.012 C 
ENDBRANCH  21  28
ENDBRANCH  19  25
ENDBRANCH  16  19
ENDBRANCH   1  16
TORSDOF 4
