REMARK  Name = ZINC02484007
REMARK  4 active torsions:
REMARK  status: ('A' for Active; 'I' for Inactive)
REMARK    1  A    between atoms: C_5  and  C_7
REMARK    2  A    between atoms: C_11  and  C_21
REMARK    3  A    between atoms: C_16  and  N_20
REMARK    4  A    between atoms: C_17  and  C_18
REMARK                            x       y       z     vdW  Elec       q    Type
REMARK                         _______ _______ _______ _____ _____    ______ ____
ROOT
ATOM      1  C   UNL     1       0.860  -2.020  -0.132  0.00  0.00    +0.083 C 
ATOM      2  C   UNL     1       0.343  -2.690  -1.411  0.00  0.00    +0.140 C 
ATOM      3  C   UNL     1       1.440  -2.792  -2.445  0.00  0.00    +0.084 C 
ATOM      4  N   UNL     1       1.644  -4.069  -2.632  0.00  0.00    -0.150 NA
ATOM      5  N   UNL     1       0.835  -4.858  -1.815  0.00  0.00    -0.115 NA
ATOM      6  C   UNL     1       0.074  -4.146  -1.040  0.00  0.00    +0.227 C 
ATOM      7  O   UNL     1      -0.758  -4.468  -0.025  0.00  0.00    -0.425 OA
ATOM      8  C   UNL     1      -0.679  -3.639   1.047  0.00  0.00    +0.200 C 
ATOM      9  C   UNL     1       0.046  -2.500   1.040  0.00  0.00    +0.095 C 
ENDROOT
BRANCH   3  10
ATOM     10  C   UNL     1       2.138  -1.679  -3.108  0.00  0.00    +0.002 A 
ATOM     11  C   UNL     1       1.517  -0.431  -3.222  0.00  0.00    +0.013 A 
ATOM     12  C   UNL     1       2.172   0.610  -3.843  0.00  0.00    +0.050 A 
ATOM     13  C   UNL     1       3.449   0.425  -4.357  0.00  0.00    +0.166 A 
ATOM     14  C   UNL     1       4.074  -0.818  -4.247  0.00  0.00    +0.167 A 
ATOM     15  C   UNL     1       3.426  -1.864  -3.621  0.00  0.00    +0.059 A 
ATOM     16  O   UNL     1       5.308  -0.737  -4.826  0.00  0.00    -0.453 OA
ATOM     17  C   UNL     1       5.269   0.443  -5.650  0.00  0.00    +0.466 C 
ATOM     18  O   UNL     1       4.292   1.280  -5.004  0.00  0.00    -0.453 OA
ENDBRANCH   3  10
BRANCH   1  23
ATOM     19  C   UNL     1      -0.635   1.418  -0.574  0.00  0.00    +0.000 A 
ATOM     20  C   UNL     1       0.488   2.221  -0.490  0.00  0.00    +0.001 A 
ATOM     21  C   UNL     1       1.731   1.651  -0.291  0.00  0.00    +0.015 A 
ATOM     22  C   UNL     1       1.852   0.278  -0.175  0.00  0.00    +0.022 A 
ATOM     23  C   UNL     1       0.729  -0.524  -0.258  0.00  0.00    -0.024 A 
ATOM     24  C   UNL     1      -0.515   0.046  -0.457  0.00  0.00    +0.005 A 
ATOM     25 BR   UNL     1       3.553  -0.502   0.097  0.00  0.00    -0.050 Br
ENDBRANCH   1  23
BRANCH   8  26
ATOM     26  N   UNL     1      -1.365  -3.973   2.188  0.00  0.00    -0.328 N 
ATOM     27  H   UNL     1      -1.892  -4.787   2.216  0.00  0.00    +0.145 HD
ATOM     28  H   UNL     1      -1.323  -3.395   2.966  0.00  0.00    +0.145 HD
ENDBRANCH   8  26
BRANCH   9  29
ATOM     29  C   UNL     1       0.039  -1.694   2.224  0.00  0.00    +0.100 C 
ATOM     30  N   UNL     1       0.034  -1.055   3.163  0.00  0.00    -0.191 NA
ENDBRANCH   9  29
TORSDOF 4
