REMARK  Name = ZINC39683300
REMARK  12 active torsions:
REMARK  status: ('A' for Active; 'I' for Inactive)
REMARK    1  A    between atoms: C_1  and  C_2
REMARK    2  A    between atoms: C_2  and  C_3
REMARK    3  A    between atoms: C_2  and  C_4
REMARK    4  A    between atoms: C_4  and  O_5
REMARK    5  A    between atoms: O_5  and  C_6
REMARK    6  A    between atoms: C_6  and  C_7
REMARK    7  A    between atoms: C_7  and  C_8
REMARK    8  A    between atoms: C_8  and  N_9
REMARK    9  A    between atoms: C_10  and  C_12
REMARK   10  A    between atoms: C_23  and  C_25
REMARK   11  A    between atoms: C_30  and  S_31
REMARK   12  A    between atoms: S_31  and  C_32
REMARK                            x       y       z     vdW  Elec       q    Type
REMARK                         _______ _______ _______ _____ _____    ______ ____
ROOT
ATOM      1  C   UNL     1       8.829   0.169  -4.054  0.00  0.00    +0.100 C 
ATOM      2  C   UNL     1       9.449  -0.391  -2.755  0.00  0.00    +0.121 C 
ATOM      3  N   UNL     1      10.157  -1.622  -3.178  0.00  0.00    -0.296 N 
ATOM      4  C   UNL     1      10.765  -1.268  -4.484  0.00  0.00    +0.115 C 
ATOM      5  C   UNL     1       9.697  -0.406  -5.186  0.00  0.00    -0.004 C 
ATOM      6  C   UNL     1       8.850  -1.270  -6.115  0.00  0.00    -0.010 C 
ATOM      7  C   UNL     1       9.722  -1.784  -7.263  0.00  0.00    -0.082 C 
ATOM      8  N   UNL     1      10.285  -0.645  -8.000  0.00  0.00    +0.379 N 
ATOM      9  C   UNL     1      11.172   0.129  -7.123  0.00  0.00    -0.082 C 
ATOM     10  C   UNL     1      10.361   0.723  -5.969  0.00  0.00    -0.010 C 
ATOM     11  C   UNL     1      10.232  -2.799  -2.525  0.00  0.00    +0.249 C 
ATOM     12  O   UNL     1       9.596  -2.968  -1.502  0.00  0.00    -0.270 OA
ATOM     13  H   UNL     1      10.809  -0.985  -8.792  0.00  0.00    -0.086 HD
ATOM     14  H   UNL     1       9.535  -0.053  -8.325  0.00  0.00    -0.086 HD
ENDROOT
BRANCH  11  15
ATOM     15  C   UNL     1      11.085  -3.880  -3.050  0.00  0.00    +0.069 A 
ATOM     16  C   UNL     1      12.297  -3.587  -3.687  0.00  0.00    +0.017 A 
ATOM     17  C   UNL     1      13.061  -4.638  -4.161  0.00  0.00    +0.020 A 
ATOM     18  C   UNL     1      12.612  -5.937  -3.995  0.00  0.00    +0.112 A 
ATOM     19  N   UNL     1      11.468  -6.193  -3.392  0.00  0.00    -0.248 NA
ATOM     20  C   UNL     1      10.700  -5.225  -2.914  0.00  0.00    +0.114 A 
BRANCH  20  21
ATOM     21  S   UNL     1       9.183  -5.626  -2.111  0.00  0.00    -0.069 S 
BRANCH  21  22
ATOM     22  C   UNL     1       9.047  -7.372  -2.304  0.00  0.00    +0.014 A 
ATOM     23  C   UNL     1       9.486  -8.221  -1.295  0.00  0.00    +0.015 A 
ATOM     24  C   UNL     1       9.377  -9.589  -1.450  0.00  0.00    +0.001 A 
ATOM     25  C   UNL     1       8.834 -10.114  -2.607  0.00  0.00    +0.000 A 
ATOM     26  C   UNL     1       8.396  -9.273  -3.614  0.00  0.00    +0.001 A 
ATOM     27  C   UNL     1       8.496  -7.904  -3.464  0.00  0.00    +0.015 A 
ENDBRANCH  21  22
ENDBRANCH  20  21
ENDBRANCH  11  15
BRANCH   1  29
ATOM     28  N   UNL     1       6.502   0.477  -4.835  0.00  0.00    -0.315 N 
ATOM     29  C   UNL     1       7.403  -0.297  -4.198  0.00  0.00    +0.218 C 
ATOM     30  O   UNL     1       7.066  -1.368  -3.740  0.00  0.00    -0.275 OA
ATOM     31  H   UNL     1       6.772   1.334  -5.201  0.00  0.00    +0.149 HD
BRANCH  28  32
ATOM     32  C   UNL     1       5.116   0.024  -4.975  0.00  0.00    +0.106 C 
BRANCH  32  33
ATOM     33  C   UNL     1       4.308   1.081  -5.732  0.00  0.00    +0.047 C 
BRANCH  33  34
ATOM     34  C   UNL     1       2.861   0.608  -5.878  0.00  0.00    +0.161 C 
BRANCH  34  35
ATOM     35  O   UNL     1       2.106   1.594  -6.585  0.00  0.00    -0.379 OA
BRANCH  35  36
ATOM     36  C   UNL     1       0.733   1.249  -6.776  0.00  0.00    +0.162 C 
BRANCH  36  38
ATOM     37  C   UNL     1       0.616   2.481  -8.947  0.00  0.00    +0.009 C 
ATOM     38  C   UNL     1       0.026   2.371  -7.540  0.00  0.00    +0.009 C 
ATOM     39  C   UNL     1      -1.468   2.060  -7.636  0.00  0.00    +0.009 C 
ENDBRANCH  36  38
ENDBRANCH  35  36
ENDBRANCH  34  35
ENDBRANCH  33  34
ENDBRANCH  32  33
ENDBRANCH  28  32
ENDBRANCH   1  29
TORSDOF 10
