REMARK  Name = ZINC36066465
REMARK  13 active torsions:
REMARK  status: ('A' for Active; 'I' for Inactive)
REMARK    1  A    between atoms: C_1  and  C_2
REMARK    2  A    between atoms: C_8  and  N_10
REMARK    3  A    between atoms: C_11  and  C_13
REMARK    4  A    between atoms: C_21  and  C_33
REMARK    5  A    between atoms: N_27  and  C_28
REMARK    6  A    between atoms: C_28  and  C_29
REMARK    7  A    between atoms: C_29  and  N_30
REMARK    8  A    between atoms: N_30  and  C_31
REMARK    9  A    between atoms: N_30  and  C_32
REMARK   10  A    between atoms: N_35  and  C_36
REMARK   11  A    between atoms: C_39  and  C_42
REMARK   12  A    between atoms: C_42  and  C_43
REMARK   13  A    between atoms: C_42  and  C_44
REMARK                            x       y       z     vdW  Elec       q    Type
REMARK                         _______ _______ _______ _____ _____    ______ ____
ROOT
ATOM      1  C   UNL     1       0.471   0.715   4.318  0.00  0.00    +0.198 C 
ATOM      2  C   UNL     1       0.282   2.182   4.549  0.00  0.00    +0.127 C 
ATOM      3  C   UNL     1       1.542   2.987   4.285  0.00  0.00    +0.009 C 
ATOM      4  C   UNL     1       1.217   4.250   4.521  0.00  0.00    +0.004 C 
ATOM      5  C   UNL     1      -0.241   4.203   4.994  0.00  0.00    +0.155 C 
ATOM      6  O   UNL     1      -0.767   3.056   4.205  0.00  0.00    -0.358 OA
ATOM      7  C   UNL     1      -0.101   3.597   6.444  0.00  0.00    +0.123 C 
ATOM      8  C   UNL     1       0.046   2.112   6.112  0.00  0.00    +0.128 C 
ATOM      9  C   UNL     1       1.154   1.223   6.506  0.00  0.00    +0.223 C 
ATOM     10  O   UNL     1       1.786   1.273   7.539  0.00  0.00    -0.275 OA
ATOM     11  N   UNL     1       1.332   0.326   5.480  0.00  0.00    -0.288 N 
ENDROOT
BRANCH   1  13
ATOM     12  N   UNL     1       0.470   0.240   1.891  0.00  0.00    -0.311 N 
ATOM     13  C   UNL     1       1.181   0.462   3.013  0.00  0.00    +0.237 C 
ATOM     14  O   UNL     1       2.394   0.458   2.974  0.00  0.00    -0.274 OA
ATOM     15  H   UNL     1      -0.500   0.243   1.923  0.00  0.00    +0.149 HD
BRANCH  12  22
ATOM     16  C   UNL     1      -0.111   1.869  -0.433  0.00  0.00    +0.009 C 
ATOM     17  C   UNL     1       0.245   0.385  -0.540  0.00  0.00    +0.006 C 
ATOM     18  C   UNL     1       0.966   0.128  -1.865  0.00  0.00    +0.005 C 
ATOM     19  C   UNL     1       1.322  -1.356  -1.973  0.00  0.00    +0.000 C 
ATOM     20  C   UNL     1       2.237  -1.747  -0.810  0.00  0.00    +0.002 C 
ATOM     21  C   UNL     1       1.516  -1.490   0.514  0.00  0.00    +0.022 C 
ATOM     22  C   UNL     1       1.160  -0.006   0.622  0.00  0.00    +0.076 C 
ENDBRANCH  12  22
ENDBRANCH   1  13
BRANCH   7  23
ATOM     23  C   UNL     1       1.121   4.138   7.141  0.00  0.00    +0.224 C 
ATOM     24  O   UNL     1       2.006   3.384   7.487  0.00  0.00    -0.275 OA
ATOM     25  N   UNL     1       1.231   5.460   7.379  0.00  0.00    -0.285 N 
ATOM     26  H   UNL     1       0.560   6.072   7.039  0.00  0.00    +0.155 HD
BRANCH  25  27
ATOM     27  C   UNL     1       2.313   5.950   8.119  0.00  0.00    +0.033 A 
ATOM     28  C   UNL     1       2.855   7.193   7.819  0.00  0.00    +0.023 A 
ATOM     29  C   UNL     1       3.923   7.674   8.550  0.00  0.00    +0.006 A 
ATOM     30  C   UNL     1       4.453   6.919   9.580  0.00  0.00    -0.045 A 
ATOM     31  C   UNL     1       3.917   5.680   9.881  0.00  0.00    +0.006 A 
ATOM     32  C   UNL     1       2.845   5.197   9.157  0.00  0.00    +0.023 A 
BRANCH  30  33
ATOM     33  C   UNL     1       5.619   7.447  10.376  0.00  0.00    +0.013 C 
ATOM     34  C   UNL     1       5.220   7.564  11.849  0.00  0.00    +0.012 C 
ATOM     35  C   UNL     1       6.803   6.487  10.244  0.00  0.00    +0.012 C 
ENDBRANCH  30  33
ENDBRANCH  25  27
ENDBRANCH   7  23
BRANCH  11  36
ATOM     36  C   UNL     1       2.228  -0.832   5.516  0.00  0.00    +0.090 C 
BRANCH  36  37
ATOM     37  C   UNL     1       1.441  -2.071   5.949  0.00  0.00    -0.060 C 
BRANCH  37  38
ATOM     38  N   UNL     1       2.356  -3.214   6.074  0.00  0.00    +0.377 N 
ATOM     39  C   UNL     1       1.625  -4.372   6.603  0.00  0.00    -0.097 C 
ATOM     40  C   UNL     1       2.908  -3.545   4.753  0.00  0.00    -0.097 C 
ATOM     41  H   UNL     1       3.108  -2.975   6.702  0.00  0.00    -0.083 HD
ENDBRANCH  37  38
ENDBRANCH  36  37
ENDBRANCH  11  36
TORSDOF 8
