REMARK  Name = ZINC67138989
REMARK  9 active torsions:
REMARK  status: ('A' for Active; 'I' for Inactive)
REMARK    1  A    between atoms: C_1  and  C_2
REMARK    2  A    between atoms: C_2  and  C_3
REMARK    3  A    between atoms: C_2  and  C_4
REMARK    4  A    between atoms: N_6  and  C_7
REMARK    5  A    between atoms: C_7  and  C_9
REMARK    6  A    between atoms: C_7  and  C_20
REMARK    7  A    between atoms: C_9  and  C_10
REMARK    8  A    between atoms: N_22  and  C_23
REMARK    9  A    between atoms: C_28  and  O_29
REMARK                            x       y       z     vdW  Elec       q    Type
REMARK                         _______ _______ _______ _____ _____    ______ ____
ROOT
ATOM      1  C   UNL     1      -3.025  -2.348   0.008  0.00  0.00    +0.163 C 
ENDROOT
BRANCH   1   4
ATOM      2  C   UNL     1      -1.427  -0.509   0.002  0.00  0.00    +0.216 C 
ATOM      3  O   UNL     1      -2.361   0.264   0.025  0.00  0.00    -0.276 OA
ATOM      4  N   UNL     1      -1.652  -1.838  -0.009  0.00  0.00    -0.303 N 
ATOM      5  H   UNL     1      -0.905  -2.457  -0.027  0.00  0.00    +0.149 HD
BRANCH   2   7
ATOM      6  C   UNL     1      -0.038   1.545   0.001  0.00  0.00    +0.017 C 
ATOM      7  C   UNL     1      -0.014   0.016  -0.015  0.00  0.00    +0.069 C 
ATOM      8  C   UNL     1       0.735  -0.496   1.217  0.00  0.00    +0.017 C 
ENDBRANCH   2   7
ENDBRANCH   1   4
BRANCH   1   9
ATOM      9  C   UNL     1      -3.724  -1.870   1.254  0.00  0.00    +0.238 C 
ATOM     10  O   UNL     1      -3.297  -0.909   1.858  0.00  0.00    -0.273 OA
ATOM     11  N   UNL     1      -4.824  -2.511   1.698  0.00  0.00    -0.281 N 
ATOM     12  H   UNL     1      -5.203  -3.239   1.181  0.00  0.00    +0.155 HD
BRANCH  11  13
ATOM     13  C   UNL     1      -5.419  -2.126   2.907  0.00  0.00    +0.077 A 
ATOM     14  C   UNL     1      -5.420  -0.791   3.287  0.00  0.00    +0.047 A 
ATOM     15  C   UNL     1      -6.009  -0.414   4.480  0.00  0.00    +0.043 A 
ATOM     16  C   UNL     1      -6.596  -1.364   5.297  0.00  0.00    +0.023 A 
ATOM     17  C   UNL     1      -6.598  -2.695   4.924  0.00  0.00    +0.049 A 
ATOM     18  C   UNL     1      -6.016  -3.080   3.727  0.00  0.00    +0.138 A 
ATOM     19 CL   UNL     1      -6.011   1.256   4.955  0.00  0.00    -0.083 Cl
BRANCH  18  20
ATOM     20  O   UNL     1      -6.021  -4.389   3.356  0.00  0.00    -0.505 OA
ATOM     21  H   UNL     1      -5.254  -4.889   3.667  0.00  0.00    +0.292 HD
ENDBRANCH  18  20
ENDBRANCH  11  13
ENDBRANCH   1   9
BRANCH   1  22
ATOM     22  C   UNL     1      -3.774  -1.837  -1.225  0.00  0.00    +0.069 C 
BRANCH  22  23
ATOM     23  C   UNL     1      -3.149  -2.415  -2.468  0.00  0.00    -0.020 A 
ATOM     24  C   UNL     1      -2.209  -1.836  -3.232  0.00  0.00    +0.087 A 
ATOM     25  N   UNL     1      -1.885  -2.659  -4.276  0.00  0.00    -0.360 N 
ATOM     26  H   UNL     1      -1.230  -2.456  -4.963  0.00  0.00    +0.165 HD
ATOM     27  C   UNL     1      -2.627  -3.817  -4.208  0.00  0.00    +0.047 A 
ATOM     28  C   UNL     1      -3.446  -3.717  -3.068  0.00  0.00    +0.003 A 
ATOM     29  C   UNL     1      -4.313  -4.762  -2.740  0.00  0.00    +0.010 A 
ATOM     30  C   UNL     1      -4.357  -5.878  -3.527  0.00  0.00    +0.001 A 
ATOM     31  C   UNL     1      -3.548  -5.983  -4.650  0.00  0.00    +0.002 A 
ATOM     32  C   UNL     1      -2.692  -4.960  -4.997  0.00  0.00    +0.026 A 
ENDBRANCH  22  23
ENDBRANCH   1  22
TORSDOF 7
