REMARK  Name = ZINC21223588
REMARK  9 active torsions:
REMARK  status: ('A' for Active; 'I' for Inactive)
REMARK    1  A    between atoms: C_1  and  C_2
REMARK    2  A    between atoms: C_2  and  C_3
REMARK    3  A    between atoms: C_6  and  C_9
REMARK    4  A    between atoms: C_14  and  C_24
REMARK    5  A    between atoms: C_26  and  N_34
REMARK    6  A    between atoms: C_27  and  O_33
REMARK    7  A    between atoms: C_28  and  O_30
REMARK    8  A    between atoms: O_30  and  C_31
REMARK    9  A    between atoms: C_31  and  C_32
REMARK                            x       y       z     vdW  Elec       q    Type
REMARK                         _______ _______ _______ _____ _____    ______ ____
ROOT
ATOM      1  C   UNL     1      -3.321   6.906  -2.898  0.00  0.00    +0.032 C 
ATOM      2  C   UNL     1      -2.557   8.210  -2.672  0.00  0.00    +0.059 C 
ATOM      3  C   UNL     1      -1.489   8.010  -1.610  0.00  0.00    +0.017 C 
ATOM      4  C   UNL     1      -0.881   6.823  -1.469  0.00  0.00    +0.036 C 
ATOM      5  C   UNL     1       0.202   6.490  -0.471  0.00  0.00    +0.136 C 
ATOM      6  N   UNL     1       0.765   7.638   0.207  0.00  0.00    -0.331 N 
ATOM      7  C   UNL     1      -0.013   8.420   1.059  0.00  0.00    +0.049 A 
ATOM      8  C   UNL     1       0.254   8.500   2.416  0.00  0.00    +0.025 A 
ATOM      9  C   UNL     1      -0.575   9.252   3.230  0.00  0.00    +0.002 A 
ATOM     10  C   UNL     1      -1.664   9.917   2.696  0.00  0.00    +0.002 A 
ATOM     11  C   UNL     1      -1.923   9.855   1.337  0.00  0.00    +0.025 A 
ATOM     12  C   UNL     1      -1.081   9.121   0.519  0.00  0.00    +0.052 A 
ATOM     13  N   UNL     1      -1.214   9.110  -0.864  0.00  0.00    -0.316 N 
ATOM     14  C   UNL     1      -1.239   5.734  -2.304  0.00  0.00    +0.163 C 
ATOM     15  O   UNL     1      -0.659   4.674  -2.169  0.00  0.00    -0.292 OA
ATOM     16  C   UNL     1      -2.309   5.845  -3.348  0.00  0.00    +0.088 C 
ATOM     17  H   UNL     1       1.821   7.903   0.054  0.00  0.00    +0.147 HD
ATOM     18  H   UNL     1      -1.078  10.086  -1.353  0.00  0.00    +0.152 HD
ENDROOT
BRANCH   1  22
ATOM     19  C   UNL     1      -6.280   7.467  -5.926  0.00  0.00    -0.048 A 
ATOM     20  C   UNL     1      -6.658   7.083  -4.653  0.00  0.00    +0.004 A 
ATOM     21  C   UNL     1      -5.700   6.901  -3.673  0.00  0.00    +0.004 A 
ATOM     22  C   UNL     1      -4.365   7.104  -3.966  0.00  0.00    -0.043 A 
ATOM     23  C   UNL     1      -3.987   7.494  -5.237  0.00  0.00    +0.004 A 
ATOM     24  C   UNL     1      -4.945   7.671  -6.219  0.00  0.00    +0.004 A 
BRANCH  19  26
ATOM     25  C   UNL     1      -7.806   9.116  -6.976  0.00  0.00    +0.009 C 
ATOM     26  C   UNL     1      -7.324   7.664  -6.995  0.00  0.00    +0.032 C 
ENDBRANCH  19  26
ENDBRANCH   1  22
BRANCH   5  27
ATOM     27  C   UNL     1      -0.374   5.559   0.564  0.00  0.00    -0.017 A 
ATOM     28  C   UNL     1      -1.381   5.998   1.404  0.00  0.00    +0.042 A 
ATOM     29  C   UNL     1      -1.911   5.147   2.355  0.00  0.00    +0.171 A 
ATOM     30  C   UNL     1      -1.438   3.849   2.466  0.00  0.00    +0.189 A 
ATOM     31  C   UNL     1      -0.421   3.409   1.625  0.00  0.00    +0.164 A 
ATOM     32  C   UNL     1       0.107   4.267   0.673  0.00  0.00    +0.055 A 
BRANCH  29  33
ATOM     33  N   UNL     1      -2.989   5.620   3.252  0.00  0.00    +0.060 N 
ATOM     34  O   UNL     1      -3.409   6.760   3.152  0.00  0.00    -0.126 OA
ATOM     35  O   UNL     1      -3.457   4.871   4.091  0.00  0.00    -0.126 OA
ENDBRANCH  29  33
BRANCH  30  36
ATOM     36  O   UNL     1      -1.964   3.009   3.397  0.00  0.00    -0.502 OA
ATOM     37  H   UNL     1      -1.587   1.979   3.484  0.00  0.00    +0.292 HD
ENDBRANCH  30  36
BRANCH  31  38
ATOM     38  O   UNL     1       0.051   2.138   1.733  0.00  0.00    -0.488 OA
BRANCH  38  39
ATOM     39  C   UNL     1       1.093   1.754   0.833  0.00  0.00    +0.226 C 
ATOM     40  C   UNL     1       1.490   0.302   1.103  0.00  0.00    +0.048 C 
ENDBRANCH  38  39
ENDBRANCH  31  38
ENDBRANCH   5  27
TORSDOF 7
