REMARK  Name = ZINC33019546
REMARK  6 active torsions:
REMARK  status: ('A' for Active; 'I' for Inactive)
REMARK    1  A    between atoms: C_1  and  C_2
REMARK    2  A    between atoms: C_3  and  C_27
REMARK    3  A    between atoms: C_4  and  C_26
REMARK    4  A    between atoms: C_9  and  C_12
REMARK    5  A    between atoms: C_12  and  C_13
REMARK    6  A    between atoms: C_27  and  C_28
REMARK                            x       y       z     vdW  Elec       q    Type
REMARK                         _______ _______ _______ _____ _____    ______ ____
ROOT
ATOM      1  C   UNL     1      -4.274   6.677   4.824  0.00  0.00    +0.068 C 
ATOM      2  C   UNL     1      -4.790   5.984   3.589  0.00  0.00    +0.064 A 
ATOM      3  C   UNL     1      -5.957   6.315   2.891  0.00  0.00    +0.001 A 
ATOM      4  C   UNL     1      -6.071   5.468   1.843  0.00  0.00    +0.048 A 
ATOM      5  N   UNL     1      -5.010   4.620   1.882  0.00  0.00    -0.212 N 
ATOM      6  N   UNL     1      -4.223   4.971   2.986  0.00  0.00    -0.169 NA
ATOM      7  C   UNL     1      -4.749   3.589   0.980  0.00  0.00    +0.194 A 
ATOM      8  N   UNL     1      -3.742   2.738   0.965  0.00  0.00    -0.226 NA
ATOM      9  C   UNL     1      -3.641   1.816   0.029  0.00  0.00    +0.060 A 
ATOM     10  C   UNL     1      -4.606   1.751  -0.921  0.00  0.00    +0.072 A 
ATOM     11  S   UNL     1      -5.669   3.092  -0.406  0.00  0.00    -0.056 S 
ATOM     12  C   UNL     1      -7.176   5.463   0.818  0.00  0.00    +0.066 C 
ENDROOT
BRANCH   9  13
ATOM     13  C   UNL     1      -2.482   0.853   0.018  0.00  0.00    +0.152 C 
BRANCH  13  14
ATOM     14  C   UNL     1      -1.187   1.624   0.017  0.00  0.00    +0.225 C 
ATOM     15  O   UNL     1      -1.204   2.836   0.023  0.00  0.00    -0.275 OA
ATOM     16  N   UNL     1      -0.011   0.966   0.007  0.00  0.00    -0.256 N 
ATOM     17  C   UNL     1       1.179   1.674  -0.000  0.00  0.00    +0.200 A 
ATOM     18  N   UNL     1       1.280   3.036   0.006  0.00  0.00    -0.326 N 
ATOM     19  H   UNL     1       0.371   3.655   0.018  0.00  0.00    +0.169 HD
ATOM     20  C   UNL     1       2.629   3.346  -0.005  0.00  0.00    +0.067 A 
ATOM     21  C   UNL     1       3.342   4.536  -0.005  0.00  0.00    +0.028 A 
ATOM     22  C   UNL     1       4.721   4.510  -0.018  0.00  0.00    +0.002 A 
ATOM     23  C   UNL     1       5.401   3.300  -0.030  0.00  0.00    +0.002 A 
ATOM     24  C   UNL     1       4.710   2.110  -0.030  0.00  0.00    +0.030 A 
ATOM     25  C   UNL     1       3.312   2.119  -0.017  0.00  0.00    +0.091 A 
ATOM     26  N   UNL     1       2.372   1.139  -0.009  0.00  0.00    -0.214 NA
ATOM     27  H   UNL     1       0.004  -0.134   0.006  0.00  0.00    +0.158 HD
ENDBRANCH  13  14
ENDBRANCH   9  13
BRANCH   3  28
ATOM     28  C   UNL     1      -6.916   7.423   3.244  0.00  0.00    +0.074 C 
BRANCH  28  29
ATOM     29  C   UNL     1      -6.495   8.691   2.547  0.00  0.00    -0.043 A 
ATOM     30  C   UNL     1      -5.625   9.566   3.171  0.00  0.00    +0.004 A 
ATOM     31  C   UNL     1      -5.236  10.727   2.530  0.00  0.00    +0.000 A 
ATOM     32  C   UNL     1      -5.724  11.019   1.270  0.00  0.00    +0.000 A 
ATOM     33  C   UNL     1      -6.598  10.146   0.648  0.00  0.00    +0.000 A 
ATOM     34  C   UNL     1      -6.984   8.983   1.287  0.00  0.00    +0.004 A 
ENDBRANCH  28  29
ENDBRANCH   3  28
TORSDOF 4
