REMARK  Name = ZINC20832433
REMARK  11 active torsions:
REMARK  status: ('A' for Active; 'I' for Inactive)
REMARK    1  A    between atoms: C_1  and  C_2
REMARK    2  A    between atoms: C_2  and  C_30
REMARK    3  A    between atoms: C_4  and  N_10
REMARK    4  A    between atoms: C_6  and  C_8
REMARK    5  A    between atoms: C_6  and  C_9
REMARK    6  A    between atoms: C_11  and  C_13
REMARK    7  A    between atoms: C_13  and  S_14
REMARK    8  A    between atoms: S_14  and  C_15
REMARK    9  A    between atoms: N_20  and  N_21
REMARK   10  A    between atoms: C_22  and  C_23
REMARK   11  A    between atoms: C_28  and  O_29
REMARK                            x       y       z     vdW  Elec       q    Type
REMARK                         _______ _______ _______ _____ _____    ______ ____
ROOT
ATOM      1  S   UNL     1      -8.731   0.029   0.083  0.00  0.00    -0.075 S 
ENDROOT
BRANCH   1   2
ATOM      2  C   UNL     1      -6.982   0.243   0.067  0.00  0.00    +0.211 A 
ATOM      3  N   UNL     1      -6.051  -0.757   0.053  0.00  0.00    -0.186 NA
ATOM      4  C   UNL     1      -4.811  -0.180   0.045  0.00  0.00    +0.232 A 
ATOM      5  N   UNL     1      -4.970   1.122   0.059  0.00  0.00    -0.245 N 
ATOM      6  N   UNL     1      -6.345   1.390   0.068  0.00  0.00    -0.144 NA
ATOM      7  N   UNL     1      -3.598  -0.853   0.030  0.00  0.00    -0.205 N 
ATOM      8  H   UNL     1      -3.580  -1.953   0.025  0.00  0.00    +0.177 HD
ATOM      9  H   UNL     1      -4.091   1.783   0.062  0.00  0.00    +0.192 HD
BRANCH   7  10
ATOM     10  N   UNL     1      -2.397  -0.132   0.023  0.00  0.00    -0.187 NA
ATOM     11  C   UNL     1      -1.262  -0.762   0.009  0.00  0.00    +0.142 C 
BRANCH  11  12
ATOM     12  C   UNL     1       0.002  -0.004   0.002  0.00  0.00    +0.036 A 
ATOM     13  C   UNL     1       1.225  -0.678  -0.013  0.00  0.00    +0.013 A 
ATOM     14  C   UNL     1       2.404   0.038  -0.021  0.00  0.00    +0.001 A 
ATOM     15  C   UNL     1       2.381   1.422  -0.013  0.00  0.00    +0.004 A 
ATOM     16  C   UNL     1       1.176   2.100   0.002  0.00  0.00    +0.046 A 
ATOM     17  C   UNL     1      -0.017   1.397   0.010  0.00  0.00    +0.125 A 
BRANCH  17  18
ATOM     18  O   UNL     1      -1.201   2.063   0.019  0.00  0.00    -0.506 OA
ATOM     19  H   UNL     1      -1.213   3.163   0.025  0.00  0.00    +0.292 HD
ENDBRANCH  17  18
ENDBRANCH  11  12
ENDBRANCH   7  10
ENDBRANCH   1   2
BRANCH   1  20
ATOM     20  C   UNL     1      -9.380   1.723   0.098  0.00  0.00    +0.173 C 
BRANCH  20  22
ATOM     21  N   UNL     1     -11.590   2.833   0.124  0.00  0.00    -0.312 N 
ATOM     22  C   UNL     1     -10.886   1.683   0.112  0.00  0.00    +0.224 C 
ATOM     23  O   UNL     1     -11.465   0.618   0.112  0.00  0.00    -0.275 OA
ATOM     24  H   UNL     1     -11.065   3.799   0.124  0.00  0.00    +0.149 HD
BRANCH  21  28
ATOM     25  C   UNL     1     -15.621   3.143   1.869  0.00  0.00    -0.010 C 
ATOM     26  C   UNL     1     -15.116   4.082   0.767  0.00  0.00    -0.072 C 
ATOM     27  C   UNL     1     -13.590   4.085   0.759  0.00  0.00    +0.009 C 
ATOM     28  C   UNL     1     -13.058   2.794   0.138  0.00  0.00    +0.070 C 
ATOM     29  C   UNL     1     -13.572   2.699  -1.298  0.00  0.00    +0.009 C 
ATOM     30  C   UNL     1     -15.099   2.680  -1.317  0.00  0.00    -0.072 C 
ATOM     31  N   UNL     1     -15.687   3.735  -0.517  0.00  0.00    +0.386 N 
ATOM     32  C   UNL     1     -15.600   1.302  -0.870  0.00  0.00    -0.010 C 
ATOM     33  C   UNL     1     -15.549   2.877  -2.781  0.00  0.00    -0.010 C 
ATOM     34  C   UNL     1     -15.583   5.508   1.133  0.00  0.00    -0.010 C 
ATOM     35  H   UNL     1     -16.729   3.411  -0.380  0.00  0.00    -0.084 HD
ATOM     36  H   UNL     1     -15.660   4.613  -1.180  0.00  0.00    -0.084 HD
ENDBRANCH  21  28
ENDBRANCH  20  22
ENDBRANCH   1  20
TORSDOF 7
