REMARK  Name = ZINC37129199
REMARK  5 active torsions:
REMARK  status: ('A' for Active; 'I' for Inactive)
REMARK    1  A    between atoms: C_1  and  C_2
REMARK    2  A    between atoms: C_2  and  C_4
REMARK    3  A    between atoms: C_2  and  N_11
REMARK    4  A    between atoms: C_7  and  O_10
REMARK    5  A    between atoms: N_11  and  C_12
REMARK                            x       y       z     vdW  Elec       q    Type
REMARK                         _______ _______ _______ _____ _____    ______ ____
ROOT
ATOM      1  N   UNL     1       0.711  -0.489   1.189  0.00  0.00    -0.334 N 
ATOM      2  H   UNL     1       0.217  -0.692   1.999  0.00  0.00    +0.147 HD
ENDROOT
BRANCH   1   3
ATOM      3  C   UNL     1       2.089  -0.703   1.140  0.00  0.00    +0.075 A 
ATOM      4  C   UNL     1       2.685  -1.518   2.054  0.00  0.00    +0.065 A 
ATOM      5  C   UNL     1       4.059  -1.752   2.032  0.00  0.00    +0.044 A 
ATOM      6  C   UNL     1       4.861  -1.179   1.102  0.00  0.00    +0.071 A 
ATOM      7  C   UNL     1       4.311  -0.316   0.115  0.00  0.00    +0.120 A 
ATOM      8  C   UNL     1       2.874  -0.072   0.129  0.00  0.00    +0.123 A 
ATOM      9  N   UNL     1       2.470   0.746  -0.843  0.00  0.00    -0.189 NA
ATOM     10  S   UNL     1       3.798   1.132  -1.665  0.00  0.00    +0.117 S 
ATOM     11  N   UNL     1       4.942   0.329  -0.868  0.00  0.00    -0.189 NA
ATOM     12 CL   UNL     1       6.567  -1.501   1.116  0.00  0.00    -0.081 Cl
ATOM     13 CL   UNL     1       1.712  -2.282   3.272  0.00  0.00    -0.082 Cl
ENDBRANCH   1   3
BRANCH   1  15
ATOM     14  C   UNL     1      -0.121   1.560   0.145  0.00  0.00    +0.033 C 
ATOM     15  C   UNL     1       0.010   0.041   0.017  0.00  0.00    +0.098 C 
BRANCH  15  16
ATOM     16  C   UNL     1      -1.363  -0.576  -0.069  0.00  0.00    -0.027 A 
ATOM     17  C   UNL     1      -2.107  -0.766   1.080  0.00  0.00    +0.009 A 
ATOM     18  C   UNL     1      -3.365  -1.331   1.004  0.00  0.00    +0.046 A 
ATOM     19  C   UNL     1      -3.882  -1.708  -0.228  0.00  0.00    +0.117 A 
ATOM     20  C   UNL     1      -3.132  -1.516  -1.379  0.00  0.00    +0.046 A 
ATOM     21  C   UNL     1      -1.877  -0.946  -1.298  0.00  0.00    +0.009 A 
BRANCH  19  22
ATOM     22  O   UNL     1      -5.119  -2.265  -0.305  0.00  0.00    -0.507 OA
ATOM     23  H   UNL     1      -5.832  -1.624  -0.425  0.00  0.00    +0.292 HD
ENDBRANCH  19  22
ENDBRANCH  15  16
ENDBRANCH   1  15
TORSDOF 4
