REMARK  Name = ZINC27531976
REMARK  13 active torsions:
REMARK  status: ('A' for Active; 'I' for Inactive)
REMARK    1  A    between atoms: C_1  and  C_2
REMARK    2  A    between atoms: C_2  and  O_3
REMARK    3  A    between atoms: O_3  and  C_4
REMARK    4  A    between atoms: C_6  and  C_18
REMARK    5  A    between atoms: C_9  and  O_10
REMARK    6  A    between atoms: O_10  and  C_11
REMARK    7  A    between atoms: C_11  and  C_12
REMARK    8  A    between atoms: C_12  and  O_14
REMARK    9  A    between atoms: O_14  and  C_15
REMARK   10  A    between atoms: C_15  and  C_16
REMARK   11  A    between atoms: N_23  and  C_26
REMARK   12  A    between atoms: C_29  and  C_33
REMARK   13  A    between atoms: C_30  and  C_32
REMARK                            x       y       z     vdW  Elec       q    Type
REMARK                         _______ _______ _______ _____ _____    ______ ____
ROOT
ATOM      1  C   UNL     1      -8.718   1.578  -0.188  0.00  0.00    +0.164 A 
ATOM      2  C   UNL     1      -8.101   2.809  -0.099  0.00  0.00    +0.057 A 
ATOM      3  C   UNL     1      -6.703   2.884  -0.015  0.00  0.00    -0.019 A 
ATOM      4  C   UNL     1      -5.940   1.706  -0.027  0.00  0.00    +0.027 A 
ATOM      5  C   UNL     1      -6.566   0.483  -0.110  0.00  0.00    +0.064 A 
ATOM      6  C   UNL     1      -7.952   0.411  -0.194  0.00  0.00    +0.177 A 
ATOM      7 BR   UNL     1      -5.537  -1.104  -0.119  0.00  0.00    -0.046 Br
ENDROOT
BRANCH   3   8
ATOM      8  C   UNL     1      -6.042   4.186   0.079  0.00  0.00    +0.026 C 
ATOM      9  C   UNL     1      -4.861   4.411  -0.598  0.00  0.00    +0.102 C 
ATOM     10  C   UNL     1      -3.981   5.591  -0.500  0.00  0.00    +0.266 C 
ATOM     11  O   UNL     1      -4.155   6.569   0.202  0.00  0.00    -0.268 OA
ATOM     12  N   UNL     1      -2.947   5.378  -1.336  0.00  0.00    -0.223 N 
ATOM     13  N   UNL     1      -3.081   4.146  -1.977  0.00  0.00    -0.184 N 
ATOM     14  C   UNL     1      -4.208   3.525  -1.581  0.00  0.00    +0.272 C 
ATOM     15  O   UNL     1      -4.609   2.440  -1.958  0.00  0.00    -0.268 OA
ATOM     16  H   UNL     1      -2.079   6.018  -1.551  0.00  0.00    +0.174 HD
BRANCH  13  17
ATOM     17  C   UNL     1      -2.173   3.631  -2.908  0.00  0.00    +0.057 A 
ATOM     18  C   UNL     1      -2.404   2.392  -3.493  0.00  0.00    +0.025 A 
ATOM     19  C   UNL     1      -1.503   1.884  -4.408  0.00  0.00    +0.005 A 
ATOM     20  C   UNL     1      -0.377   2.610  -4.748  0.00  0.00    -0.047 A 
ATOM     21  C   UNL     1      -0.146   3.845  -4.171  0.00  0.00    -0.046 A 
ATOM     22  C   UNL     1      -1.041   4.357  -3.252  0.00  0.00    +0.028 A 
ATOM     23  C   UNL     1       1.083   4.633  -4.545  0.00  0.00    +0.044 C 
ATOM     24  C   UNL     1       0.601   2.055  -5.751  0.00  0.00    +0.044 C 
ENDBRANCH  13  17
ENDBRANCH   3   8
BRANCH   1  25
ATOM     25  O   UNL     1     -10.073   1.501  -0.270  0.00  0.00    -0.489 OA
BRANCH  25  27
ATOM     26  C   UNL     1     -12.294   2.450  -0.356  0.00  0.00    +0.048 C 
ATOM     27  C   UNL     1     -10.794   2.735  -0.258  0.00  0.00    +0.226 C 
ENDBRANCH  25  27
ENDBRANCH   1  25
BRANCH   6  28
ATOM     28  O   UNL     1      -8.563  -0.798  -0.282  0.00  0.00    -0.476 OA
BRANCH  28  29
ATOM     29  C   UNL     1      -8.781  -1.321  -1.594  0.00  0.00    +0.349 C 
BRANCH  29  30
ATOM     30  C   UNL     1      -9.465  -2.660  -1.493  0.00  0.00    +0.345 C 
ATOM     31  O   UNL     1      -9.737  -3.120  -0.409  0.00  0.00    -0.247 OA
BRANCH  30  32
ATOM     32  O   UNL     1      -9.771  -3.343  -2.607  0.00  0.00    -0.463 OA
BRANCH  32  33
ATOM     33  C   UNL     1     -10.428  -4.626  -2.435  0.00  0.00    +0.229 C 
ATOM     34  C   UNL     1     -10.696  -5.251  -3.806  0.00  0.00    +0.048 C 
ENDBRANCH  32  33
ENDBRANCH  30  32
ENDBRANCH  29  30
ENDBRANCH  28  29
ENDBRANCH   6  28
TORSDOF 9
