REMARK  Name = ZINC20795641
REMARK  8 active torsions:
REMARK  status: ('A' for Active; 'I' for Inactive)
REMARK    1  A    between atoms: C_1  and  C_2
REMARK    2  A    between atoms: C_2  and  C_26
REMARK    3  A    between atoms: N_5  and  C_9
REMARK    4  A    between atoms: C_9  and  C_10
REMARK    5  A    between atoms: N_12  and  C_13
REMARK    6  A    between atoms: C_18  and  S_19
REMARK    7  A    between atoms: S_19  and  C_20
REMARK    8  A    between atoms: C_29  and  C_32
REMARK                            x       y       z     vdW  Elec       q    Type
REMARK                         _______ _______ _______ _____ _____    ______ ____
ROOT
ATOM      1  C   UNL     1      -0.455  10.641  -0.101  0.00  0.00    +0.214 C 
ENDROOT
BRANCH   1   6
ATOM      2  C   UNL     1      -1.408  15.107   0.999  0.00  0.00    +0.047 C 
ATOM      3  C   UNL     1      -2.159  13.897   0.441  0.00  0.00    +0.135 C 
ATOM      4  C   UNL     1      -1.550  12.607   0.955  0.00  0.00    +0.251 C 
ATOM      5  O   UNL     1      -1.470  12.245   2.109  0.00  0.00    -0.272 OA
ATOM      6  N   UNL     1      -1.117  11.948  -0.137  0.00  0.00    -0.215 N 
ATOM      7  C   UNL     1      -1.360  12.636  -1.258  0.00  0.00    +0.310 C 
ATOM      8  O   UNL     1      -1.057  12.247  -2.369  0.00  0.00    -0.252 OA
ATOM      9  N   UNL     1      -1.981  13.805  -1.019  0.00  0.00    -0.281 N 
ATOM     10  H   UNL     1      -2.340  14.617  -1.669  0.00  0.00    +0.152 HD
BRANCH   3  11
ATOM     11  C   UNL     1      -3.622  13.970   0.793  0.00  0.00    -0.015 A 
ATOM     12  C   UNL     1      -4.087  13.344   1.937  0.00  0.00    +0.007 A 
ATOM     13  C   UNL     1      -5.424  13.411   2.268  0.00  0.00    +0.019 A 
ATOM     14  C   UNL     1      -6.312  14.102   1.441  0.00  0.00    +0.052 A 
ATOM     15  C   UNL     1      -5.837  14.727   0.285  0.00  0.00    +0.019 A 
ATOM     16  C   UNL     1      -4.496  14.657  -0.031  0.00  0.00    +0.007 A 
BRANCH  14  17
ATOM     17  C   UNL     1      -7.702  14.171   1.775  0.00  0.00    +0.099 C 
ATOM     18  N   UNL     1      -8.806  14.225   2.040  0.00  0.00    -0.191 NA
ENDBRANCH  14  17
ENDBRANCH   3  11
ENDBRANCH   1   6
BRANCH   1  19
ATOM     19  C   UNL     1      -1.490   9.551  -0.201  0.00  0.00    +0.235 C 
ATOM     20  O   UNL     1      -2.666   9.837  -0.294  0.00  0.00    -0.274 OA
ATOM     21  N   UNL     1      -1.111   8.258  -0.188  0.00  0.00    -0.283 N 
ATOM     22  H   UNL     1      -0.042   7.998  -0.178  0.00  0.00    +0.155 HD
BRANCH  21  23
ATOM     23  C   UNL     1      -2.078   7.244  -0.187  0.00  0.00    +0.047 A 
ATOM     24  C   UNL     1      -3.267   7.416  -0.879  0.00  0.00    +0.024 A 
ATOM     25  C   UNL     1      -4.222   6.416  -0.871  0.00  0.00    +0.002 A 
ATOM     26  C   UNL     1      -3.994   5.241  -0.179  0.00  0.00    +0.001 A 
ATOM     27  C   UNL     1      -2.810   5.058   0.509  0.00  0.00    +0.017 A 
ATOM     28  C   UNL     1      -1.845   6.056   0.507  0.00  0.00    +0.034 A 
BRANCH  28  29
ATOM     29  S   UNL     1      -0.334   5.826   1.384  0.00  0.00    -0.088 S 
BRANCH  29  30
ATOM     30  C   UNL     1      -0.428   4.166   1.967  0.00  0.00    +0.013 A 
ATOM     31  C   UNL     1      -0.033   3.116   1.146  0.00  0.00    +0.015 A 
ATOM     32  C   UNL     1      -0.108   1.816   1.607  0.00  0.00    +0.001 A 
ATOM     33  C   UNL     1      -0.575   1.559   2.883  0.00  0.00    +0.000 A 
ATOM     34  C   UNL     1      -0.974   2.600   3.700  0.00  0.00    +0.001 A 
ATOM     35  C   UNL     1      -0.897   3.903   3.249  0.00  0.00    +0.015 A 
ENDBRANCH  29  30
ENDBRANCH  28  29
ENDBRANCH  21  23
ENDBRANCH   1  19
TORSDOF 7
