REMARK  Name = ZINC51036128
REMARK  7 active torsions:
REMARK  status: ('A' for Active; 'I' for Inactive)
REMARK    1  A    between atoms: C_1  and  C_2
REMARK    2  A    between atoms: C_2  and  C_3
REMARK    3  A    between atoms: C_3  and  C_5
REMARK    4  A    between atoms: C_3  and  N_24
REMARK    5  A    between atoms: C_5  and  C_7
REMARK    6  A    between atoms: C_5  and  S_13
REMARK    7  A    between atoms: S_13  and  C_14
REMARK                            x       y       z     vdW  Elec       q    Type
REMARK                         _______ _______ _______ _____ _____    ______ ____
ROOT
ATOM      1  C   UNL     1      -1.388  -2.023   0.189  0.00  0.00    +0.075 C 
ENDROOT
BRANCH   1   2
ATOM      2  C   UNL     1      -0.671  -2.205   1.502  0.00  0.00    +0.003 A 
ATOM      3  C   UNL     1       0.454  -2.912   1.769  0.00  0.00    +0.013 A 
ATOM      4  C   UNL     1       0.938  -2.939   3.063  0.00  0.00    +0.023 A 
ATOM      5  C   UNL     1       0.272  -2.257   4.028  0.00  0.00    +0.055 A 
ATOM      6  S   UNL     1      -1.079  -1.540   3.107  0.00  0.00    -0.085 S 
ATOM      7 BR   UNL     1       0.673  -2.100   5.870  0.00  0.00    -0.043 Br
ENDBRANCH   1   2
BRANCH   1   8
ATOM      8  C   UNL     1      -1.425  -0.536  -0.170  0.00  0.00    -0.057 C 
BRANCH   8   9
ATOM      9  N   UNL     1      -2.203  -0.349  -1.402  0.00  0.00    +0.381 N 
ATOM     10  H   UNL     1      -1.817  -0.925  -2.134  0.00  0.00    -0.090 HD
ATOM     11  H   UNL     1      -3.163  -0.613  -1.236  0.00  0.00    -0.090 HD
ATOM     12  H   UNL     1      -2.164   0.620  -1.680  0.00  0.00    -0.090 HD
ENDBRANCH   8   9
BRANCH   8  14
ATOM     13  C   UNL     1      -0.025   1.483  -0.622  0.00  0.00    +0.002 C 
ATOM     14  C   UNL     1       0.002  -0.028  -0.386  0.00  0.00    -0.018 C 
ENDBRANCH   8  14
ENDBRANCH   1   8
BRANCH   1  15
ATOM     15  S   UNL     1      -3.083  -2.652   0.334  0.00  0.00    -0.097 S 
BRANCH  15  16
ATOM     16  C   UNL     1      -2.878  -4.393   0.511  0.00  0.00    +0.126 A 
ATOM     17  C   UNL     1      -3.976  -5.219   0.762  0.00  0.00    +0.117 A 
ATOM     18  C   UNL     1      -3.762  -6.601   0.895  0.00  0.00    +0.182 A 
ATOM     19  N   UNL     1      -4.963  -7.161   1.129  0.00  0.00    -0.216 NA
ATOM     20  H   UNL     1      -5.800  -4.176   0.893  0.00  0.00    +0.167 HD
ATOM     21  C   UNL     1      -5.885  -6.239   1.149  0.00  0.00    +0.199 A 
ATOM     22  N   UNL     1      -5.331  -5.025   0.928  0.00  0.00    -0.341 N 
ATOM     23  N   UNL     1      -2.516  -7.071   0.777  0.00  0.00    -0.214 NA
ATOM     24  C   UNL     1      -1.513  -6.254   0.541  0.00  0.00    +0.224 A 
ATOM     25  N   UNL     1      -1.675  -4.951   0.404  0.00  0.00    -0.227 NA
ENDBRANCH  15  16
ENDBRANCH   1  15
TORSDOF 6
