REMARK  Name = ZINC35744134
REMARK  15 active torsions:
REMARK  status: ('A' for Active; 'I' for Inactive)
REMARK    1  A    between atoms: C_1  and  O_2
REMARK    2  A    between atoms: O_2  and  C_3
REMARK    3  A    between atoms: C_3  and  C_4
REMARK    4  A    between atoms: C_4  and  N_5
REMARK    5  A    between atoms: N_5  and  C_6
REMARK    6  A    between atoms: N_5  and  C_29
REMARK    7  A    between atoms: C_6  and  C_7
REMARK    8  A    between atoms: N_19  and  C_22
REMARK    9  A    between atoms: C_22  and  C_23
REMARK   10  A    between atoms: C_29  and  C_30
REMARK   11  A    between atoms: C_30  and  C_32
REMARK   12  A    between atoms: C_30  and  O_37
REMARK   13  A    between atoms: C_32  and  O_33
REMARK   14  A    between atoms: O_33  and  C_34
REMARK   15  A    between atoms: C_34  and  C_35
REMARK                            x       y       z     vdW  Elec       q    Type
REMARK                         _______ _______ _______ _____ _____    ______ ____
ROOT
ATOM      1  C   UNL     1      -1.424  -0.395  -3.032  0.00  0.00    +0.094 A 
ATOM      2  N   UNL     1      -1.956  -0.053  -4.234  0.00  0.00    -0.312 N 
ATOM      3  H   UNL     1      -2.106  -0.743  -4.900  0.00  0.00    +0.170 HD
ATOM      4  C   UNL     1      -2.281   1.221  -4.520  0.00  0.00    +0.260 A 
ATOM      5  O   UNL     1      -2.758   1.511  -5.603  0.00  0.00    -0.267 OA
ATOM      6  C   UNL     1      -2.056   2.232  -3.529  0.00  0.00    +0.075 A 
ATOM      7  C   UNL     1      -2.326   3.665  -3.614  0.00  0.00    -0.020 A 
ATOM      8  C   UNL     1      -2.021   4.413  -2.530  0.00  0.00    +0.010 A 
ATOM      9  S   UNL     1      -1.367   3.266  -1.351  0.00  0.00    -0.072 S 
ATOM     10  C   UNL     1      -1.503   1.784  -2.318  0.00  0.00    +0.116 A 
ATOM     11  N   UNL     1      -1.213   0.503  -2.107  0.00  0.00    -0.229 NA
ATOM     12  C   UNL     1      -2.205   5.892  -2.386  0.00  0.00    +0.127 C 
ATOM     13  N   UNL     1      -2.437   6.461  -3.727  0.00  0.00    -0.293 NA
ATOM     14  C   UNL     1      -3.471   5.699  -4.441  0.00  0.00    +0.090 C 
ATOM     15  C   UNL     1      -2.926   4.329  -4.851  0.00  0.00    +0.052 C 
ENDROOT
BRANCH   1  16
ATOM     16  C   UNL     1      -1.077  -1.835  -2.759  0.00  0.00    -0.003 C 
BRANCH  16  17
ATOM     17  N   UNL     1      -0.675  -1.984  -1.354  0.00  0.00    +0.388 N 
ATOM     18  H   UNL     1       0.081  -1.347  -1.151  0.00  0.00    -0.081 HD
BRANCH  17  19
ATOM     19  C   UNL     1      -0.230  -3.363  -1.115  0.00  0.00    -0.050 C 
BRANCH  19  20
ATOM     20  C   UNL     1       1.011  -3.653  -1.962  0.00  0.00    +0.141 C 
BRANCH  20  22
ATOM     21  C   UNL     1       3.237  -2.874  -2.393  0.00  0.00    +0.193 C 
ATOM     22  O   UNL     1       2.064  -2.763  -1.585  0.00  0.00    -0.385 OA
ENDBRANCH  20  22
ENDBRANCH  19  20
ENDBRANCH  17  19
BRANCH  17  23
ATOM     23  C   UNL     1      -1.818  -1.681  -0.482  0.00  0.00    -0.044 C 
BRANCH  23  24
ATOM     24  C   UNL     1      -1.350  -1.632   0.974  0.00  0.00    +0.124 C 
BRANCH  24  25
ATOM     25  O   UNL     1      -1.016  -2.951   1.411  0.00  0.00    -0.391 OA
ATOM     26  H   UNL     1      -1.752  -3.577   1.368  0.00  0.00    +0.210 HD
ENDBRANCH  24  25
BRANCH  24  27
ATOM     27  C   UNL     1      -2.472  -1.072   1.851  0.00  0.00    +0.190 C 
BRANCH  27  28
ATOM     28  O   UNL     1      -1.997  -0.918   3.190  0.00  0.00    -0.365 OA
BRANCH  28  29
ATOM     29  C   UNL     1      -2.972  -0.398   4.096  0.00  0.00    +0.248 C 
BRANCH  29  30
ATOM     30  C   UNL     1      -2.381  -0.280   5.439  0.00  0.00    -0.077 C 
ATOM     31  C   UNL     1      -1.909  -0.186   6.510  0.00  0.00    +0.006 C 
ENDBRANCH  29  30
ENDBRANCH  28  29
ENDBRANCH  27  28
ENDBRANCH  24  27
ENDBRANCH  23  24
ENDBRANCH  17  23
ENDBRANCH  16  17
ENDBRANCH   1  16
BRANCH  13  32
ATOM     32  C   UNL     1      -2.795   7.883  -3.641  0.00  0.00    +0.120 C 
BRANCH  32  33
ATOM     33  C   UNL     1      -1.619   8.667  -3.118  0.00  0.00    -0.033 A 
ATOM     34  C   UNL     1      -1.465   8.856  -1.757  0.00  0.00    +0.005 A 
ATOM     35  C   UNL     1      -0.386   9.575  -1.277  0.00  0.00    +0.000 A 
ATOM     36  C   UNL     1       0.538  10.104  -2.157  0.00  0.00    +0.000 A 
ATOM     37  C   UNL     1       0.385   9.914  -3.518  0.00  0.00    +0.000 A 
ATOM     38  C   UNL     1      -0.691   9.192  -3.998  0.00  0.00    +0.005 A 
ENDBRANCH  32  33
ENDBRANCH  13  32
TORSDOF 14
