REMARK  Name = ZINC09915797
REMARK  13 active torsions:
REMARK  status: ('A' for Active; 'I' for Inactive)
REMARK    1  A    between atoms: C_1  and  C_2
REMARK    2  A    between atoms: C_6  and  O_13
REMARK    3  A    between atoms: O_13  and  C_14
REMARK    4  A    between atoms: C_14  and  C_29
REMARK    5  A    between atoms: C_15  and  C_27
REMARK    6  A    between atoms: C_15  and  O_28
REMARK    7  A    between atoms: C_16  and  C_25
REMARK    8  A    between atoms: C_16  and  O_26
REMARK    9  A    between atoms: C_17  and  C_23
REMARK   10  A    between atoms: C_17  and  O_24
REMARK   11  A    between atoms: C_18  and  C_20
REMARK   12  A    between atoms: C_18  and  C_21
REMARK   13  A    between atoms: C_21  and  O_22
REMARK                            x       y       z     vdW  Elec       q    Type
REMARK                         _______ _______ _______ _____ _____    ______ ____
ROOT
ATOM      1  C   UNL     1      -0.018   1.444   0.010  0.00  0.00    +0.242 C 
ATOM      2  C   UNL     1      -0.705   1.893  -1.272  0.00  0.00    +0.159 C 
ATOM      3  C   UNL     1      -1.268   3.301  -1.199  0.00  0.00    +0.129 C 
ATOM      4  C   UNL     1      -1.967   3.641   0.106  0.00  0.00    +0.125 C 
ATOM      5  C   UNL     1      -1.225   3.141   1.340  0.00  0.00    +0.125 C 
ATOM      6  O   UNL     1      -0.678   1.857   1.179  0.00  0.00    -0.326 OA
ATOM      7  C   UNL     1      -0.151   4.161   1.741  0.00  0.00    +0.047 C 
ATOM      8  C   UNL     1      -3.402   3.101   0.115  0.00  0.00    +0.047 C 
ATOM      9  C   UNL     1      -2.280   3.479  -2.350  0.00  0.00    +0.047 C 
ATOM     10  C   UNL     1      -1.799   0.886  -1.650  0.00  0.00    +0.051 C 
ATOM     11  C   UNL     1       1.446   1.903  -0.002  0.00  0.00    +0.092 C 
ENDROOT
BRANCH   4  12
ATOM     12  O   UNL     1      -2.054   5.080   0.201  0.00  0.00    -0.383 OA
ATOM     13  H   UNL     1      -2.525   5.394   0.985  0.00  0.00    +0.210 HD
ENDBRANCH   4  12
BRANCH   3  14
ATOM     14  O   UNL     1      -0.205   4.245  -1.425  0.00  0.00    -0.383 OA
ATOM     15  H   UNL     1       0.289   4.093  -2.242  0.00  0.00    +0.210 HD
ENDBRANCH   3  14
BRANCH   2  16
ATOM     16  O   UNL     1       0.280   1.864  -2.330  0.00  0.00    -0.379 OA
ATOM     17  H   UNL     1       0.666   0.991  -2.484  0.00  0.00    +0.211 HD
ENDBRANCH   2  16
BRANCH   1  18
ATOM     18  O   UNL     1       0.002  -0.004   0.002  0.00  0.00    -0.456 OA
BRANCH  18  24
ATOM     19  C   UNL     1       2.243   0.717   4.718  0.00  0.00    +0.113 C 
ATOM     20  C   UNL     1       2.052  -0.709   4.271  0.00  0.00    +0.229 C 
ATOM     21  O   UNL     1       2.409  -1.621   4.986  0.00  0.00    -0.273 OA
ATOM     22  N   UNL     1       1.486  -0.971   3.076  0.00  0.00    -0.284 N 
ATOM     23  C   UNL     1       1.043  -0.019   2.180  0.00  0.00    +0.140 A 
ATOM     24  C   UNL     1       0.533  -0.621   1.093  0.00  0.00    +0.150 A 
ATOM     25  C   UNL     1       0.652  -2.070   1.305  0.00  0.00    +0.042 A 
ATOM     26  C   UNL     1       1.260  -2.236   2.561  0.00  0.00    +0.060 A 
ATOM     27  C   UNL     1       1.508  -3.517   3.037  0.00  0.00    +0.027 A 
ATOM     28  C   UNL     1       1.149  -4.613   2.282  0.00  0.00    +0.002 A 
ATOM     29  C   UNL     1       0.552  -4.450   1.040  0.00  0.00    +0.001 A 
ATOM     30  C   UNL     1       0.301  -3.188   0.548  0.00  0.00    +0.013 A 
ENDBRANCH  18  24
ENDBRANCH   1  18
BRANCH   5  31
ATOM     31  C   UNL     1      -2.246   3.082   2.501  0.00  0.00    +0.193 C 
BRANCH  31  32
ATOM     32  O   UNL     1      -1.562   2.788   3.721  0.00  0.00    -0.392 OA
ATOM     33  H   UNL     1      -2.141   2.736   4.494  0.00  0.00    +0.210 HD
ENDBRANCH  31  32
ENDBRANCH   5  31
TORSDOF 7
