REMARK  Name = ZINC00630549
REMARK  7 active torsions:
REMARK  status: ('A' for Active; 'I' for Inactive)
REMARK    1  A    between atoms: C_1  and  C_2
REMARK    2  A    between atoms: C_4  and  C_16
REMARK    3  A    between atoms: C_5  and  C_15
REMARK    4  A    between atoms: N_6  and  C_7
REMARK    5  A    between atoms: C_16  and  C_18
REMARK    6  A    between atoms: C_18  and  S_19
REMARK    7  A    between atoms: S_19  and  C_20
REMARK                            x       y       z     vdW  Elec       q    Type
REMARK                         _______ _______ _______ _____ _____    ______ ____
ROOT
ATOM      1  C   UNL     1      -6.924  -2.652   0.053  0.00  0.00    +0.064 C 
ATOM      2  C   UNL     1      -5.434  -2.878   0.038  0.00  0.00    +0.022 A 
ATOM      3  C   UNL     1      -4.500  -1.913   0.041  0.00  0.00    +0.034 A 
ATOM      4  C   UNL     1      -3.199  -2.595   0.019  0.00  0.00    +0.039 A 
ATOM      5  C   UNL     1      -3.480  -3.948   0.014  0.00  0.00    +0.031 A 
ATOM      6  N   UNL     1      -4.819  -4.099   0.026  0.00  0.00    -0.316 N 
ATOM      7  C   UNL     1      -2.465  -5.062  -0.001  0.00  0.00    +0.064 C 
ENDROOT
BRANCH   6   8
ATOM      8  C   UNL     1      -5.485  -5.332   0.025  0.00  0.00    +0.066 A 
ATOM      9  C   UNL     1      -5.805  -5.951   1.226  0.00  0.00    +0.047 A 
ATOM     10  C   UNL     1      -6.463  -7.166   1.222  0.00  0.00    +0.043 A 
ATOM     11  C   UNL     1      -6.803  -7.766   0.022  0.00  0.00    +0.021 A 
ATOM     12  C   UNL     1      -6.487  -7.152  -1.175  0.00  0.00    +0.023 A 
ATOM     13  C   UNL     1      -5.833  -5.934  -1.178  0.00  0.00    +0.065 A 
ATOM     14 CL   UNL     1      -5.442  -5.160  -2.682  0.00  0.00    -0.081 Cl
ATOM     15 CL   UNL     1      -6.862  -7.941   2.723  0.00  0.00    -0.083 Cl
ENDBRANCH   6   8
BRANCH   4  16
ATOM     16  C   UNL     1      -1.875  -1.969   0.009  0.00  0.00    +0.175 C 
ATOM     17  O   UNL     1      -0.877  -2.659  -0.004  0.00  0.00    -0.291 OA
BRANCH  16  18
ATOM     18  C   UNL     1      -1.752  -0.467   0.016  0.00  0.00    +0.157 C 
BRANCH  18  19
ATOM     19  S   UNL     1       0.002  -0.004   0.002  0.00  0.00    -0.076 S 
BRANCH  19  20
ATOM     20  C   UNL     1      -0.022   1.758   0.012  0.00  0.00    +0.210 A 
ATOM     21  N   UNL     1       1.056   2.550   0.006  0.00  0.00    -0.188 NA
ATOM     22  C   UNL     1       0.679   3.811   0.015  0.00  0.00    +0.209 A 
ATOM     23  N   UNL     1      -0.670   3.842   0.028  0.00  0.00    -0.246 N 
ATOM     24  H   UNL     1      -1.232   4.633   0.037  0.00  0.00    +0.192 HD
ATOM     25  N   UNL     1      -1.099   2.505   0.020  0.00  0.00    -0.144 NA
ATOM     26  N   UNL     1       1.518   4.910   0.013  0.00  0.00    -0.328 N 
ATOM     27  H   UNL     1       2.480   4.787   0.004  0.00  0.00    +0.145 HD
ATOM     28  H   UNL     1       1.144   5.806   0.021  0.00  0.00    +0.145 HD
ENDBRANCH  19  20
ENDBRANCH  18  19
ENDBRANCH  16  18
ENDBRANCH   4  16
TORSDOF 5
