REMARK  Name = ZINC39465561
REMARK  7 active torsions:
REMARK  status: ('A' for Active; 'I' for Inactive)
REMARK    1  A    between atoms: C_1  and  C_2
REMARK    2  A    between atoms: C_2  and  O_3
REMARK    3  A    between atoms: O_3  and  P_4
REMARK    4  A    between atoms: C_12  and  C_27
REMARK    5  A    between atoms: C_13  and  C_20
REMARK    6  A    between atoms: C_25  and  O_26
REMARK    7  A    between atoms: C_27  and  C_28
REMARK                            x       y       z     vdW  Elec       q    Type
REMARK                         _______ _______ _______ _____ _____    ______ ____
ROOT
ATOM      1  P   UNL     1       0.906  -2.042   1.476  0.00  0.00    +0.421 P 
ATOM      2  O   UNL     1       1.410  -2.741   0.273  0.00  0.00    -0.239 OA
ATOM      3  N   UNL     1      -0.514  -2.720   1.982  0.00  0.00    -0.156 NA
ATOM      4  N   UNL     1      -0.867  -2.503   3.296  0.00  0.00    -0.224 NA
ATOM      5  C   UNL     1      -2.136  -3.184   3.591  0.00  0.00    +0.108 C 
ATOM      6  C   UNL     1      -2.675  -2.665   4.924  0.00  0.00    +0.052 C 
ATOM      7  C   UNL     1      -1.602  -2.767   5.978  0.00  0.00    -0.041 A 
ATOM      8  C   UNL     1      -1.981  -2.727   7.312  0.00  0.00    +0.008 A 
ATOM      9  C   UNL     1      -1.036  -2.816   8.311  0.00  0.00    -0.035 A 
ATOM     10  C   UNL     1       0.311  -2.948   7.976  0.00  0.00    -0.011 A 
ATOM     11  C   UNL     1       0.686  -2.988   6.638  0.00  0.00    +0.014 A 
ATOM     12  C   UNL     1      -0.272  -2.897   5.639  0.00  0.00    -0.023 A 
ATOM     13  C   UNL     1       0.189  -2.947   4.206  0.00  0.00    +0.130 C 
ATOM     14  C   UNL     1       1.444  -2.083   4.055  0.00  0.00    +0.196 C 
ATOM     15  O   UNL     1       1.946  -2.229   2.712  0.00  0.00    -0.294 OA
ATOM     16  H   UNL     1      -1.071  -3.244   1.385  0.00  0.00    +0.153 HD
ENDROOT
BRANCH  10  17
ATOM     17  C   UNL     1       1.338  -3.045   9.042  0.00  0.00    +0.024 A 
ATOM     18  C   UNL     1       2.288  -2.038   9.191  0.00  0.00    +0.012 A 
ATOM     19  C   UNL     1       3.242  -2.132  10.184  0.00  0.00    +0.001 A 
ATOM     20  C   UNL     1       3.258  -3.225  11.033  0.00  0.00    +0.004 A 
ATOM     21  C   UNL     1       2.320  -4.230  10.894  0.00  0.00    +0.046 A 
ATOM     22  C   UNL     1       1.353  -4.145   9.905  0.00  0.00    +0.125 A 
BRANCH  22  23
ATOM     23  O   UNL     1       0.426  -5.129   9.771  0.00  0.00    -0.506 OA
ATOM     24  H   UNL     1       0.694  -5.843   9.176  0.00  0.00    +0.292 HD
ENDBRANCH  22  23
ENDBRANCH  10  17
BRANCH   1  25
ATOM     25  O   UNL     1       0.693  -0.477   1.160  0.00  0.00    -0.296 OA
BRANCH  25  27
ATOM     26  C   UNL     1      -0.019   1.526   0.010  0.00  0.00    +0.035 C 
ATOM     27  C   UNL     1       0.002  -0.004   0.002  0.00  0.00    +0.168 C 
ENDBRANCH  25  27
ENDBRANCH   1  25
BRANCH   9  28
ATOM     28  C   UNL     1      -1.456  -2.771   9.758  0.00  0.00    +0.070 C 
BRANCH  28  29
ATOM     29  C   UNL     1      -1.340  -1.358  10.270  0.00  0.00    -0.043 A 
ATOM     30  C   UNL     1      -0.156  -0.923  10.835  0.00  0.00    +0.004 A 
ATOM     31  C   UNL     1      -0.050   0.373  11.305  0.00  0.00    +0.000 A 
ATOM     32  C   UNL     1      -1.127   1.233  11.210  0.00  0.00    +0.000 A 
ATOM     33  C   UNL     1      -2.312   0.798  10.645  0.00  0.00    +0.000 A 
ATOM     34  C   UNL     1      -2.416  -0.496  10.171  0.00  0.00    +0.004 A 
ENDBRANCH  28  29
ENDBRANCH   9  28
TORSDOF 6
