REMARK  Name = ZINC01112171
REMARK  9 active torsions:
REMARK  status: ('A' for Active; 'I' for Inactive)
REMARK    1  A    between atoms: C_1  and  C_2
REMARK    2  A    between atoms: C_2  and  C_33
REMARK    3  A    between atoms: C_6  and  C_21
REMARK    4  A    between atoms: C_8  and  C_19
REMARK    5  A    between atoms: C_9  and  N_18
REMARK    6  A    between atoms: N_10  and  C_11
REMARK    7  A    between atoms: C_24  and  O_29
REMARK    8  A    between atoms: C_25  and  O_27
REMARK    9  A    between atoms: O_27  and  C_28
REMARK                            x       y       z     vdW  Elec       q    Type
REMARK                         _______ _______ _______ _____ _____    ______ ____
ROOT
ATOM      1  C   UNL     1       0.200   1.230   1.794  0.00  0.00    +0.011 C 
ATOM      2  C   UNL     1       0.160  -0.219   1.306  0.00  0.00    -0.023 C 
ATOM      3  C   UNL     1      -1.267  -0.583   0.889  0.00  0.00    +0.058 C 
ATOM      4  C   UNL     1      -1.296  -1.996   0.360  0.00  0.00    +0.025 C 
ATOM      5  C   UNL     1      -0.224  -2.525  -0.268  0.00  0.00    +0.025 C 
ATOM      6  C   UNL     1      -0.262  -3.931  -0.813  0.00  0.00    +0.097 C 
ATOM      7  C   UNL     1      -1.376  -4.722  -0.193  0.00  0.00    +0.077 C 
ATOM      8  C   UNL     1      -2.405  -4.106   0.444  0.00  0.00    +0.107 C 
ATOM      9  N   UNL     1      -2.438  -2.733   0.535  0.00  0.00    -0.260 N 
ATOM     10  C   UNL     1       0.957  -1.782  -0.436  0.00  0.00    +0.162 C 
ATOM     11  O   UNL     1       1.899  -2.284  -1.016  0.00  0.00    -0.292 OA
ATOM     12  C   UNL     1       1.081  -0.378   0.091  0.00  0.00    +0.086 C 
ATOM     13  C   UNL     1       0.622  -1.153   2.427  0.00  0.00    +0.011 C 
ENDROOT
BRANCH   9  14
ATOM     14  C   UNL     1      -3.647  -2.084   0.810  0.00  0.00    +0.041 A 
ATOM     15  C   UNL     1      -4.447  -1.633  -0.231  0.00  0.00    +0.024 A 
ATOM     16  C   UNL     1      -5.640  -0.993   0.043  0.00  0.00    +0.003 A 
ATOM     17  C   UNL     1      -6.039  -0.802   1.353  0.00  0.00    +0.020 A 
ATOM     18  C   UNL     1      -5.245  -1.251   2.393  0.00  0.00    +0.043 A 
ATOM     19  C   UNL     1      -4.052  -1.896   2.125  0.00  0.00    +0.043 A 
ATOM     20 CL   UNL     1      -5.750  -1.010   4.037  0.00  0.00    -0.083 Cl
ENDBRANCH   9  14
BRANCH   6  21
ATOM     21  C   UNL     1      -0.466  -3.877  -2.305  0.00  0.00    -0.031 A 
ATOM     22  C   UNL     1      -1.600  -3.280  -2.825  0.00  0.00    +0.008 A 
ATOM     23  C   UNL     1      -1.792  -3.227  -4.192  0.00  0.00    +0.049 A 
ATOM     24  C   UNL     1      -0.847  -3.773  -5.046  0.00  0.00    +0.158 A 
ATOM     25  C   UNL     1       0.294  -4.374  -4.523  0.00  0.00    +0.162 A 
ATOM     26  C   UNL     1       0.483  -4.418  -3.151  0.00  0.00    +0.054 A 
BRANCH  25  27
ATOM     27  O   UNL     1       1.225  -4.911  -5.357  0.00  0.00    -0.491 OA
ATOM     28  C   UNL     1       2.370  -5.512  -4.749  0.00  0.00    +0.277 C 
ENDBRANCH  25  27
BRANCH  24  29
ATOM     29  O   UNL     1      -1.034  -3.722  -6.392  0.00  0.00    -0.503 OA
ATOM     30  H   UNL     1      -0.666  -2.932  -6.811  0.00  0.00    +0.292 HD
ENDBRANCH  24  29
ENDBRANCH   6  21
BRANCH   8  31
ATOM     31  N   UNL     1      -3.416  -4.854   0.997  0.00  0.00    -0.345 N 
ATOM     32  H   UNL     1      -3.441  -5.814   0.858  0.00  0.00    +0.144 HD
ATOM     33  H   UNL     1      -4.105  -4.423   1.527  0.00  0.00    +0.144 HD
ENDBRANCH   8  31
BRANCH   7  34
ATOM     34  C   UNL     1      -1.353  -6.152  -0.274  0.00  0.00    +0.099 C 
ATOM     35  N   UNL     1      -1.335  -7.286  -0.339  0.00  0.00    -0.191 NA
ENDBRANCH   7  34
TORSDOF 6
