REMARK  Name = ZINC44877662
REMARK  10 active torsions:
REMARK  status: ('A' for Active; 'I' for Inactive)
REMARK    1  A    between atoms: C_1  and  C_2
REMARK    2  A    between atoms: N_7  and  C_9
REMARK    3  A    between atoms: C_9  and  C_10
REMARK    4  A    between atoms: C_13  and  C_16
REMARK    5  A    between atoms: C_16  and  N_17
REMARK    6  A    between atoms: C_18  and  C_20
REMARK    7  A    between atoms: C_20  and  N_21
REMARK    8  A    between atoms: N_21  and  C_22
REMARK    9  A    between atoms: N_21  and  S_28
REMARK   10  A    between atoms: S_28  and  C_31
REMARK                            x       y       z     vdW  Elec       q    Type
REMARK                         _______ _______ _______ _____ _____    ______ ____
ROOT
ATOM      1  N   UNL     1       3.584 -10.995   1.591  0.00  0.00    -0.310 N 
ATOM      2  C   UNL     1       2.715 -11.695   0.835  0.00  0.00    +0.232 C 
ATOM      3  O   UNL     1       2.813 -12.901   0.758  0.00  0.00    -0.274 OA
ATOM      4  H   UNL     1       3.505 -10.030   1.652  0.00  0.00    +0.149 HD
ENDROOT
BRANCH   1   5
ATOM      5  C   UNL     1       4.646 -11.691   2.321  0.00  0.00    +0.139 C 
BRANCH   5   9
ATOM      6  C   UNL     1       6.991  -8.848   4.481  0.00  0.00    -0.064 A 
ATOM      7  C   UNL     1       5.885  -9.426   5.075  0.00  0.00    +0.002 A 
ATOM      8  C   UNL     1       5.126 -10.345   4.376  0.00  0.00    +0.005 A 
ATOM      9  C   UNL     1       5.473 -10.687   3.083  0.00  0.00    -0.030 A 
ATOM     10  C   UNL     1       6.579 -10.109   2.488  0.00  0.00    +0.005 A 
ATOM     11  C   UNL     1       7.335  -9.186   3.186  0.00  0.00    +0.002 A 
BRANCH   6  12
ATOM     12  C   UNL     1       7.818  -7.845   5.244  0.00  0.00    -0.043 C 
BRANCH  12  18
ATOM     13  C   UNL     1       8.583  -3.071   6.009  0.00  0.00    +0.005 C 
ATOM     14  C   UNL     1       7.664  -4.096   5.342  0.00  0.00    -0.031 C 
ATOM     15  C   UNL     1       6.241  -3.939   5.885  0.00  0.00    -0.001 C 
ATOM     16  C   UNL     1       5.348  -5.020   5.270  0.00  0.00    -0.018 C 
ATOM     17  C   UNL     1       5.937  -6.397   5.580  0.00  0.00    -0.078 C 
ATOM     18  N   UNL     1       7.287  -6.495   5.012  0.00  0.00    +0.383 N 
ATOM     19  C   UNL     1       8.169  -5.508   5.648  0.00  0.00    -0.075 C 
ATOM     20  H   UNL     1       7.247  -6.317   4.019  0.00  0.00    -0.081 HD
ENDBRANCH  12  18
ENDBRANCH   6  12
ENDBRANCH   5   9
ENDBRANCH   1   5
BRANCH   2  21
ATOM     21  C   UNL     1       1.622 -10.979   0.084  0.00  0.00    +0.227 C 
BRANCH  21  22
ATOM     22  N   UNL     1       0.819 -11.954  -0.657  0.00  0.00    -0.194 N 
BRANCH  22  23
ATOM     23  C   UNL     1      -0.235 -12.617  -0.023  0.00  0.00    +0.052 A 
ATOM     24  C   UNL     1      -0.155 -13.983   0.216  0.00  0.00    +0.025 A 
ATOM     25  C   UNL     1      -1.199 -14.635   0.844  0.00  0.00    +0.002 A 
ATOM     26  C   UNL     1      -2.322 -13.929   1.234  0.00  0.00    +0.000 A 
ATOM     27  C   UNL     1      -2.404 -12.569   0.998  0.00  0.00    +0.002 A 
ATOM     28  C   UNL     1      -1.362 -11.910   0.376  0.00  0.00    +0.025 A 
ENDBRANCH  22  23
BRANCH  22  29
ATOM     29  S   UNL     1       1.159 -12.272  -2.246  0.00  0.00    +0.075 S 
ATOM     30  O   UNL     1       0.007 -12.901  -2.791  0.00  0.00    -0.150 OA
ATOM     31  O   UNL     1       1.705 -11.078  -2.791  0.00  0.00    -0.150 OA
BRANCH  29  32
ATOM     32  C   UNL     1       2.449 -13.473  -2.273  0.00  0.00    +0.109 A 
ATOM     33  C   UNL     1       3.766 -13.076  -2.140  0.00  0.00    +0.029 A 
ATOM     34  C   UNL     1       4.777 -14.018  -2.161  0.00  0.00    +0.002 A 
ATOM     35  C   UNL     1       4.471 -15.357  -2.314  0.00  0.00    +0.000 A 
ATOM     36  C   UNL     1       3.154 -15.754  -2.446  0.00  0.00    +0.002 A 
ATOM     37  C   UNL     1       2.142 -14.813  -2.420  0.00  0.00    +0.029 A 
ENDBRANCH  29  32
ENDBRANCH  22  29
ENDBRANCH  21  22
ENDBRANCH   2  21
TORSDOF 9
