REMARK  Name = ZINC63141407
REMARK  4 active torsions:
REMARK  status: ('A' for Active; 'I' for Inactive)
REMARK    1  A    between atoms: C_4  and  C_7
REMARK    2  A    between atoms: C_7  and  C_8
REMARK    3  A    between atoms: C_8  and  N_9
REMARK    4  A    between atoms: C_29  and  C_31
REMARK                            x       y       z     vdW  Elec       q    Type
REMARK                         _______ _______ _______ _____ _____    ______ ____
ROOT
ATOM      1  N   UNL     1       5.450  -1.678   1.382  0.00  0.00    -0.291 N 
ATOM      2  C   UNL     1       5.512  -3.151   1.368  0.00  0.00    +0.203 C 
ATOM      3  C   UNL     1       6.524  -3.579   0.326  0.00  0.00    +0.234 C 
ATOM      4  O   UNL     1       6.297  -4.490  -0.443  0.00  0.00    -0.274 OA
ATOM      5  N   UNL     1       7.711  -2.889   0.291  0.00  0.00    -0.279 N 
ATOM      6  C   UNL     1       7.874  -1.882   1.319  0.00  0.00    +0.167 C 
ATOM      7  C   UNL     1       6.643  -1.014   1.373  0.00  0.00    +0.237 C 
ATOM      8  O   UNL     1       6.708   0.197   1.409  0.00  0.00    -0.274 OA
ATOM      9  C   UNL     1       9.146  -1.075   1.333  0.00  0.00    +0.065 C 
ATOM     10  C   UNL     1       9.936  -1.342   0.081  0.00  0.00    -0.034 C 
ATOM     11  C   UNL     1      10.625  -0.544  -0.723  0.00  0.00    -0.001 A 
ATOM     12  C   UNL     1      10.911   0.899  -0.664  0.00  0.00    +0.010 A 
ATOM     13  C   UNL     1      11.657   1.405  -1.681  0.00  0.00    +0.001 A 
ATOM     14  C   UNL     1      12.143   0.630  -2.738  0.00  0.00    +0.002 A 
ATOM     15  C   UNL     1      11.933  -0.704  -2.871  0.00  0.00    +0.026 A 
ATOM     16  C   UNL     1      11.163  -1.351  -1.860  0.00  0.00    +0.043 A 
ATOM     17  N   UNL     1      10.823  -2.598  -1.733  0.00  0.00    -0.375 N 
ATOM     18  C   UNL     1      10.051  -2.752  -0.494  0.00  0.00    +0.131 C 
ATOM     19  C   UNL     1       8.632  -3.210  -0.789  0.00  0.00    +0.133 C 
ATOM     20  H   UNL     1      11.042  -3.310  -2.355  0.00  0.00    +0.160 HD
ENDROOT
BRANCH  19  21
ATOM     21  C   UNL     1       8.181  -2.506  -2.043  0.00  0.00    -0.024 A 
ATOM     22  C   UNL     1       7.705  -1.210  -1.975  0.00  0.00    +0.005 A 
ATOM     23  C   UNL     1       7.292  -0.563  -3.124  0.00  0.00    +0.001 A 
ATOM     24  C   UNL     1       7.355  -1.212  -4.343  0.00  0.00    +0.015 A 
ATOM     25  C   UNL     1       7.832  -2.508  -4.413  0.00  0.00    +0.018 A 
ATOM     26  C   UNL     1       8.251  -3.153  -3.262  0.00  0.00    +0.020 A 
ATOM     27 BR   UNL     1       7.919  -3.396  -6.080  0.00  0.00    -0.050 Br
ENDBRANCH  19  21
BRANCH   1  28
ATOM     28  C   UNL     1       4.171  -0.963   1.399  0.00  0.00    +0.113 C 
BRANCH  28  29
ATOM     29  C   UNL     1       3.711  -0.707  -0.038  0.00  0.00    +0.054 C 
BRANCH  29  33
ATOM     30  C   UNL     1      -0.017   1.378   0.010  0.00  0.00    +0.000 A 
ATOM     31  C   UNL     1       1.171   2.086   0.002  0.00  0.00    +0.000 A 
ATOM     32  C   UNL     1       2.377   1.411  -0.013  0.00  0.00    +0.004 A 
ATOM     33  C   UNL     1       2.396   0.029  -0.020  0.00  0.00    -0.046 A 
ATOM     34  C   UNL     1       1.208  -0.679  -0.012  0.00  0.00    +0.004 A 
ATOM     35  C   UNL     1       0.002  -0.004   0.002  0.00  0.00    +0.000 A 
ENDBRANCH  29  33
ENDBRANCH  28  29
ENDBRANCH   1  28
TORSDOF 4
