REMARK  Name = ZINC35746049
REMARK  13 active torsions:
REMARK  status: ('A' for Active; 'I' for Inactive)
REMARK    1  A    between atoms: C_1  and  C_2
REMARK    2  A    between atoms: C_2  and  C_3
REMARK    3  A    between atoms: C_2  and  C_4
REMARK    4  A    between atoms: C_2  and  O_5
REMARK    5  A    between atoms: O_5  and  C_6
REMARK    6  A    between atoms: C_6  and  C_7
REMARK    7  A    between atoms: C_7  and  C_9
REMARK    8  A    between atoms: C_7  and  O_33
REMARK    9  A    between atoms: C_9  and  N_10
REMARK   10  A    between atoms: N_10  and  C_11
REMARK   11  A    between atoms: N_10  and  C_30
REMARK   12  A    between atoms: C_11  and  C_12
REMARK   13  A    between atoms: C_18  and  C_23
REMARK                            x       y       z     vdW  Elec       q    Type
REMARK                         _______ _______ _______ _____ _____    ______ ____
ROOT
ATOM      1  C   UNL     1       6.481  -0.276  -5.442  0.00  0.00    +0.094 A 
ATOM      2  N   UNL     1       7.754   0.120  -5.696  0.00  0.00    -0.312 N 
ATOM      3  H   UNL     1       8.236   0.629  -5.025  0.00  0.00    +0.170 HD
ATOM      4  C   UNL     1       8.360  -0.179  -6.860  0.00  0.00    +0.260 A 
ATOM      5  O   UNL     1       9.505   0.184  -7.072  0.00  0.00    -0.267 OA
ATOM      6  C   UNL     1       7.641  -0.929  -7.844  0.00  0.00    +0.080 A 
ATOM      7  C   UNL     1       8.074  -1.372  -9.164  0.00  0.00    +0.006 A 
ATOM      8  C   UNL     1       7.209  -2.080  -9.929  0.00  0.00    +0.056 A 
ATOM      9  S   UNL     1       5.751  -2.192  -8.909  0.00  0.00    -0.076 S 
ATOM     10  C   UNL     1       6.332  -1.295  -7.493  0.00  0.00    +0.116 A 
ATOM     11  N   UNL     1       5.801  -0.966  -6.318  0.00  0.00    -0.229 NA
ENDROOT
BRANCH   7  12
ATOM     12  C   UNL     1       9.434  -1.054  -9.659  0.00  0.00    +0.019 A 
ATOM     13  C   UNL     1       9.600  -0.214 -10.760  0.00  0.00    +0.011 A 
ATOM     14  C   UNL     1      10.868   0.079 -11.216  0.00  0.00    +0.001 A 
ATOM     15  C   UNL     1      11.976  -0.457 -10.585  0.00  0.00    +0.003 A 
ATOM     16  C   UNL     1      11.820  -1.291  -9.493  0.00  0.00    +0.039 A 
ATOM     17  C   UNL     1      10.555  -1.588  -9.022  0.00  0.00    +0.131 A 
ATOM     18  F   UNL     1      10.404  -2.399  -7.952  0.00  0.00    -0.205 F 
ENDBRANCH   7  12
BRANCH   1  19
ATOM     19  C   UNL     1       5.843   0.081  -4.124  0.00  0.00    -0.003 C 
BRANCH  19  20
ATOM     20  N   UNL     1       4.477  -0.458  -4.079  0.00  0.00    +0.388 N 
ATOM     21  H   UNL     1       3.959  -0.128  -4.880  0.00  0.00    -0.081 HD
BRANCH  20  22
ATOM     22  C   UNL     1       4.529  -1.926  -4.101  0.00  0.00    -0.068 C 
ATOM     23  C   UNL     1       3.895  -2.638  -5.297  0.00  0.00    -0.017 C 
ATOM     24  C   UNL     1       3.210  -2.682  -3.930  0.00  0.00    -0.017 C 
ENDBRANCH  20  22
BRANCH  20  25
ATOM     25  C   UNL     1       3.814  -0.009  -2.848  0.00  0.00    -0.044 C 
BRANCH  25  26
ATOM     26  C   UNL     1       3.626   1.508  -2.893  0.00  0.00    +0.124 C 
BRANCH  26  27
ATOM     27  O   UNL     1       2.810   1.854  -4.015  0.00  0.00    -0.391 OA
ATOM     28  H   UNL     1       1.928   1.457  -3.997  0.00  0.00    +0.210 HD
ENDBRANCH  26  27
BRANCH  26  29
ATOM     29  C   UNL     1       2.946   1.977  -1.605  0.00  0.00    +0.189 C 
BRANCH  29  30
ATOM     30  O   UNL     1       2.876   3.404  -1.596  0.00  0.00    -0.372 OA
BRANCH  30  32
ATOM     31  C   UNL     1       3.044   3.527   0.812  0.00  0.00    +0.041 C 
ATOM     32  C   UNL     1       2.255   3.948  -0.429  0.00  0.00    +0.061 C 
ATOM     33  C   UNL     1       0.821   3.425  -0.324  0.00  0.00    +0.041 C 
ATOM     34  C   UNL     1       2.234   5.475  -0.527  0.00  0.00    +0.041 C 
ENDBRANCH  30  32
ENDBRANCH  29  30
ENDBRANCH  26  29
ENDBRANCH  25  26
ENDBRANCH  20  25
ENDBRANCH  19  20
ENDBRANCH   1  19
TORSDOF 10
