REMARK  Name = ZINC13148177
REMARK  7 active torsions:
REMARK  status: ('A' for Active; 'I' for Inactive)
REMARK    1  A    between atoms: C_6  and  C_33
REMARK    2  A    between atoms: C_7  and  N_9
REMARK    3  A    between atoms: C_10  and  C_12
REMARK    4  A    between atoms: C_12  and  O_13
REMARK    5  A    between atoms: O_13  and  C_14
REMARK    6  A    between atoms: C_14  and  C_16
REMARK    7  A    between atoms: C_16  and  N_17
REMARK                            x       y       z     vdW  Elec       q    Type
REMARK                         _______ _______ _______ _____ _____    ______ ____
ROOT
ATOM      1  N   UNL     1       1.957  -3.299   3.385  0.00  0.00    -0.277 N 
ATOM      2  C   UNL     1       2.878  -3.388   4.364  0.00  0.00    +0.255 C 
ATOM      3  O   UNL     1       3.555  -2.423   4.650  0.00  0.00    -0.272 OA
ATOM      4  H   UNL     1       1.415  -4.071   3.156  0.00  0.00    +0.155 HD
ENDROOT
BRANCH   1  11
ATOM      5  C   UNL     1      -0.019   1.526   0.010  0.00  0.00    +0.005 C 
ATOM      6  C   UNL     1       1.414   2.067  -0.000  0.00  0.00    +0.005 C 
ATOM      7  C   UNL     1       2.067   1.772   1.358  0.00  0.00    +0.043 C 
ATOM      8  C   UNL     1       1.810   0.337   1.702  0.00  0.00    -0.004 A 
ATOM      9  C   UNL     1       0.907  -0.486   1.127  0.00  0.00    -0.023 A 
ATOM     10  C   UNL     1       0.892  -1.829   1.677  0.00  0.00    +0.068 A 
ATOM     11  C   UNL     1       1.783  -2.104   2.703  0.00  0.00    +0.084 A 
ATOM     12  S   UNL     1       2.603  -0.656   2.932  0.00  0.00    -0.077 S 
ATOM     13  C   UNL     1       0.002  -0.004   0.002  0.00  0.00    +0.037 C 
BRANCH  10  14
ATOM     14  C   UNL     1      -0.027  -2.853   1.169  0.00  0.00    +0.244 C 
ATOM     15  O   UNL     1       0.315  -3.576   0.252  0.00  0.00    -0.270 OA
ATOM     16  N   UNL     1      -1.249  -2.994   1.719  0.00  0.00    -0.325 N 
ATOM     17  H   UNL     1      -1.521  -2.418   2.451  0.00  0.00    +0.145 HD
ATOM     18  H   UNL     1      -1.857  -3.671   1.383  0.00  0.00    +0.145 HD
ENDBRANCH  10  14
ENDBRANCH   1  11
BRANCH   2  19
ATOM     19  C   UNL     1       3.067  -4.687   5.104  0.00  0.00    +0.328 C 
BRANCH  19  20
ATOM     20  O   UNL     1       4.093  -4.530   6.087  0.00  0.00    -0.454 OA
BRANCH  20  21
ATOM     21  C   UNL     1       4.386  -5.604   6.838  0.00  0.00    +0.326 C 
ATOM     22  O   UNL     1       3.791  -6.641   6.668  0.00  0.00    -0.249 OA
BRANCH  21  23
ATOM     23  C   UNL     1       5.457  -5.514   7.895  0.00  0.00    +0.236 C 
BRANCH  23  24
ATOM     24  N   UNL     1       5.585  -6.807   8.571  0.00  0.00    -0.231 N 
ATOM     25  C   UNL     1       4.864  -7.161   9.687  0.00  0.00    +0.227 C 
ATOM     26  O   UNL     1       3.852  -6.645  10.110  0.00  0.00    -0.275 OA
ATOM     27  C   UNL     1       5.611  -8.331  10.265  0.00  0.00    +0.095 C 
ATOM     28  C   UNL     1       4.896  -9.540  10.879  0.00  0.00    +0.025 C 
ATOM     29  C   UNL     1       6.120 -10.545  10.678  0.00  0.00    +0.016 C 
ATOM     30  C   UNL     1       6.071 -10.434   9.098  0.00  0.00    +0.025 C 
ATOM     31  C   UNL     1       5.914  -8.958   8.842  0.00  0.00    +0.095 C 
ATOM     32  C   UNL     1       6.443  -7.812   8.154  0.00  0.00    +0.227 C 
ATOM     33  O   UNL     1       7.393  -7.744   7.404  0.00  0.00    -0.275 OA
ATOM     34  C   UNL     1       4.569 -10.829   8.936  0.00  0.00    -0.027 C 
ATOM     35  C   UNL     1       3.920 -10.213   9.934  0.00  0.00    -0.027 C 
ENDBRANCH  23  24
ENDBRANCH  21  23
ENDBRANCH  20  21
ENDBRANCH  19  20
ENDBRANCH   2  19
TORSDOF 7
