REMARK  Name = ZINC13495869
REMARK  10 active torsions:
REMARK  status: ('A' for Active; 'I' for Inactive)
REMARK    1  A    between atoms: C_1  and  C_2
REMARK    2  A    between atoms: C_2  and  C_3
REMARK    3  A    between atoms: C_3  and  C_5
REMARK    4  A    between atoms: C_3  and  N_69
REMARK    5  A    between atoms: N_9  and  C_10
REMARK    6  A    between atoms: C_15  and  C_16
REMARK    7  A    between atoms: C_15  and  N_69
REMARK    8  A    between atoms: C_16  and  C_17
REMARK    9  A    between atoms: C_23  and  C_24
REMARK   10  A    between atoms: C_23  and  N_69
REMARK                            x       y       z     vdW  Elec       q    Type
REMARK                         _______ _______ _______ _____ _____    ______ ____
ROOT
ATOM      1  N   UNL     1       4.004   2.365  -1.072  0.00  0.00    +0.389 N 
ATOM      2  H   UNL     1       3.426   3.190  -1.270  0.00  0.00    -0.080 HD
ENDROOT
BRANCH   1   3
ATOM      3  C   UNL     1       3.790   1.361  -2.135  0.00  0.00    +0.003 C 
BRANCH   3   4
ATOM      4  C   UNL     1       5.024   0.516  -2.317  0.00  0.00    +0.138 A 
ATOM      5  N   UNL     1       6.213   0.934  -2.679  0.00  0.00    -0.115 NA
ATOM      6  N   UNL     1       6.998  -0.087  -2.720  0.00  0.00    -0.023 NA
ATOM      7  N   UNL     1       6.341  -1.145  -2.394  0.00  0.00    -0.044 NA
ATOM      8  N   UNL     1       5.122  -0.814  -2.133  0.00  0.00    -0.228 N 
BRANCH   8   9
ATOM      9  C   UNL     1       4.045  -1.716  -1.718  0.00  0.00    +0.111 C 
ATOM     10  C   UNL     1       4.442  -2.453  -0.422  0.00  0.00    +0.027 C 
ATOM     11  C   UNL     1       3.860  -3.877  -0.602  0.00  0.00    +0.002 C 
ATOM     12  C   UNL     1       4.092  -4.156  -2.107  0.00  0.00    +0.002 C 
ATOM     13  C   UNL     1       3.822  -2.799  -2.789  0.00  0.00    +0.027 C 
ENDBRANCH   8   9
ENDBRANCH   3   4
BRANCH   3  15
ATOM     14  C   UNL     1       2.127   2.803  -3.318  0.00  0.00    +0.002 C 
ATOM     15  C   UNL     1       3.477   2.094  -3.442  0.00  0.00    -0.011 C 
ENDBRANCH   3  15
ENDBRANCH   1   3
BRANCH   1  16
ATOM     16  C   UNL     1       5.425   2.771  -1.040  0.00  0.00    -0.073 C 
BRANCH  16  17
ATOM     17  C   UNL     1       5.723   3.618  -2.279  0.00  0.00    +0.016 C 
BRANCH  17  18
ATOM     18  C   UNL     1       7.116   4.183  -2.178  0.00  0.00    -0.049 A 
ATOM     19  C   UNL     1       7.321   5.413  -1.580  0.00  0.00    +0.003 A 
ATOM     20  C   UNL     1       8.600   5.929  -1.482  0.00  0.00    +0.000 A 
ATOM     21  C   UNL     1       9.672   5.221  -1.993  0.00  0.00    +0.000 A 
ATOM     22  C   UNL     1       9.466   3.995  -2.596  0.00  0.00    +0.000 A 
ATOM     23  C   UNL     1       8.189   3.475  -2.688  0.00  0.00    +0.003 A 
ENDBRANCH  17  18
ENDBRANCH  16  17
ENDBRANCH   1  16
BRANCH   1  24
ATOM     24  C   UNL     1       3.609   1.806   0.238  0.00  0.00    -0.037 C 
BRANCH  24  25
ATOM     25  C   UNL     1       2.105   1.734   0.300  0.00  0.00    +0.001 A 
ATOM     26  C   UNL     1       1.469   0.583  -0.035  0.00  0.00    +0.017 A 
ATOM     27  C   UNL     1       0.009   0.545   0.035  0.00  0.00    +0.002 A 
ATOM     28  C   UNL     1      -0.701  -0.615  -0.300  0.00  0.00    +0.059 A 
ATOM     29  C   UNL     1      -2.076  -0.621  -0.222  0.00  0.00    +0.167 A 
ATOM     30  C   UNL     1      -2.764   0.527   0.192  0.00  0.00    +0.168 A 
ATOM     31  C   UNL     1      -2.072   1.677   0.523  0.00  0.00    +0.075 A 
ATOM     32  C   UNL     1      -0.685   1.699   0.449  0.00  0.00    +0.053 A 
ATOM     33  N   UNL     1       0.023   2.838   0.776  0.00  0.00    -0.322 N 
ATOM     34  H   UNL     1      -0.456   3.635   1.055  0.00  0.00    +0.169 HD
ATOM     35  C   UNL     1       1.365   2.863   0.706  0.00  0.00    +0.251 A 
ATOM     36  O   UNL     1       1.957   3.887   1.002  0.00  0.00    -0.268 OA
ATOM     37  O   UNL     1      -4.101   0.255   0.184  0.00  0.00    -0.453 OA
ATOM     38  C   UNL     1      -4.204  -1.180   0.160  0.00  0.00    +0.466 C 
ATOM     39  O   UNL     1      -2.989  -1.602  -0.486  0.00  0.00    -0.453 OA
ENDBRANCH  24  25
ENDBRANCH   1  24
TORSDOF 9
