REMARK  Name = ZINC36205324
REMARK  10 active torsions:
REMARK  status: ('A' for Active; 'I' for Inactive)
REMARK    1  A    between atoms: C_1  and  C_2
REMARK    2  A    between atoms: C_5  and  C_9
REMARK    3  A    between atoms: C_7  and  C_8
REMARK    4  A    between atoms: C_18  and  C_20
REMARK    5  A    between atoms: C_20  and  N_21
REMARK    6  A    between atoms: N_21  and  C_22
REMARK    7  A    between atoms: N_21  and  C_32
REMARK    8  A    between atoms: C_22  and  C_23
REMARK    9  A    between atoms: C_23  and  C_25
REMARK   10  A    between atoms: C_23  and  O_31
REMARK                            x       y       z     vdW  Elec       q    Type
REMARK                         _______ _______ _______ _____ _____    ______ ____
ROOT
ATOM      1  C   UNL     1       0.331  -4.391  -0.097  0.00  0.00    +0.004 A 
ATOM      2  C   UNL     1       1.274  -5.111   0.557  0.00  0.00    +0.056 A 
ATOM      3  S   UNL     1       0.879  -6.795   0.128  0.00  0.00    -0.076 S 
ATOM      4  C   UNL     1      -0.530  -6.497  -0.908  0.00  0.00    +0.116 A 
ATOM      5  C   UNL     1      -0.664  -5.099  -0.893  0.00  0.00    +0.080 A 
ATOM      6  C   UNL     1      -1.751  -4.572  -1.662  0.00  0.00    +0.260 A 
ATOM      7  O   UNL     1      -1.946  -3.370  -1.714  0.00  0.00    -0.267 OA
ATOM      8  N   UNL     1      -2.553  -5.424  -2.326  0.00  0.00    -0.309 N 
ATOM      9  H   UNL     1      -3.291  -5.073  -2.849  0.00  0.00    +0.170 HD
ATOM     10  C   UNL     1      -2.350  -6.766  -2.280  0.00  0.00    +0.125 A 
ATOM     11  N   UNL     1      -1.361  -7.276  -1.595  0.00  0.00    -0.225 NA
ENDROOT
BRANCH   1  16
ATOM     12  C   UNL     1       0.237   1.354   0.282  0.00  0.00    +0.044 C 
ATOM     13  C   UNL     1       0.262  -0.149   0.183  0.00  0.00    -0.048 A 
ATOM     14  C   UNL     1       0.202  -0.759  -1.058  0.00  0.00    +0.004 A 
ATOM     15  C   UNL     1       0.225  -2.135  -1.155  0.00  0.00    +0.009 A 
ATOM     16  C   UNL     1       0.307  -2.912   0.001  0.00  0.00    -0.016 A 
ATOM     17  C   UNL     1       0.367  -2.292   1.248  0.00  0.00    +0.012 A 
ATOM     18  C   UNL     1       0.350  -0.914   1.332  0.00  0.00    -0.047 A 
ATOM     19  C   UNL     1       0.421  -0.242   2.679  0.00  0.00    +0.044 C 
ENDBRANCH   1  16
BRANCH  10  20
ATOM     20  C   UNL     1      -3.274  -7.682  -3.040  0.00  0.00    +0.159 C 
BRANCH  20  21
ATOM     21  N   UNL     1      -2.931  -9.079  -2.744  0.00  0.00    -0.290 NA
BRANCH  21  22
ATOM     22  C   UNL     1      -3.454  -9.980  -3.780  0.00  0.00    +0.057 C 
ATOM     23  C   UNL     1      -2.453 -10.883  -4.503  0.00  0.00    +0.020 C 
ATOM     24  C   UNL     1      -3.071  -9.687  -5.231  0.00  0.00    +0.020 C 
ENDBRANCH  21  22
BRANCH  21  25
ATOM     25  C   UNL     1      -3.414  -9.470  -1.413  0.00  0.00    +0.121 C 
BRANCH  25  26
ATOM     26  C   UNL     1      -2.830 -10.833  -1.038  0.00  0.00    +0.158 C 
BRANCH  26  27
ATOM     27  C   UNL     1      -3.325 -11.233   0.327  0.00  0.00    -0.018 A 
ATOM     28  C   UNL     1      -4.543 -11.873   0.460  0.00  0.00    +0.006 A 
ATOM     29  C   UNL     1      -4.998 -12.240   1.713  0.00  0.00    +0.000 A 
ATOM     30  C   UNL     1      -4.234 -11.969   2.833  0.00  0.00    +0.000 A 
ATOM     31  C   UNL     1      -3.015 -11.330   2.700  0.00  0.00    +0.000 A 
ATOM     32  C   UNL     1      -2.559 -10.966   1.446  0.00  0.00    +0.006 A 
ENDBRANCH  26  27
BRANCH  26  33
ATOM     33  O   UNL     1      -3.241 -11.808  -1.999  0.00  0.00    -0.386 OA
ATOM     34  H   UNL     1      -4.200 -11.916  -2.064  0.00  0.00    +0.210 HD
ENDBRANCH  26  33
ENDBRANCH  25  26
ENDBRANCH  21  25
ENDBRANCH  20  21
ENDBRANCH  10  20
TORSDOF 8
