REMARK  Name = ZINC39636051
REMARK  7 active torsions:
REMARK  status: ('A' for Active; 'I' for Inactive)
REMARK    1  A    between atoms: C_1  and  C_2
REMARK    2  A    between atoms: C_4  and  C_7
REMARK    3  A    between atoms: C_8  and  C_13
REMARK    4  A    between atoms: C_9  and  C_12
REMARK    5  A    between atoms: C_17  and  C_26
REMARK    6  A    between atoms: N_28  and  C_29
REMARK    7  A    between atoms: C_35  and  C_37
REMARK                            x       y       z     vdW  Elec       q    Type
REMARK                         _______ _______ _______ _____ _____    ______ ____
ROOT
ATOM      1  C   UNL     1       0.444  -5.135  -0.206  0.00  0.00    +0.252 C 
ATOM      2  O   UNL     1       1.087  -5.469   0.770  0.00  0.00    -0.270 OA
ATOM      3  N   UNL     1       1.006  -5.179  -1.431  0.00  0.00    -0.296 N 
ATOM      4  C   UNL     1       0.423  -4.721  -2.714  0.00  0.00    +0.121 C 
ATOM      5  C   UNL     1       1.603  -4.066  -3.466  0.00  0.00    +0.100 C 
ATOM      6  C   UNL     1       2.861  -4.711  -2.862  0.00  0.00    -0.004 C 
ATOM      7  C   UNL     1       2.348  -5.691  -1.797  0.00  0.00    +0.115 C 
ATOM      8  C   UNL     1       3.740  -3.647  -2.211  0.00  0.00    -0.010 C 
ATOM      9  C   UNL     1       5.011  -4.305  -1.668  0.00  0.00    -0.082 C 
ATOM     10  N   UNL     1       5.733  -4.960  -2.766  0.00  0.00    +0.379 N 
ATOM     11  C   UNL     1       4.916  -6.044  -3.325  0.00  0.00    -0.082 C 
ATOM     12  C   UNL     1       3.640  -5.460  -3.938  0.00  0.00    -0.010 C 
ATOM     13  H   UNL     1       5.931  -4.284  -3.487  0.00  0.00    -0.086 HD
ATOM     14  H   UNL     1       6.600  -5.340  -2.417  0.00  0.00    -0.086 HD
ENDROOT
BRANCH   1  16
ATOM     15  C   UNL     1      -1.366  -3.393   0.251  0.00  0.00    +0.201 A 
ATOM     16  C   UNL     1      -0.948  -4.682  -0.051  0.00  0.00    +0.108 A 
ATOM     17  C   UNL     1      -2.112  -5.481  -0.181  0.00  0.00    +0.093 A 
ATOM     18  N   UNL     1      -3.148  -4.725   0.027  0.00  0.00    -0.082 NA
ATOM     19  O   UNL     1      -2.707  -3.410   0.306  0.00  0.00    -0.352 OA
ATOM     20  C   UNL     1      -2.142  -6.952  -0.506  0.00  0.00    +0.070 C 
BRANCH  15  24
ATOM     21  C   UNL     1       0.167   1.363   1.131  0.00  0.00    +0.089 C 
ATOM     22  C   UNL     1       0.165  -0.120   0.866  0.00  0.00    +0.135 A 
ATOM     23  C   UNL     1      -0.925  -0.891   0.708  0.00  0.00    +0.079 A 
ATOM     24  C   UNL     1      -0.494  -2.221   0.477  0.00  0.00    +0.152 A 
ATOM     25  N   UNL     1       0.819  -2.225   0.500  0.00  0.00    -0.075 NA
ATOM     26  O   UNL     1       1.252  -0.898   0.740  0.00  0.00    -0.359 OA
ENDBRANCH  15  24
ENDBRANCH   1  16
BRANCH   5  27
ATOM     27  C   UNL     1       1.610  -2.577  -3.234  0.00  0.00    +0.218 C 
ATOM     28  O   UNL     1       1.101  -2.116  -2.234  0.00  0.00    -0.275 OA
ATOM     29  N   UNL     1       2.183  -1.756  -4.137  0.00  0.00    -0.312 N 
ATOM     30  H   UNL     1       2.526  -2.116  -4.970  0.00  0.00    +0.149 HD
BRANCH  29  31
ATOM     31  C   UNL     1       2.288  -0.322  -3.860  0.00  0.00    +0.076 C 
ATOM     32  C   UNL     1       0.957   0.359  -4.184  0.00  0.00    +0.022 C 
ATOM     33  C   UNL     1       0.623   0.148  -5.663  0.00  0.00    +0.002 C 
ATOM     34  C   UNL     1       1.730   0.754  -6.527  0.00  0.00    +0.000 C 
ATOM     35  C   UNL     1       3.061   0.073  -6.203  0.00  0.00    +0.005 C 
ATOM     36  C   UNL     1       3.395   0.284  -4.725  0.00  0.00    +0.006 C 
ATOM     37  C   UNL     1       4.726  -0.396  -4.401  0.00  0.00    +0.009 C 
ENDBRANCH  29  31
ENDBRANCH   5  27
TORSDOF 4
