REMARK  Name = ZINC05663848
REMARK  10 active torsions:
REMARK  status: ('A' for Active; 'I' for Inactive)
REMARK    1  A    between atoms: C_4  and  C_7
REMARK    2  A    between atoms: C_7  and  N_54
REMARK    3  A    between atoms: C_8  and  C_9
REMARK    4  A    between atoms: C_8  and  N_54
REMARK    5  A    between atoms: C_9  and  O_10
REMARK    6  A    between atoms: C_11  and  C_12
REMARK    7  A    between atoms: C_11  and  N_54
REMARK    8  A    between atoms: C_12  and  O_13
REMARK    9  A    between atoms: O_13  and  C_14
REMARK   10  A    between atoms: C_17  and  O_30
REMARK                            x       y       z     vdW  Elec       q    Type
REMARK                         _______ _______ _______ _____ _____    ______ ____
ROOT
ATOM      1  C   UNL     1       1.649  -0.362   0.562  0.00  0.00    +0.132 A 
ATOM      2  C   UNL     1       0.521   0.444   0.711  0.00  0.00    +0.050 A 
ATOM      3  C   UNL     1       0.652   1.798   0.920  0.00  0.00    +0.050 A 
ATOM      4  C   UNL     1       1.915   2.386   0.988  0.00  0.00    +0.129 A 
ATOM      5  C   UNL     1       3.056   1.595   0.842  0.00  0.00    +0.078 A 
ATOM      6  C   UNL     1       2.922   0.207   0.628  0.00  0.00    +0.078 A 
ATOM      7  C   UNL     1       4.127  -0.628   0.476  0.00  0.00    +0.198 C 
ATOM      8  O   UNL     1       4.039  -1.764   0.051  0.00  0.00    -0.286 OA
ATOM      9  C   UNL     1       5.445  -0.069   0.848  0.00  0.00    +0.033 A 
ATOM     10  C   UNL     1       6.552  -0.899   0.991  0.00  0.00    +0.012 A 
ATOM     11  C   UNL     1       7.777  -0.358   1.339  0.00  0.00    +0.001 A 
ATOM     12  C   UNL     1       7.909   1.003   1.547  0.00  0.00    +0.001 A 
ATOM     13  C   UNL     1       6.818   1.843   1.410  0.00  0.00    +0.012 A 
ATOM     14  C   UNL     1       5.579   1.315   1.060  0.00  0.00    +0.033 A 
ATOM     15  C   UNL     1       4.400   2.197   0.910  0.00  0.00    +0.198 C 
ATOM     16  O   UNL     1       4.539   3.403   0.844  0.00  0.00    -0.286 OA
ENDROOT
BRANCH   4  17
ATOM     17  O   UNL     1       2.035   3.721   1.193  0.00  0.00    -0.506 OA
ATOM     18  H   UNL     1       2.086   3.972   2.126  0.00  0.00    +0.292 HD
ENDBRANCH   4  17
BRANCH   1  19
ATOM     19  O   UNL     1       1.510  -1.695   0.356  0.00  0.00    -0.493 OA
BRANCH  19  20
ATOM     20  C   UNL     1       0.178  -2.208   0.301  0.00  0.00    +0.210 C 
BRANCH  20  21
ATOM     21  C   UNL     1       0.222  -3.719   0.063  0.00  0.00    -0.037 C 
BRANCH  21  22
ATOM     22  N   UNL     1       0.870  -4.365   1.224  0.00  0.00    +0.386 N 
ATOM     23  H   UNL     1       1.766  -3.900   1.407  0.00  0.00    -0.081 HD
BRANCH  22  24
ATOM     24  C   UNL     1       1.120  -5.792   0.932  0.00  0.00    -0.043 C 
BRANCH  24  28
ATOM     25  C   UNL     1       4.560  -6.091  -1.583  0.00  0.00    +0.000 A 
ATOM     26  C   UNL     1       4.713  -5.978  -0.214  0.00  0.00    +0.000 A 
ATOM     27  C   UNL     1       3.599  -5.881   0.600  0.00  0.00    +0.002 A 
ATOM     28  C   UNL     1       2.334  -5.898   0.045  0.00  0.00    -0.064 A 
ATOM     29  C   UNL     1       2.181  -6.017  -1.324  0.00  0.00    +0.002 A 
ATOM     30  C   UNL     1       3.294  -6.109  -2.138  0.00  0.00    +0.000 A 
ENDBRANCH  24  28
ENDBRANCH  22  24
BRANCH  22  31
ATOM     31  C   UNL     1       0.009  -4.237   2.419  0.00  0.00    -0.050 C 
BRANCH  31  32
ATOM     32  C   UNL     1       0.842  -4.560   3.661  0.00  0.00    +0.137 C 
BRANCH  32  33
ATOM     33  O   UNL     1       1.894  -3.602   3.792  0.00  0.00    -0.397 OA
ATOM     34  H   UNL     1       2.463  -3.745   4.560  0.00  0.00    +0.209 HD
ENDBRANCH  32  33
ENDBRANCH  31  32
ENDBRANCH  22  31
ENDBRANCH  21  22
ENDBRANCH  20  21
ENDBRANCH  19  20
ENDBRANCH   1  19
TORSDOF 10
