REMARK  Name = ZINC02126752
REMARK  10 active torsions:
REMARK  status: ('A' for Active; 'I' for Inactive)
REMARK    1  A    between atoms: C_1  and  N_2
REMARK    2  A    between atoms: C_5  and  C_12
REMARK    3  A    between atoms: C_5  and  C_23
REMARK    4  A    between atoms: N_8  and  C_11
REMARK    5  A    between atoms: C_12  and  C_13
REMARK    6  A    between atoms: C_16  and  O_21
REMARK    7  A    between atoms: C_18  and  O_19
REMARK    8  A    between atoms: O_19  and  C_20
REMARK    9  A    between atoms: O_21  and  C_22
REMARK   10  A    between atoms: C_23  and  N_69
REMARK                            x       y       z     vdW  Elec       q    Type
REMARK                         _______ _______ _______ _____ _____    ______ ____
ROOT
ATOM      1  C   UNL     1      -4.295   1.870  -0.681  0.00  0.00    +0.140 C 
ATOM      2  N   UNL     1      -2.932   2.306  -0.991  0.00  0.00    -0.255 N 
ATOM      3  C   UNL     1      -1.930   1.402  -0.952  0.00  0.00    +0.234 C 
ATOM      4  O   UNL     1      -2.141   0.242  -0.667  0.00  0.00    -0.274 OA
ATOM      5  C   UNL     1      -0.531   1.890  -1.278  0.00  0.00    +0.113 C 
ATOM      6  C   UNL     1      -0.402   3.364  -1.617  0.00  0.00    +0.234 C 
ATOM      7  O   UNL     1       0.673   3.853  -1.890  0.00  0.00    -0.274 OA
ATOM      8  N   UNL     1      -1.522   4.111  -1.605  0.00  0.00    -0.255 N 
ATOM      9  C   UNL     1      -2.716   3.589  -1.303  0.00  0.00    +0.148 C 
ATOM     10  S   UNL     1      -4.067   4.640  -1.318  0.00  0.00    -0.018 S 
ATOM     11  C   UNL     1      -1.430   5.536  -1.929  0.00  0.00    +0.140 C 
ENDROOT
BRANCH   5  12
ATOM     12  C   UNL     1       0.368   1.597  -0.076  0.00  0.00    +0.062 C 
BRANCH  12  13
ATOM     13  C   UNL     1      -0.117   2.379   1.117  0.00  0.00    -0.004 A 
ATOM     14  C   UNL     1       0.450   3.603   1.417  0.00  0.00    +0.011 A 
ATOM     15  C   UNL     1       0.003   4.326   2.507  0.00  0.00    +0.046 A 
ATOM     16  C   UNL     1      -1.008   3.818   3.310  0.00  0.00    +0.124 A 
ATOM     17  C   UNL     1      -1.574   2.587   3.015  0.00  0.00    +0.091 A 
ATOM     18  C   UNL     1      -1.129   1.867   1.917  0.00  0.00    +0.127 A 
BRANCH  18  19
ATOM     19  O   UNL     1      -1.681   0.660   1.625  0.00  0.00    -0.495 OA
ATOM     20  C   UNL     1      -2.718   0.195   2.492  0.00  0.00    +0.277 C 
ENDBRANCH  18  19
BRANCH  16  21
ATOM     21  O   UNL     1      -1.443   4.526   4.386  0.00  0.00    -0.495 OA
ATOM     22  C   UNL     1      -0.814   5.786   4.630  0.00  0.00    +0.277 C 
ENDBRANCH  16  21
ENDBRANCH  12  13
ENDBRANCH   5  12
BRANCH   5  23
ATOM     23  C   UNL     1      -0.010   1.081  -2.468  0.00  0.00    -0.053 C 
BRANCH  23  37
ATOM     24  C   UNL     1      -2.097   0.846  -3.669  0.00  0.00    -0.074 C 
ATOM     25  C   UNL     1      -2.897   1.274  -4.890  0.00  0.00    -0.007 C 
ATOM     26  C   UNL     1      -2.138   0.946  -6.178  0.00  0.00    +0.011 C 
ATOM     27  C   UNL     1      -0.775   1.643  -6.103  0.00  0.00    +0.020 C 
ATOM     28  C   UNL     1      -0.017   1.077  -4.891  0.00  0.00    -0.069 C 
ATOM     29  C   UNL     1      -0.986   3.120  -5.859  0.00  0.00    +0.023 A 
ATOM     30  C   UNL     1      -0.041   3.976  -6.331  0.00  0.00    +0.022 A 
ATOM     31  C   UNL     1      -0.139   5.349  -6.084  0.00  0.00    +0.007 A 
ATOM     32  C   UNL     1      -1.185   5.812  -5.341  0.00  0.00    +0.070 A 
ATOM     33  C   UNL     1      -2.140   4.903  -4.866  0.00  0.00    +0.251 A 
ATOM     34  O   UNL     1      -3.046   5.297  -4.149  0.00  0.00    -0.268 OA
ATOM     35  N   UNL     1      -2.069   3.590  -5.198  0.00  0.00    -0.312 N 
ATOM     36  C   UNL     1      -3.224   2.757  -4.860  0.00  0.00    +0.126 C 
ATOM     37  N   UNL     1      -0.762   1.478  -3.675  0.00  0.00    +0.381 N 
ATOM     38  H   UNL     1      -0.876   2.498  -3.676  0.00  0.00    -0.082 HD
ENDBRANCH  23  37
ENDBRANCH   5  23
TORSDOF 6
