REMARK  Name = ZINC36737674
REMARK  4 active torsions:
REMARK  status: ('A' for Active; 'I' for Inactive)
REMARK    1  A    between atoms: C_6  and  C_7
REMARK    2  A    between atoms: C_7  and  C_8
REMARK    3  A    between atoms: N_10  and  C_11
REMARK    4  A    between atoms: C_13  and  N_18
REMARK                            x       y       z     vdW  Elec       q    Type
REMARK                         _______ _______ _______ _____ _____    ______ ____
ROOT
ATOM      1  C   UNL     1      -1.735  -1.030  -1.408  0.00  0.00    +0.222 C 
ATOM      2  O   UNL     1      -1.069  -0.618  -2.335  0.00  0.00    -0.275 OA
ATOM      3  N   UNL     1      -2.879  -1.701  -1.647  0.00  0.00    -0.284 N 
ATOM      4  H   UNL     1      -3.378  -2.086  -0.909  0.00  0.00    +0.155 HD
ENDROOT
BRANCH   3   5
ATOM      5  C   UNL     1      -3.347  -1.842  -2.958  0.00  0.00    +0.054 A 
ATOM      6  C   UNL     1      -2.448  -1.983  -4.005  0.00  0.00    +0.047 A 
ATOM      7  C   UNL     1      -2.916  -2.123  -5.304  0.00  0.00    +0.026 A 
ATOM      8  C   UNL     1      -4.283  -2.121  -5.553  0.00  0.00    +0.024 A 
ATOM      9  C   UNL     1      -5.176  -1.980  -4.508  0.00  0.00    +0.023 A 
ATOM     10  C   UNL     1      -4.714  -1.847  -3.212  0.00  0.00    +0.062 A 
ATOM     11 CL   UNL     1      -5.840  -1.678  -1.902  0.00  0.00    -0.082 Cl
BRANCH   7  12
ATOM     12  N   UNL     1      -2.013  -2.264  -6.361  0.00  0.00    -0.358 N 
ATOM     13  H   UNL     1      -1.059  -2.265  -6.187  0.00  0.00    +0.142 HD
ATOM     14  H   UNL     1      -2.341  -2.362  -7.269  0.00  0.00    +0.142 HD
ENDBRANCH   7  12
ENDBRANCH   3   5
BRANCH   1  15
ATOM     15  C   UNL     1      -1.283  -0.790   0.009  0.00  0.00    +0.131 C 
BRANCH  15  21
ATOM     16  C   UNL     1       0.000   1.359   0.016  0.00  0.00    +0.005 A 
ATOM     17  C   UNL     1       1.190   2.063   0.008  0.00  0.00    +0.015 A 
ATOM     18  C   UNL     1       2.394   1.384  -0.016  0.00  0.00    +0.018 A 
ATOM     19  C   UNL     1       2.408   0.001  -0.032  0.00  0.00    +0.015 A 
ATOM     20  C   UNL     1       1.218  -0.702  -0.023  0.00  0.00    +0.005 A 
ATOM     21  C   UNL     1       0.014  -0.023   0.001  0.00  0.00    -0.039 A 
ATOM     22 BR   UNL     1       4.022   2.346  -0.028  0.00  0.00    -0.050 Br
ENDBRANCH  15  21
ENDBRANCH   1  15
TORSDOF 4
