REMARK  Name = ZINC59210815
REMARK  10 active torsions:
REMARK  status: ('A' for Active; 'I' for Inactive)
REMARK    1  A    between atoms: C_1  and  C_2
REMARK    2  A    between atoms: C_5  and  N_9
REMARK    3  A    between atoms: C_6  and  C_8
REMARK    4  A    between atoms: C_10  and  C_12
REMARK    5  A    between atoms: C_13  and  C_35
REMARK    6  A    between atoms: C_18  and  C_20
REMARK    7  A    between atoms: C_23  and  O_26
REMARK    8  A    between atoms: O_26  and  C_27
REMARK    9  A    between atoms: C_27  and  C_28
REMARK   10  A    between atoms: C_33  and  C_34
REMARK                            x       y       z     vdW  Elec       q    Type
REMARK                         _______ _______ _______ _____ _____    ______ ____
ROOT
ATOM      1  C   UNL     1       0.907  -6.328  -1.883  0.00  0.00    +0.056 C 
ATOM      2  C   UNL     1       0.703  -6.841  -3.115  0.00  0.00    +0.017 C 
ATOM      3  N   UNL     1       0.617  -8.190  -3.311  0.00  0.00    -0.300 N 
ATOM      4  C   UNL     1       0.725  -9.092  -2.327  0.00  0.00    +0.135 C 
ATOM      5  S   UNL     1       0.598 -10.756  -2.710  0.00  0.00    -0.019 S 
ATOM      6  N   UNL     1       0.931  -8.732  -1.044  0.00  0.00    -0.315 N 
ATOM      7  C   UNL     1       1.045  -7.299  -0.728  0.00  0.00    +0.139 C 
ATOM      8  C   UNL     1       0.566  -5.911  -4.293  0.00  0.00    +0.061 C 
ATOM      9  H   UNL     1       0.468  -8.513  -4.213  0.00  0.00    +0.154 HD
ATOM     10  H   UNL     1       1.006  -9.402  -0.347  0.00  0.00    +0.149 HD
ENDROOT
BRANCH   7  11
ATOM     11  C   UNL     1       2.386  -7.065  -0.083  0.00  0.00    -0.022 A 
ATOM     12  C   UNL     1       3.540  -7.496  -0.712  0.00  0.00    +0.009 A 
ATOM     13  C   UNL     1       4.771  -7.284  -0.122  0.00  0.00    +0.046 A 
ATOM     14  C   UNL     1       4.849  -6.637   1.103  0.00  0.00    +0.121 A 
ATOM     15  C   UNL     1       3.691  -6.205   1.732  0.00  0.00    +0.046 A 
ATOM     16  C   UNL     1       2.462  -6.415   1.135  0.00  0.00    +0.009 A 
BRANCH  14  17
ATOM     17  O   UNL     1       6.059  -6.427   1.685  0.00  0.00    -0.487 OA
BRANCH  17  18
ATOM     18  C   UNL     1       6.064  -5.755   2.946  0.00  0.00    +0.264 C 
BRANCH  18  19
ATOM     19  C   UNL     1       7.482  -5.613   3.434  0.00  0.00    -0.007 A 
ATOM     20  C   UNL     1       8.528  -6.100   2.672  0.00  0.00    +0.007 A 
ATOM     21  C   UNL     1       9.829  -5.970   3.120  0.00  0.00    +0.000 A 
ATOM     22  C   UNL     1      10.085  -5.352   4.330  0.00  0.00    +0.000 A 
ATOM     23  C   UNL     1       9.040  -4.864   5.091  0.00  0.00    +0.004 A 
ATOM     24  C   UNL     1       7.739  -4.990   4.641  0.00  0.00    -0.044 A 
ATOM     25  C   UNL     1       6.600  -4.453   5.469  0.00  0.00    +0.044 C 
ENDBRANCH  18  19
ENDBRANCH  17  18
ENDBRANCH  14  17
ENDBRANCH   7  11
BRANCH   1  27
ATOM     26  N   UNL     1       2.101  -4.261  -2.064  0.00  0.00    -0.281 N 
ATOM     27  C   UNL     1       0.996  -4.929  -1.679  0.00  0.00    +0.248 C 
ATOM     28  O   UNL     1       0.074  -4.331  -1.155  0.00  0.00    -0.270 OA
ATOM     29  H   UNL     1       2.794  -4.718  -2.566  0.00  0.00    +0.155 HD
BRANCH  26  34
ATOM     30  C   UNL     1       2.700   1.224  -0.748  0.00  0.00    +0.044 C 
ATOM     31  C   UNL     1       2.541  -0.233  -1.097  0.00  0.00    -0.050 A 
ATOM     32  C   UNL     1       1.278  -0.765  -1.280  0.00  0.00    +0.005 A 
ATOM     33  C   UNL     1       1.128  -2.100  -1.601  0.00  0.00    +0.024 A 
ATOM     34  C   UNL     1       2.249  -2.909  -1.740  0.00  0.00    +0.037 A 
ATOM     35  C   UNL     1       3.516  -2.371  -1.556  0.00  0.00    -0.029 A 
ATOM     36  C   UNL     1       3.659  -1.034  -1.240  0.00  0.00    +0.008 A 
ATOM     37  C   UNL     1       4.735  -3.245  -1.706  0.00  0.00    +0.045 C 
ENDBRANCH  26  34
ENDBRANCH   1  27
TORSDOF 6
