REMARK  Name = ZINC63572043
REMARK  9 active torsions:
REMARK  status: ('A' for Active; 'I' for Inactive)
REMARK    1  A    between atoms: C_1  and  C_2
REMARK    2  A    between atoms: C_2  and  O_3
REMARK    3  A    between atoms: O_3  and  C_4
REMARK    4  A    between atoms: C_4  and  C_6
REMARK    5  A    between atoms: C_9  and  C_12
REMARK    6  A    between atoms: C_12  and  N_13
REMARK    7  A    between atoms: C_29  and  C_31
REMARK    8  A    between atoms: C_34  and  O_37
REMARK    9  A    between atoms: O_37  and  C_38
REMARK                            x       y       z     vdW  Elec       q    Type
REMARK                         _______ _______ _______ _____ _____    ______ ____
ROOT
ATOM      1  N   UNL     1      -6.355  -6.087  -1.285  0.00  0.00    -0.299 N 
ATOM      2  C   UNL     1      -7.453  -6.866  -1.327  0.00  0.00    +0.303 C 
ATOM      3  O   UNL     1      -8.554  -6.375  -1.170  0.00  0.00    -0.253 OA
ATOM      4  N   UNL     1      -7.332  -8.191  -1.542  0.00  0.00    -0.276 N 
ATOM      5  C   UNL     1      -5.997  -8.795  -1.612  0.00  0.00    +0.114 C 
ATOM      6  C   UNL     1      -5.825  -9.504  -2.968  0.00  0.00    +0.052 C 
ATOM      7  C   UNL     1      -7.087 -10.297  -3.204  0.00  0.00    -0.035 C 
ATOM      8  C   UNL     1      -7.277 -11.573  -3.514  0.00  0.00    -0.001 A 
ATOM      9  C   UNL     1      -6.331 -12.652  -3.846  0.00  0.00    +0.010 A 
ATOM     10  C   UNL     1      -6.877 -13.871  -4.098  0.00  0.00    +0.001 A 
ATOM     11  C   UNL     1      -8.252 -14.122  -4.053  0.00  0.00    +0.002 A 
ATOM     12  C   UNL     1      -9.194 -13.189  -3.765  0.00  0.00    +0.026 A 
ATOM     13  C   UNL     1      -8.742 -11.865  -3.490  0.00  0.00    +0.043 A 
ATOM     14  N   UNL     1      -9.415 -10.788  -3.212  0.00  0.00    -0.375 N 
ATOM     15  C   UNL     1      -8.473  -9.675  -3.087  0.00  0.00    +0.131 C 
ATOM     16  C   UNL     1      -8.539  -9.017  -1.700  0.00  0.00    +0.134 C 
ATOM     17  H   UNL     1      -5.473  -6.488  -1.337  0.00  0.00    +0.150 HD
ATOM     18  H   UNL     1     -10.378 -10.731  -3.105  0.00  0.00    +0.160 HD
ENDROOT
BRANCH  16  19
ATOM     19  C   UNL     1      -8.575 -10.078  -0.630  0.00  0.00    -0.024 A 
ATOM     20  C   UNL     1      -9.662 -10.162   0.222  0.00  0.00    +0.009 A 
ATOM     21  C   UNL     1      -9.697 -11.133   1.204  0.00  0.00    +0.046 A 
ATOM     22  C   UNL     1      -8.642 -12.024   1.335  0.00  0.00    +0.120 A 
ATOM     23  C   UNL     1      -7.553 -11.937   0.479  0.00  0.00    +0.046 A 
ATOM     24  C   UNL     1      -7.525 -10.967  -0.504  0.00  0.00    +0.009 A 
BRANCH  22  25
ATOM     25  O   UNL     1      -8.674 -12.980   2.301  0.00  0.00    -0.495 OA
ATOM     26  C   UNL     1      -7.553 -13.862   2.377  0.00  0.00    +0.277 C 
ENDBRANCH  22  25
ENDBRANCH  16  19
BRANCH   1  27
ATOM     27  C   UNL     1      -6.492  -4.633  -1.162  0.00  0.00    +0.109 C 
BRANCH  27  31
ATOM     28  C   UNL     1      -3.114  -2.268   0.149  0.00  0.00    +0.098 C 
ATOM     29  C   UNL     1      -3.860  -1.823  -1.111  0.00  0.00    +0.015 C 
ATOM     30  C   UNL     1      -5.248  -2.467  -1.135  0.00  0.00    +0.006 C 
ATOM     31  C   UNL     1      -5.104  -3.990  -1.138  0.00  0.00    +0.006 C 
ATOM     32  C   UNL     1      -4.358  -4.434   0.121  0.00  0.00    +0.006 C 
ATOM     33  C   UNL     1      -2.970  -3.791   0.145  0.00  0.00    +0.015 C 
BRANCH  28  34
ATOM     34  C   UNL     1      -1.747  -1.634   0.172  0.00  0.00    +0.310 C 
ATOM     35  O   UNL     1      -0.759  -2.329   0.185  0.00  0.00    -0.251 OA
BRANCH  34  36
ATOM     36  O   UNL     1      -1.627  -0.297   0.179  0.00  0.00    -0.465 OA
BRANCH  36  38
ATOM     37  C   UNL     1      -0.365   1.764   0.206  0.00  0.00    +0.048 C 
ATOM     38  C   UNL     1      -0.301   0.235   0.202  0.00  0.00    +0.229 C 
ENDBRANCH  36  38
ENDBRANCH  34  36
ENDBRANCH  28  34
ENDBRANCH  27  31
ENDBRANCH   1  27
TORSDOF 7
