REMARK  Name = ZINC22636026
REMARK  7 active torsions:
REMARK  status: ('A' for Active; 'I' for Inactive)
REMARK    1  A    between atoms: C_1  and  O_2
REMARK    2  A    between atoms: O_2  and  C_3
REMARK    3  A    between atoms: C_6  and  C_10
REMARK    4  A    between atoms: C_8  and  O_9
REMARK    5  A    between atoms: N_19  and  C_22
REMARK    6  A    between atoms: C_22  and  C_23
REMARK    7  A    between atoms: C_29  and  O_31
REMARK                            x       y       z     vdW  Elec       q    Type
REMARK                         _______ _______ _______ _____ _____    ______ ____
ROOT
ATOM      1  C   UNL     1      -2.363   5.842  -4.030  0.00  0.00    +0.224 C 
ATOM      2  N   UNL     1      -1.662   6.303  -2.817  0.00  0.00    -0.313 N 
ATOM      3  C   UNL     1      -1.374   5.343  -1.878  0.00  0.00    +0.080 A 
ATOM      4  C   UNL     1      -1.249   3.986  -2.205  0.00  0.00    +0.067 A 
ATOM      5  C   UNL     1      -0.933   3.098  -1.103  0.00  0.00    -0.027 A 
ATOM      6  C   UNL     1      -0.804   3.689   0.110  0.00  0.00    -0.021 A 
ATOM      7  S   UNL     1      -1.091   5.412  -0.192  0.00  0.00    -0.080 S 
ATOM      8  C   UNL     1      -0.490   3.007   1.403  0.00  0.00    -0.035 C 
ATOM      9  N   UNL     1      -0.695   1.557   1.221  0.00  0.00    +0.386 N 
ATOM     10  C   UNL     1      -0.013   1.086   0.008  0.00  0.00    -0.073 C 
ATOM     11  C   UNL     1      -0.748   1.590  -1.237  0.00  0.00    +0.018 C 
ATOM     12  C   UNL     1      -1.436   3.612  -3.630  0.00  0.00    +0.220 C 
ATOM     13  N   UNL     1      -1.912   4.518  -4.439  0.00  0.00    -0.223 NA
ATOM     14  H   UNL     1      -1.400   7.366  -2.704  0.00  0.00    +0.149 HD
ATOM     15  H   UNL     1      -1.773   1.371   1.099  0.00  0.00    -0.081 HD
ENDROOT
BRANCH   1  19
ATOM     16  C   UNL     1      -6.565   5.711  -3.245  0.00  0.00    +0.161 A 
ATOM     17  C   UNL     1      -5.763   6.632  -2.590  0.00  0.00    +0.050 A 
ATOM     18  C   UNL     1      -4.405   6.671  -2.845  0.00  0.00    +0.011 A 
ATOM     19  C   UNL     1      -3.844   5.794  -3.755  0.00  0.00    -0.002 A 
ATOM     20  C   UNL     1      -4.639   4.877  -4.416  0.00  0.00    +0.056 A 
ATOM     21  C   UNL     1      -6.000   4.828  -4.160  0.00  0.00    +0.159 A 
BRANCH  16  23
ATOM     22  C   UNL     1      -8.412   6.608  -2.045  0.00  0.00    +0.277 C 
ATOM     23  O   UNL     1      -7.901   5.671  -2.995  0.00  0.00    -0.491 OA
ENDBRANCH  16  23
BRANCH  21  24
ATOM     24  O   UNL     1      -6.783   3.922  -4.806  0.00  0.00    -0.503 OA
ATOM     25  H   UNL     1      -6.335   3.225  -5.529  0.00  0.00    +0.292 HD
ENDBRANCH  21  24
ENDBRANCH   1  19
BRANCH  12  26
ATOM     26  O   UNL     1      -1.123   2.373  -4.075  0.00  0.00    -0.492 OA
ATOM     27  H   UNL     1      -1.268   2.115  -5.134  0.00  0.00    +0.294 HD
ENDBRANCH  12  26
BRANCH   9  28
ATOM     28  C   UNL     1      -0.244   0.811   2.403  0.00  0.00    -0.043 C 
BRANCH  28  29
ATOM     29  C   UNL     1      -0.772   1.475   3.648  0.00  0.00    -0.064 A 
ATOM     30  C   UNL     1      -0.028   2.456   4.277  0.00  0.00    +0.002 A 
ATOM     31  C   UNL     1      -0.514   3.068   5.417  0.00  0.00    +0.000 A 
ATOM     32  C   UNL     1      -1.740   2.693   5.934  0.00  0.00    +0.000 A 
ATOM     33  C   UNL     1      -2.482   1.708   5.308  0.00  0.00    +0.000 A 
ATOM     34  C   UNL     1      -1.998   1.099   4.165  0.00  0.00    +0.002 A 
ENDBRANCH  28  29
ENDBRANCH   9  28
TORSDOF 6
