REMARK  Name = ZINC39007515
REMARK  5 active torsions:
REMARK  status: ('A' for Active; 'I' for Inactive)
REMARK    1  A    between atoms: C_1  and  C_2
REMARK    2  A    between atoms: C_5  and  N_9
REMARK    3  A    between atoms: C_10  and  O_34
REMARK    4  A    between atoms: C_13  and  O_33
REMARK    5  A    between atoms: C_14  and  C_18
REMARK                            x       y       z     vdW  Elec       q    Type
REMARK                         _______ _______ _______ _____ _____    ______ ____
ROOT
ATOM      1  N   UNL     1       0.068  -4.088   0.134  0.00  0.00    -0.225 N 
ATOM      2  C   UNL     1       0.004  -4.687  -1.191  0.00  0.00    +0.338 C 
ATOM      3  N   UNL     1      -0.422  -6.076  -1.144  0.00  0.00    -0.204 NA
ATOM      4  C   UNL     1      -0.354  -6.813  -0.104  0.00  0.00    +0.200 C 
ATOM      5  C   UNL     1       0.179  -6.320   1.210  0.00  0.00    +0.183 C 
ATOM      6  C   UNL     1       0.163  -4.818   1.252  0.00  0.00    +0.237 C 
ATOM      7  O   UNL     1       0.234  -4.255   2.324  0.00  0.00    -0.274 OA
ENDROOT
BRANCH   5   8
ATOM      8  C   UNL     1       1.618  -6.809   1.388  0.00  0.00    +0.122 C 
ATOM      9  C   UNL     1       2.121  -6.418   2.757  0.00  0.00    +0.039 A 
ATOM     10  H   UNL     1       0.545  -6.852   4.049  0.00  0.00    +0.166 HD
ATOM     11  C   UNL     1       3.354  -5.904   2.971  0.00  0.00    -0.016 A 
ATOM     12  C   UNL     1       3.473  -5.654   4.390  0.00  0.00    +0.003 A 
ATOM     13  C   UNL     1       4.504  -5.137   5.181  0.00  0.00    +0.010 A 
ATOM     14  C   UNL     1       4.262  -5.039   6.529  0.00  0.00    +0.001 A 
ATOM     15  C   UNL     1       3.059  -5.429   7.091  0.00  0.00    +0.002 A 
ATOM     16  C   UNL     1       2.022  -5.945   6.333  0.00  0.00    +0.026 A 
ATOM     17  C   UNL     1       2.237  -6.056   4.962  0.00  0.00    +0.047 A 
ATOM     18  N   UNL     1       1.447  -6.512   3.945  0.00  0.00    -0.356 N 
ATOM     19  C   UNL     1       4.359  -5.671   1.871  0.00  0.00    +0.052 C 
ATOM     20  C   UNL     1       3.902  -6.458   0.636  0.00  0.00    +0.086 C 
ATOM     21  N   UNL     1       2.481  -6.183   0.373  0.00  0.00    -0.307 NA
ATOM     22  H   UNL     1       2.219  -6.477  -0.556  0.00  0.00    +0.123 HD
ENDBRANCH   5   8
BRANCH   1  27
ATOM     23  C   UNL     1      -0.063   1.567   0.575  0.00  0.00    +0.045 C 
ATOM     24  C   UNL     1      -0.028   0.065   0.458  0.00  0.00    -0.032 A 
ATOM     25  C   UNL     1       1.171  -0.581   0.218  0.00  0.00    +0.006 A 
ATOM     26  C   UNL     1       1.206  -1.957   0.110  0.00  0.00    +0.024 A 
ATOM     27  C   UNL     1       0.035  -2.693   0.243  0.00  0.00    +0.042 A 
ATOM     28  C   UNL     1      -1.167  -2.043   0.484  0.00  0.00    +0.044 A 
ATOM     29  C   UNL     1      -1.196  -0.665   0.596  0.00  0.00    +0.046 A 
ATOM     30 CL   UNL     1      -2.697   0.149   0.903  0.00  0.00    -0.083 Cl
ENDBRANCH   1  27
BRANCH   4  31
ATOM     31  O   UNL     1      -0.779  -8.090  -0.190  0.00  0.00    -0.495 OA
ATOM     32  H   UNL     1      -1.108  -8.337  -1.064  0.00  0.00    +0.293 HD
ENDBRANCH   4  31
BRANCH   2  33
ATOM     33  O   UNL     1      -0.921  -3.947  -1.991  0.00  0.00    -0.356 OA
ATOM     34  H   UNL     1      -1.021  -4.285  -2.891  0.00  0.00    +0.214 HD
ENDBRANCH   2  33
TORSDOF 4
