REMARK  Name = ZINC39726354
REMARK  4 active torsions:
REMARK  status: ('A' for Active; 'I' for Inactive)
REMARK    1  A    between atoms: C_6  and  C_7
REMARK    2  A    between atoms: C_11  and  C_18
REMARK    3  A    between atoms: C_18  and  N_19
REMARK    4  A    between atoms: C_24  and  C_26
REMARK                            x       y       z     vdW  Elec       q    Type
REMARK                         _______ _______ _______ _____ _____    ______ ____
ROOT
ATOM      1  C   UNL     1      -1.089  -1.125   0.664  0.00  0.00    +0.018 C 
ATOM      2  C   UNL     1      -1.290  -2.480   0.416  0.00  0.00    +0.040 C 
ATOM      3  C   UNL     1      -2.533  -3.032   0.431  0.00  0.00    +0.066 C 
ATOM      4  N   UNL     1      -3.075  -4.164  -0.029  0.00  0.00    -0.236 NA
ATOM      5  C   UNL     1      -4.353  -4.226  -0.334  0.00  0.00    +0.136 C 
ATOM      6  N   UNL     1      -5.228  -3.244  -0.240  0.00  0.00    -0.163 NA
ATOM      7  C   UNL     1      -4.930  -2.106   0.412  0.00  0.00    +0.257 C 
ATOM      8  O   UNL     1      -5.689  -1.158   0.463  0.00  0.00    -0.272 OA
ATOM      9  C   UNL     1      -3.579  -2.104   1.073  0.00  0.00    +0.187 C 
ATOM     10  S   UNL     1      -2.756  -0.489   0.845  0.00  0.00    -0.105 S 
ENDROOT
BRANCH   1  16
ATOM     11  C   UNL     1       0.188   0.982   1.024  0.00  0.00    +0.010 A 
ATOM     12  C   UNL     1       1.384   1.662   1.113  0.00  0.00    +0.020 A 
ATOM     13  C   UNL     1       2.582   0.988   0.941  0.00  0.00    +0.041 A 
ATOM     14  C   UNL     1       2.587  -0.373   0.679  0.00  0.00    +0.020 A 
ATOM     15  C   UNL     1       1.399  -1.065   0.588  0.00  0.00    +0.010 A 
ATOM     16  C   UNL     1       0.186  -0.391   0.760  0.00  0.00    -0.011 A 
ATOM     17 CL   UNL     1       4.083   1.852   1.054  0.00  0.00    -0.084 Cl
ENDBRANCH   1  16
BRANCH   5  18
ATOM     18  C   UNL     1      -4.868  -5.548  -0.842  0.00  0.00    +0.158 C 
BRANCH  18  19
ATOM     19  N   UNL     1      -6.304  -5.436  -1.131  0.00  0.00    -0.284 NA
ATOM     20  C   UNL     1      -6.537  -4.636  -2.340  0.00  0.00    +0.085 C 
ATOM     21  C   UNL     1      -8.040  -4.418  -2.528  0.00  0.00    +0.015 C 
ATOM     22  C   UNL     1      -8.735  -5.777  -2.651  0.00  0.00    +0.003 C 
ATOM     23  C   UNL     1      -8.437  -6.609  -1.401  0.00  0.00    +0.028 C 
ATOM     24  C   UNL     1      -6.923  -6.763  -1.246  0.00  0.00    +0.143 C 
BRANCH  24  25
ATOM     25  C   UNL     1      -6.624  -7.565  -0.005  0.00  0.00    +0.228 C 
ATOM     26  O   UNL     1      -6.451  -7.001   1.054  0.00  0.00    -0.274 OA
ATOM     27  N   UNL     1      -6.549  -8.909  -0.074  0.00  0.00    -0.328 N 
ATOM     28  H   UNL     1      -6.687  -9.360  -0.921  0.00  0.00    +0.145 HD
ATOM     29  H   UNL     1      -6.356  -9.425   0.725  0.00  0.00    +0.145 HD
ENDBRANCH  24  25
ENDBRANCH  18  19
ENDBRANCH   5  18
TORSDOF 4
