REMARK  Name = ZINC35778706
REMARK  15 active torsions:
REMARK  status: ('A' for Active; 'I' for Inactive)
REMARK    1  A    between atoms: C_1  and  C_2
REMARK    2  A    between atoms: C_2  and  O_3
REMARK    3  A    between atoms: O_3  and  C_4
REMARK    4  A    between atoms: C_4  and  C_5
REMARK    5  A    between atoms: C_5  and  C_7
REMARK    6  A    between atoms: C_5  and  O_38
REMARK    7  A    between atoms: C_7  and  N_8
REMARK    8  A    between atoms: N_8  and  C_9
REMARK    9  A    between atoms: N_8  and  C_16
REMARK   10  A    between atoms: C_9  and  C_10
REMARK   11  A    between atoms: C_16  and  C_17
REMARK   12  A    between atoms: C_27  and  C_29
REMARK   13  A    between atoms: C_29  and  O_30
REMARK   14  A    between atoms: O_30  and  C_31
REMARK   15  A    between atoms: C_34  and  C_37
REMARK                            x       y       z     vdW  Elec       q    Type
REMARK                         _______ _______ _______ _____ _____    ______ ____
ROOT
ATOM      1  C   UNL     1       1.727  -5.550  -6.327  0.00  0.00    +0.200 C 
ATOM      2  O   UNL     1       2.102  -4.543  -6.889  0.00  0.00    -0.278 OA
ATOM      3  N   UNL     1       1.357  -6.626  -7.049  0.00  0.00    -0.292 N 
ATOM      4  C   UNL     1       0.894  -7.850  -6.378  0.00  0.00    +0.113 C 
ATOM      5  C   UNL     1      -0.580  -8.074  -6.746  0.00  0.00    +0.061 C 
ATOM      6  C   UNL     1      -0.755  -7.811  -8.207  0.00  0.00    -0.004 A 
ATOM      7  C   UNL     1       0.091  -7.154  -9.045  0.00  0.00    -0.014 A 
ATOM      8  C   UNL     1      -0.312  -7.035 -10.374  0.00  0.00    +0.013 A 
ATOM      9  C   UNL     1      -1.490  -7.565 -10.774  0.00  0.00    +0.046 A 
ATOM     10  S   UNL     1      -2.107  -8.277  -9.256  0.00  0.00    -0.101 S 
ATOM     11  C   UNL     1       1.405  -6.591  -8.517  0.00  0.00    +0.144 C 
ENDROOT
BRANCH   1  12
ATOM     12  C   UNL     1       1.674  -5.598  -4.822  0.00  0.00    +0.019 C 
BRANCH  12  13
ATOM     13  N   UNL     1       2.167  -4.327  -4.274  0.00  0.00    +0.389 N 
ATOM     14  H   UNL     1       1.625  -3.565  -4.652  0.00  0.00    -0.081 HD
BRANCH  13  15
ATOM     15  C   UNL     1       2.038  -4.342  -2.811  0.00  0.00    -0.044 C 
BRANCH  15  16
ATOM     16  C   UNL     1       2.457  -2.982  -2.248  0.00  0.00    +0.124 C 
BRANCH  16  17
ATOM     17  O   UNL     1       3.864  -2.805  -2.429  0.00  0.00    -0.391 OA
ATOM     18  H   UNL     1       4.404  -3.475  -1.989  0.00  0.00    +0.210 HD
ENDBRANCH  16  17
BRANCH  16  19
ATOM     19  C   UNL     1       2.124  -2.923  -0.756  0.00  0.00    +0.189 C 
BRANCH  19  20
ATOM     20  O   UNL     1       2.407  -1.615  -0.256  0.00  0.00    -0.378 OA
BRANCH  20  22
ATOM     21  C   UNL     1       2.468  -0.021   1.560  0.00  0.00    +0.034 C 
ATOM     22  C   UNL     1       2.129  -1.451   1.136  0.00  0.00    +0.156 C 
ENDBRANCH  20  22
ENDBRANCH  19  20
ENDBRANCH  16  19
ENDBRANCH  15  16
ENDBRANCH  13  15
BRANCH  13  23
ATOM     23  C   UNL     1       3.579  -4.152  -4.639  0.00  0.00    -0.046 C 
BRANCH  23  24
ATOM     24  C   UNL     1       4.426  -5.204  -3.920  0.00  0.00    +0.102 C 
ATOM     25  C   UNL     1       5.924  -4.945  -4.191  0.00  0.00    +0.032 C 
ATOM     26  C   UNL     1       6.482  -6.385  -4.360  0.00  0.00    +0.030 C 
ATOM     27  C   UNL     1       5.278  -7.090  -5.034  0.00  0.00    +0.160 C 
ATOM     28  O   UNL     1       4.112  -6.508  -4.424  0.00  0.00    -0.378 OA
ENDBRANCH  23  24
ENDBRANCH  13  23
ENDBRANCH  12  13
ENDBRANCH   1  12
BRANCH  11  29
ATOM     29  C   UNL     1       2.569  -7.447  -9.018  0.00  0.00    +0.256 C 
BRANCH  29  30
ATOM     30  O   UNL     1       2.332  -8.816  -8.684  0.00  0.00    -0.490 OA
BRANCH  30  31
ATOM     31  C   UNL     1       3.278  -9.716  -9.061  0.00  0.00    +0.121 A 
ATOM     32  C   UNL     1       4.414  -9.289  -9.733  0.00  0.00    +0.046 A 
ATOM     33  C   UNL     1       5.375 -10.206 -10.115  0.00  0.00    +0.007 A 
ATOM     34  C   UNL     1       5.204 -11.547  -9.828  0.00  0.00    -0.050 A 
ATOM     35  C   UNL     1       4.073 -11.975  -9.159  0.00  0.00    +0.007 A 
ATOM     36  C   UNL     1       3.112 -11.062  -8.769  0.00  0.00    +0.046 A 
ATOM     37  C   UNL     1       6.253 -12.545 -10.246  0.00  0.00    +0.044 C 
ENDBRANCH  30  31
ENDBRANCH  29  30
ENDBRANCH  11  29
TORSDOF 13
