REMARK  Name = ZINC36299127
REMARK  11 active torsions:
REMARK  status: ('A' for Active; 'I' for Inactive)
REMARK    1  A    between atoms: C_1  and  C_2
REMARK    2  A    between atoms: C_2  and  C_3
REMARK    3  A    between atoms: C_2  and  C_4
REMARK    4  A    between atoms: C_4  and  C_5
REMARK    5  A    between atoms: C_5  and  C_7
REMARK    6  A    between atoms: C_5  and  N_22
REMARK    7  A    between atoms: C_7  and  N_8
REMARK    8  A    between atoms: N_8  and  S_9
REMARK    9  A    between atoms: S_9  and  C_12
REMARK   10  A    between atoms: C_17  and  O_18
REMARK   11  A    between atoms: O_18  and  C_19
REMARK                            x       y       z     vdW  Elec       q    Type
REMARK                         _______ _______ _______ _____ _____    ______ ____
ROOT
ATOM      1  S   UNL     1      -4.115  -4.761  -0.168  0.00  0.00    +0.062 S 
ATOM      2  O   UNL     1      -3.937  -6.148   0.083  0.00  0.00    -0.153 OA
ATOM      3  O   UNL     1      -4.878  -3.923   0.690  0.00  0.00    -0.153 OA
ENDROOT
BRANCH   1   4
ATOM      4  C   UNL     1      -4.833  -4.628  -1.771  0.00  0.00    +0.149 A 
ATOM      5  C   UNL     1      -5.958  -3.849  -1.962  0.00  0.00    +0.052 A 
ATOM      6  C   UNL     1      -6.522  -3.743  -3.221  0.00  0.00    +0.044 A 
ATOM      7  C   UNL     1      -5.961  -4.417  -4.292  0.00  0.00    +0.039 A 
ATOM      8  C   UNL     1      -4.836  -5.197  -4.105  0.00  0.00    +0.063 A 
ATOM      9  C   UNL     1      -4.266  -5.300  -2.844  0.00  0.00    +0.160 A 
ATOM     10 BR   UNL     1      -4.071  -6.119  -5.568  0.00  0.00    -0.046 Br
ATOM     11 CL   UNL     1      -7.936  -2.763  -3.458  0.00  0.00    -0.083 Cl
BRANCH   9  12
ATOM     12  O   UNL     1      -3.156  -6.062  -2.659  0.00  0.00    -0.492 OA
ATOM     13  C   UNL     1      -3.357  -7.463  -2.459  0.00  0.00    +0.277 C 
ENDBRANCH   9  12
ENDBRANCH   1   4
BRANCH   1  14
ATOM     14  N   UNL     1      -2.600  -4.097  -0.253  0.00  0.00    -0.191 NA
ATOM     15  H   UNL     1      -1.818  -4.653  -0.110  0.00  0.00    +0.148 HD
BRANCH  14  16
ATOM     16  C   UNL     1      -2.441  -2.670  -0.544  0.00  0.00    +0.090 C 
BRANCH  16  17
ATOM     17  C   UNL     1      -1.027  -2.226  -0.163  0.00  0.00    -0.059 C 
BRANCH  17  18
ATOM     18  N   UNL     1      -0.769  -2.570   1.242  0.00  0.00    +0.381 N 
ATOM     19  H   UNL     1      -1.383  -2.035   1.837  0.00  0.00    -0.090 HD
ATOM     20  H   UNL     1      -0.936  -3.554   1.384  0.00  0.00    -0.090 HD
ATOM     21  H   UNL     1       0.191  -2.355   1.470  0.00  0.00    -0.090 HD
ENDBRANCH  17  18
BRANCH  17  22
ATOM     22  C   UNL     1      -0.900  -0.713  -0.350  0.00  0.00    -0.012 C 
BRANCH  22  24
ATOM     23  C   UNL     1       1.471  -0.886  -1.118  0.00  0.00    +0.007 C 
ATOM     24  C   UNL     1       0.540  -0.283  -0.064  0.00  0.00    -0.019 C 
ATOM     25  C   UNL     1       0.636   1.243  -0.112  0.00  0.00    +0.007 C 
ENDBRANCH  22  24
ENDBRANCH  17  22
ENDBRANCH  16  17
ENDBRANCH  14  16
ENDBRANCH   1  14
TORSDOF 8
