REMARK  Name = ZINC15859351
REMARK  9 active torsions:
REMARK  status: ('A' for Active; 'I' for Inactive)
REMARK    1  A    between atoms: C_1  and  C_2
REMARK    2  A    between atoms: C_7  and  C_9
REMARK    3  A    between atoms: C_7  and  C_18
REMARK    4  A    between atoms: C_7  and  N_66
REMARK    5  A    between atoms: C_12  and  C_15
REMARK    6  A    between atoms: C_15  and  C_16
REMARK    7  A    between atoms: C_15  and  C_17
REMARK    8  A    between atoms: C_19  and  N_27
REMARK    9  A    between atoms: C_28  and  C_30
REMARK                            x       y       z     vdW  Elec       q    Type
REMARK                         _______ _______ _______ _____ _____    ______ ____
ROOT
ATOM      1  C   UNL     1      -3.363   4.104   7.491  0.00  0.00    +0.032 C 
ENDROOT
BRANCH   1   2
ATOM      2  C   UNL     1      -1.973   3.852   6.964  0.00  0.00    +0.118 A 
ATOM      3  C   UNL     1      -1.383   2.645   6.892  0.00  0.00    +0.082 A 
ATOM      4  C   UNL     1      -0.048   2.878   6.319  0.00  0.00    +0.042 A 
ATOM      5  C   UNL     1       1.030   2.056   5.996  0.00  0.00    +0.013 A 
ATOM      6  C   UNL     1       2.163   2.603   5.462  0.00  0.00    +0.001 A 
ATOM      7  C   UNL     1       2.246   3.970   5.240  0.00  0.00    +0.004 A 
ATOM      8  C   UNL     1       1.190   4.799   5.553  0.00  0.00    +0.047 A 
ATOM      9  C   UNL     1       0.029   4.263   6.097  0.00  0.00    +0.137 A 
ATOM     10  O   UNL     1      -1.143   4.801   6.491  0.00  0.00    -0.459 OA
BRANCH   3  11
ATOM     11  N   UNL     1      -1.930   1.412   7.284  0.00  0.00    -0.276 N 
ATOM     12  C   UNL     1      -1.664   0.916   8.508  0.00  0.00    +0.284 C 
ATOM     13  O   UNL     1      -1.024   1.576   9.307  0.00  0.00    -0.266 OA
ATOM     14  H   UNL     1      -2.499   0.918   6.673  0.00  0.00    +0.155 HD
BRANCH  12  15
ATOM     15  C   UNL     1      -2.144  -0.419   8.878  0.00  0.00    +0.189 A 
ATOM     16  C   UNL     1      -1.946  -1.039  10.079  0.00  0.00    +0.054 A 
ATOM     17  C   UNL     1      -2.574  -2.292   9.995  0.00  0.00    +0.042 A 
ATOM     18  C   UNL     1      -3.121  -2.381   8.762  0.00  0.00    +0.196 A 
ATOM     19  O   UNL     1      -2.864  -1.248   8.094  0.00  0.00    -0.458 OA
ENDBRANCH  12  15
ENDBRANCH   3  11
ENDBRANCH   1   2
BRANCH   1  26
ATOM     20  C   UNL     1      -3.568   8.016  11.652  0.00  0.00    +0.007 C 
ATOM     21  C   UNL     1      -3.647   6.700  10.876  0.00  0.00    -0.018 C 
ATOM     22  C   UNL     1      -4.654   6.841   9.731  0.00  0.00    -0.015 C 
ATOM     23  C   UNL     1      -4.683   5.543   8.921  0.00  0.00    -0.077 C 
ATOM     24  C   UNL     1      -2.368   5.081   9.470  0.00  0.00    -0.077 C 
ATOM     25  C   UNL     1      -2.270   6.365  10.296  0.00  0.00    -0.015 C 
ATOM     26  N   UNL     1      -3.334   5.290   8.370  0.00  0.00    +0.389 N 
ATOM     27  H   UNL     1      -3.041   6.106   7.820  0.00  0.00    -0.080 HD
ENDBRANCH   1  26
BRANCH   1  28
ATOM     28  C   UNL     1      -4.295   4.373   6.338  0.00  0.00    -0.054 A 
ATOM     29  C   UNL     1      -5.119   3.368   5.866  0.00  0.00    +0.003 A 
ATOM     30  C   UNL     1      -5.975   3.616   4.809  0.00  0.00    +0.004 A 
ATOM     31  C   UNL     1      -6.008   4.868   4.225  0.00  0.00    -0.045 A 
ATOM     32  C   UNL     1      -5.180   5.871   4.694  0.00  0.00    +0.004 A 
ATOM     33  C   UNL     1      -4.328   5.625   5.754  0.00  0.00    +0.003 A 
BRANCH  31  34
ATOM     34  C   UNL     1      -6.940   5.138   3.072  0.00  0.00    +0.013 C 
ATOM     35  C   UNL     1      -6.128   5.558   1.846  0.00  0.00    +0.012 C 
ATOM     36  C   UNL     1      -7.908   6.260   3.451  0.00  0.00    +0.012 C 
ENDBRANCH  31  34
ENDBRANCH   1  28
TORSDOF 6
