REMARK  Name = ZINC05082399
REMARK  8 active torsions:
REMARK  status: ('A' for Active; 'I' for Inactive)
REMARK    1  A    between atoms: C_1  and  C_2
REMARK    2  A    between atoms: C_2  and  C_3
REMARK    3  A    between atoms: C_3  and  C_5
REMARK    4  A    between atoms: C_3  and  S_6
REMARK    5  A    between atoms: S_6  and  C_7
REMARK    6  A    between atoms: C_12  and  N_16
REMARK    7  A    between atoms: C_13  and  N_15
REMARK    8  A    between atoms: C_17  and  C_19
REMARK                            x       y       z     vdW  Elec       q    Type
REMARK                         _______ _______ _______ _____ _____    ______ ____
ROOT
ATOM      1  C   UNL     1       2.858   9.216   0.200  0.00  0.00    +0.171 A 
ATOM      2  N   UNL     1       3.575   8.061   0.110  0.00  0.00    -0.300 N 
ATOM      3  H   UNL     1       4.574   8.095   0.087  0.00  0.00    +0.171 HD
ATOM      4  C   UNL     1       2.940   6.872   0.051  0.00  0.00    +0.275 A 
ATOM      5  O   UNL     1       3.575   5.832  -0.031  0.00  0.00    -0.266 OA
ATOM      6  C   UNL     1       1.538   6.851   0.084  0.00  0.00    +0.139 A 
ATOM      7  C   UNL     1       0.855   8.060   0.171  0.00  0.00    +0.146 A 
ATOM      8  N   UNL     1       1.542   9.207   0.232  0.00  0.00    -0.207 NA
ENDROOT
BRANCH   6   9
ATOM      9  N   UNL     1       0.836   5.632   0.025  0.00  0.00    -0.272 N 
ATOM     10  C   UNL     1       1.034   4.693   0.971  0.00  0.00    +0.284 C 
ATOM     11  O   UNL     1       1.882   4.863   1.829  0.00  0.00    -0.266 OA
ATOM     12  H   UNL     1       0.209   5.468  -0.697  0.00  0.00    +0.155 HD
BRANCH  10  13
ATOM     13  C   UNL     1       0.230   3.468   0.969  0.00  0.00    +0.191 A 
ATOM     14  C   UNL     1       0.328   2.442   1.865  0.00  0.00    +0.056 A 
ATOM     15  C   UNL     1      -0.625   1.484   1.487  0.00  0.00    +0.058 A 
ATOM     16  C   UNL     1      -1.252   1.958   0.386  0.00  0.00    +0.171 A 
ATOM     17  O   UNL     1      -0.738   3.157   0.081  0.00  0.00    -0.444 OA
ATOM     18 BR   UNL     1      -2.630   1.077  -0.562  0.00  0.00    -0.008 Br
ENDBRANCH  10  13
ENDBRANCH   6   9
BRANCH   7  19
ATOM     19  N   UNL     1      -0.528   8.076   0.201  0.00  0.00    -0.341 N 
ATOM     20  H   UNL     1      -1.024   7.244   0.161  0.00  0.00    +0.144 HD
ATOM     21  H   UNL     1      -1.002   8.921   0.262  0.00  0.00    +0.144 HD
ENDBRANCH   7  19
BRANCH   1  22
ATOM     22  S   UNL     1       3.711  10.756   0.276  0.00  0.00    -0.085 S 
BRANCH  22  23
ATOM     23  C   UNL     1       2.304  11.890   0.382  0.00  0.00    +0.051 C 
ATOM     24  C   UNL     1       1.492  11.818  -0.912  0.00  0.00    +0.019 C 
BRANCH  23  26
ATOM     25  C   UNL     1       3.518  13.419   1.940  0.00  0.00    +0.005 C 
ATOM     26  C   UNL     1       2.814  13.318   0.586  0.00  0.00    +0.011 C 
ENDBRANCH  23  26
ENDBRANCH  22  23
ENDBRANCH   1  22
TORSDOF 6
