REMARK  Name = ZINC13696576
REMARK  8 active torsions:
REMARK  status: ('A' for Active; 'I' for Inactive)
REMARK    1  A    between atoms: C_1  and  C_2
REMARK    2  A    between atoms: C_4  and  C_30
REMARK    3  A    between atoms: C_5  and  C_29
REMARK    4  A    between atoms: C_6  and  S_9
REMARK    5  A    between atoms: C_7  and  C_8
REMARK    6  A    between atoms: S_9  and  N_12
REMARK    7  A    between atoms: N_12  and  C_13
REMARK    8  A    between atoms: C_22  and  C_24
REMARK                            x       y       z     vdW  Elec       q    Type
REMARK                         _______ _______ _______ _____ _____    ______ ____
ROOT
ATOM      1  C   UNL     1       4.124   6.932   0.053  0.00  0.00    +0.050 A 
ATOM      2  C   UNL     1       5.505   7.054   0.143  0.00  0.00    +0.025 A 
ATOM      3  C   UNL     1       6.290   5.921   0.231  0.00  0.00    +0.007 A 
ATOM      4  C   UNL     1       5.707   4.668   0.215  0.00  0.00    -0.024 A 
ATOM      5  C   UNL     1       4.330   4.531   0.122  0.00  0.00    +0.042 A 
ATOM      6  C   UNL     1       3.538   5.677   0.042  0.00  0.00    +0.048 A 
ATOM      7  N   UNL     1       3.944   3.188   0.126  0.00  0.00    -0.264 N 
ATOM      8  C   UNL     1       5.126   2.326   0.219  0.00  0.00    +0.119 C 
ATOM      9  C   UNL     1       6.323   3.288   0.280  0.00  0.00    +0.056 C 
ATOM     10  C   UNL     1       2.672   2.749   0.049  0.00  0.00    +0.286 C 
ATOM     11  O   UNL     1       1.757   3.547  -0.025  0.00  0.00    -0.266 OA
ENDROOT
BRANCH  10  12
ATOM     12  C   UNL     1       2.391   1.310   0.057  0.00  0.00    +0.190 A 
ATOM     13  C   UNL     1       1.156   0.733  -0.015  0.00  0.00    +0.054 A 
ATOM     14  C   UNL     1       1.356  -0.656   0.022  0.00  0.00    +0.042 A 
ATOM     15  C   UNL     1       2.688  -0.863   0.113  0.00  0.00    +0.196 A 
ATOM     16  O   UNL     1       3.309   0.324   0.134  0.00  0.00    -0.458 OA
ENDBRANCH  10  12
BRANCH   1  17
ATOM     17  N   UNL     1       3.325   8.075  -0.027  0.00  0.00    -0.216 N 
ATOM     18  H   UNL     1       2.614   8.125  -0.685  0.00  0.00    +0.174 HD
BRANCH  17  19
ATOM     19  S   UNL     1       3.593   9.346   1.000  0.00  0.00    +0.073 S 
ATOM     20  O   UNL     1       2.620  10.333   0.688  0.00  0.00    -0.150 OA
ATOM     21  O   UNL     1       3.727   8.793   2.303  0.00  0.00    -0.150 OA
BRANCH  19  27
ATOM     22  C   UNL     1       6.738  11.949  -2.264  0.00  0.00    +0.044 C 
ATOM     23  C   UNL     1       6.557  11.231  -0.951  0.00  0.00    -0.045 A 
ATOM     24  C   UNL     1       7.620  11.111  -0.076  0.00  0.00    +0.007 A 
ATOM     25  C   UNL     1       7.454  10.453   1.128  0.00  0.00    -0.045 A 
ATOM     26  C   UNL     1       6.224   9.914   1.457  0.00  0.00    -0.021 A 
ATOM     27  C   UNL     1       5.161  10.033   0.582  0.00  0.00    +0.115 A 
ATOM     28  C   UNL     1       5.329  10.687  -0.625  0.00  0.00    -0.021 A 
ATOM     29  C   UNL     1       4.171  10.811  -1.582  0.00  0.00    +0.046 C 
ATOM     30  C   UNL     1       6.042   9.196   2.769  0.00  0.00    +0.046 C 
ATOM     31  C   UNL     1       8.613  10.322   2.082  0.00  0.00    +0.044 C 
ENDBRANCH  19  27
ENDBRANCH  17  19
ENDBRANCH   1  17
TORSDOF 4
