REMARK  Name = ZINC04151221
REMARK  6 active torsions:
REMARK  status: ('A' for Active; 'I' for Inactive)
REMARK    1  A    between atoms: C_1  and  C_2
REMARK    2  A    between atoms: C_3  and  C_21
REMARK    3  A    between atoms: C_4  and  C_12
REMARK    4  A    between atoms: C_15  and  C_18
REMARK    5  A    between atoms: C_18  and  C_19
REMARK    6  A    between atoms: C_18  and  C_20
REMARK                            x       y       z     vdW  Elec       q    Type
REMARK                         _______ _______ _______ _____ _____    ______ ____
ROOT
ATOM      1  C   UNL     1      -0.018   1.503   0.013  0.00  0.00    +0.061 C 
ATOM      2  C   UNL     1       0.002  -0.004   0.006  0.00  0.00    +0.018 C 
ATOM      3  C   UNL     1      -1.163  -0.668   0.008  0.00  0.00    +0.060 C 
ATOM      4  C   UNL     1      -1.253  -2.171   0.014  0.00  0.00    +0.177 C 
ATOM      5  N   UNL     1       0.062  -2.738  -0.274  0.00  0.00    -0.221 N 
ATOM      6  C   UNL     1       1.208  -2.013  -0.272  0.00  0.00    +0.218 A 
ATOM      7  N   UNL     1       2.194  -2.818  -0.559  0.00  0.00    -0.201 NA
ATOM      8  C   UNL     1       1.720  -4.053  -0.754  0.00  0.00    +0.247 A 
ATOM      9  N   UNL     1       0.420  -4.047  -0.591  0.00  0.00    -0.156 NA
ATOM     10  N   UNL     1       1.213  -0.652  -0.006  0.00  0.00    -0.287 N 
ATOM     11  H   UNL     1       2.041  -0.176   0.167  0.00  0.00    +0.155 HD
ENDROOT
BRANCH   3  12
ATOM     12  C   UNL     1      -2.364   0.079   0.003  0.00  0.00    +0.249 C 
ATOM     13  O   UNL     1      -2.325   1.296  -0.001  0.00  0.00    -0.270 OA
ATOM     14  N   UNL     1      -3.553  -0.556   0.004  0.00  0.00    -0.267 N 
ATOM     15  C   UNL     1      -4.734   0.175   0.108  0.00  0.00    +0.125 A 
ATOM     16  C   UNL     1      -5.950  -0.491   0.215  0.00  0.00    +0.044 A 
ATOM     17  C   UNL     1      -7.115   0.248   0.317  0.00  0.00    +0.005 A 
ATOM     18  C   UNL     1      -7.024   1.634   0.310  0.00  0.00    +0.020 A 
ATOM     19  C   UNL     1      -5.782   2.229   0.201  0.00  0.00    +0.113 A 
ATOM     20  N   UNL     1      -4.688   1.498   0.110  0.00  0.00    -0.240 NA
ATOM     21  H   UNL     1      -3.586  -1.523  -0.067  0.00  0.00    +0.157 HD
ENDBRANCH   3  12
BRANCH   4  22
ATOM     22  C   UNL     1      -1.717  -2.641   1.368  0.00  0.00    -0.018 A 
ATOM     23  C   UNL     1      -0.976  -2.342   2.495  0.00  0.00    +0.006 A 
ATOM     24  C   UNL     1      -1.401  -2.773   3.738  0.00  0.00    +0.004 A 
ATOM     25  C   UNL     1      -2.570  -3.503   3.853  0.00  0.00    -0.045 A 
ATOM     26  C   UNL     1      -3.312  -3.802   2.726  0.00  0.00    +0.004 A 
ATOM     27  C   UNL     1      -2.888  -3.367   1.484  0.00  0.00    +0.006 A 
BRANCH  25  28
ATOM     28  C   UNL     1      -3.033  -3.974   5.207  0.00  0.00    +0.013 C 
ATOM     29  C   UNL     1      -4.413  -3.385   5.507  0.00  0.00    +0.012 C 
ATOM     30  C   UNL     1      -3.119  -5.502   5.214  0.00  0.00    +0.012 C 
ENDBRANCH  25  28
ENDBRANCH   4  22
TORSDOF 3
