REMARK  Name = ZINC14462644
REMARK  5 active torsions:
REMARK  status: ('A' for Active; 'I' for Inactive)
REMARK    1  A    between atoms: C_1  and  C_2
REMARK    2  A    between atoms: C_2  and  C_3
REMARK    3  A    between atoms: C_2  and  C_4
REMARK    4  A    between atoms: C_7  and  C_10
REMARK    5  A    between atoms: C_23  and  C_26
REMARK                            x       y       z     vdW  Elec       q    Type
REMARK                         _______ _______ _______ _____ _____    ______ ____
ROOT
ATOM      1  C   UNL     1       2.516   3.869   0.050  0.00  0.00    +0.105 C 
ATOM      2  C   UNL     1       2.804   4.335  -1.379  0.00  0.00    +0.029 C 
ATOM      3  C   UNL     1       3.155   3.081  -2.228  0.00  0.00    +0.033 C 
ATOM      4  C   UNL     1       4.623   2.849  -1.928  0.00  0.00    -0.030 C 
ATOM      5  C   UNL     1       5.180   3.945  -1.478  0.00  0.00    -0.023 C 
ATOM      6  C   UNL     1       4.165   5.063  -1.404  0.00  0.00    +0.049 C 
ATOM      7  C   UNL     1       4.372   5.882  -0.164  0.00  0.00    -0.019 A 
ATOM      8  C   UNL     1       5.485   6.710  -0.111  0.00  0.00    +0.006 A 
ATOM      9  C   UNL     1       5.742   7.487   1.004  0.00  0.00    +0.001 A 
ATOM     10  C   UNL     1       4.890   7.450   2.086  0.00  0.00    +0.015 A 
ATOM     11  C   UNL     1       3.766   6.626   2.052  0.00  0.00    +0.058 A 
ATOM     12  C   UNL     1       3.506   5.837   0.914  0.00  0.00    +0.044 A 
ATOM     13  N   UNL     1       2.374   5.036   0.922  0.00  0.00    -0.336 N 
ATOM     14  H   UNL     1       2.135   4.758   1.862  0.00  0.00    +0.147 HD
ENDROOT
BRANCH   1  18
ATOM     15  C   UNL     1      -1.102   1.599   0.105  0.00  0.00    -0.045 A 
ATOM     16  C   UNL     1       0.120   0.953   0.108  0.00  0.00    +0.004 A 
ATOM     17  C   UNL     1       1.291   1.687   0.089  0.00  0.00    +0.006 A 
ATOM     18  C   UNL     1       1.240   3.068   0.071  0.00  0.00    -0.027 A 
ATOM     19  C   UNL     1       0.018   3.715   0.072  0.00  0.00    +0.006 A 
ATOM     20  C   UNL     1      -1.153   2.981   0.091  0.00  0.00    +0.004 A 
BRANCH  15  22
ATOM     21  C   UNL     1      -3.189   1.155   1.368  0.00  0.00    +0.012 C 
ATOM     22  C   UNL     1      -2.378   0.798   0.120  0.00  0.00    +0.013 C 
ATOM     23  C   UNL     1      -3.199   1.122  -1.131  0.00  0.00    +0.012 C 
ENDBRANCH  15  22
ENDBRANCH   1  18
BRANCH  11  24
ATOM     24  C   UNL     1       2.849   6.582   3.205  0.00  0.00    +0.243 C 
ATOM     25  O   UNL     1       1.806   5.960   3.130  0.00  0.00    -0.270 OA
ATOM     26  N   UNL     1       3.165   7.231   4.343  0.00  0.00    -0.325 N 
ATOM     27  H   UNL     1       3.996   7.727   4.403  0.00  0.00    +0.145 HD
ATOM     28  H   UNL     1       2.562   7.202   5.102  0.00  0.00    +0.145 HD
ENDBRANCH  11  24
TORSDOF 3
