REMARK  Name = ZINC34952641
REMARK  10 active torsions:
REMARK  status: ('A' for Active; 'I' for Inactive)
REMARK    1  A    between atoms: C_1  and  C_2
REMARK    2  A    between atoms: C_2  and  C_3
REMARK    3  A    between atoms: C_3  and  C_4
REMARK    4  A    between atoms: C_4  and  C_6
REMARK    5  A    between atoms: C_4  and  N_22
REMARK    6  A    between atoms: N_8  and  C_9
REMARK    7  A    between atoms: N_12  and  C_15
REMARK    8  A    between atoms: C_15  and  C_16
REMARK    9  A    between atoms: N_22  and  S_23
REMARK   10  A    between atoms: S_23  and  C_26
REMARK                            x       y       z     vdW  Elec       q    Type
REMARK                         _______ _______ _______ _____ _____    ______ ____
ROOT
ATOM      1  C   UNL     1      -2.883  -2.651  -0.202  0.00  0.00    +0.232 C 
ATOM      2  O   UNL     1      -3.306  -3.439   0.617  0.00  0.00    -0.274 OA
ATOM      3  N   UNL     1      -3.654  -2.282  -1.244  0.00  0.00    -0.311 N 
ATOM      4  H   UNL     1      -3.315  -1.652  -1.899  0.00  0.00    +0.149 HD
ENDROOT
BRANCH   3   5
ATOM      5  C   UNL     1      -5.004  -2.833  -1.387  0.00  0.00    +0.069 C 
ATOM      6  C   UNL     1      -5.988  -1.997  -0.564  0.00  0.00    +0.003 C 
ATOM      7  C   UNL     1      -7.407  -2.529  -0.780  0.00  0.00    -0.077 C 
ATOM      8  N   UNL     1      -7.755  -2.437  -2.203  0.00  0.00    +0.382 N 
ATOM      9  C   UNL     1      -6.860  -3.293  -2.991  0.00  0.00    -0.077 C 
ATOM     10  C   UNL     1      -5.421  -2.791  -2.860  0.00  0.00    +0.003 C 
ATOM     11  H   UNL     1      -7.661  -1.481  -2.511  0.00  0.00    -0.081 HD
BRANCH   8  12
ATOM     12  C   UNL     1      -9.144  -2.876  -2.395  0.00  0.00    -0.043 C 
BRANCH  12  13
ATOM     13  C   UNL     1      -9.543  -2.667  -3.833  0.00  0.00    -0.064 A 
ATOM     14  C   UNL     1     -10.105  -1.467  -4.227  0.00  0.00    +0.002 A 
ATOM     15  C   UNL     1     -10.471  -1.276  -5.546  0.00  0.00    +0.000 A 
ATOM     16  C   UNL     1     -10.274  -2.284  -6.472  0.00  0.00    +0.000 A 
ATOM     17  C   UNL     1      -9.711  -3.483  -6.078  0.00  0.00    +0.000 A 
ATOM     18  C   UNL     1      -9.341  -3.673  -4.759  0.00  0.00    +0.002 A 
ENDBRANCH  12  13
ENDBRANCH   8  12
ENDBRANCH   3   5
BRANCH   1  19
ATOM     19  C   UNL     1      -1.494  -2.084  -0.054  0.00  0.00    +0.162 C 
BRANCH  19  20
ATOM     20  N   UNL     1      -0.866  -2.637   1.148  0.00  0.00    -0.178 NA
ATOM     21  H   UNL     1      -1.039  -2.235   2.014  0.00  0.00    +0.149 HD
BRANCH  20  22
ATOM     22  S   UNL     1       0.139  -3.948   1.030  0.00  0.00    +0.059 S 
ATOM     23  O   UNL     1       0.592  -4.233   2.346  0.00  0.00    -0.153 OA
ATOM     24  O   UNL     1      -0.540  -4.909   0.233  0.00  0.00    -0.153 OA
BRANCH  22  25
ATOM     25  C   UNL     1       1.552  -3.439   0.110  0.00  0.00    +0.105 A 
ATOM     26  C   UNL     1       1.535  -3.495  -1.272  0.00  0.00    +0.029 A 
ATOM     27  C   UNL     1       2.643  -3.096  -1.994  0.00  0.00    +0.017 A 
ATOM     28  C   UNL     1       3.771  -2.640  -1.335  0.00  0.00    +0.018 A 
ATOM     29  C   UNL     1       3.788  -2.585   0.047  0.00  0.00    +0.017 A 
ATOM     30  C   UNL     1       2.677  -2.979   0.769  0.00  0.00    +0.029 A 
ATOM     31 BR   UNL     1       5.288  -2.094  -2.322  0.00  0.00    -0.050 Br
ENDBRANCH  22  25
ENDBRANCH  20  22
ENDBRANCH  19  20
BRANCH  19  32
ATOM     32  C   UNL     1      -1.575  -0.561   0.066  0.00  0.00    +0.029 C 
BRANCH  32  34
ATOM     33  C   UNL     1      -0.239   1.550   0.117  0.00  0.00    +0.004 C 
ATOM     34  C   UNL     1      -0.161   0.021   0.121  0.00  0.00    -0.001 C 
ENDBRANCH  32  34
ENDBRANCH  19  32
ENDBRANCH   1  19
TORSDOF 9
