REMARK  Name = ZINC21149848
REMARK  5 active torsions:
REMARK  status: ('A' for Active; 'I' for Inactive)
REMARK    1  A    between atoms: C_1  and  C_2
REMARK    2  A    between atoms: C_6  and  C_7
REMARK    3  A    between atoms: N_24  and  C_27
REMARK    4  A    between atoms: C_32  and  O_33
REMARK    5  A    between atoms: O_33  and  C_34
REMARK                            x       y       z     vdW  Elec       q    Type
REMARK                         _______ _______ _______ _____ _____    ______ ____
ROOT
ATOM      1  C   UNL     1       0.235  -0.583   2.608  0.00  0.00    +0.094 C 
ATOM      2  C   UNL     1       1.547  -0.575   3.340  0.00  0.00    +0.071 C 
ATOM      3  C   UNL     1       1.609   0.488   4.378  0.00  0.00    +0.027 C 
ATOM      4  N   UNL     1       0.692   0.907   5.178  0.00  0.00    -0.316 N 
ATOM      5  C   UNL     1      -0.660   0.848   5.381  0.00  0.00    +0.045 A 
ATOM      6  C   UNL     1      -1.149   1.767   6.326  0.00  0.00    +0.024 A 
ATOM      7  C   UNL     1      -2.483   1.836   6.645  0.00  0.00    +0.002 A 
ATOM      8  C   UNL     1      -3.380   0.983   6.026  0.00  0.00    +0.001 A 
ATOM      9  C   UNL     1      -2.920   0.078   5.101  0.00  0.00    +0.016 A 
ATOM     10  C   UNL     1      -1.561  -0.007   4.765  0.00  0.00    +0.030 A 
ATOM     11  S   UNL     1      -1.125  -1.215   3.578  0.00  0.00    -0.114 S 
ATOM     12  C   UNL     1       2.834   1.119   4.504  0.00  0.00    +0.117 C 
ATOM     13  C   UNL     1       4.070   0.510   3.981  0.00  0.00    +0.258 C 
ATOM     14  N   UNL     1       5.228   1.182   4.139  0.00  0.00    -0.235 N 
ATOM     15  C   UNL     1       5.269   2.373   4.753  0.00  0.00    +0.320 C 
ATOM     16  O   UNL     1       6.345   2.927   4.863  0.00  0.00    -0.251 OA
ATOM     17  N   UNL     1       4.186   2.985   5.252  0.00  0.00    -0.186 N 
ATOM     18  C   UNL     1       2.959   2.431   5.162  0.00  0.00    +0.265 C 
ATOM     19  O   UNL     1       1.983   2.999   5.614  0.00  0.00    -0.269 OA
ATOM     20  O   UNL     1       4.045  -0.570   3.421  0.00  0.00    -0.270 OA
ATOM     21  H   UNL     1       6.051   0.795   3.800  0.00  0.00    +0.159 HD
ATOM     22  H   UNL     1       1.096   1.450   5.873  0.00  0.00    +0.152 HD
ENDROOT
BRANCH   1  28
ATOM     23  C   UNL     1       0.569   0.418  -0.277  0.00  0.00    +0.044 C 
ATOM     24  C   UNL     1       0.530  -1.045   0.082  0.00  0.00    -0.039 A 
ATOM     25  C   UNL     1       0.651  -2.011  -0.899  0.00  0.00    +0.011 A 
ATOM     26  C   UNL     1       0.611  -3.318  -0.543  0.00  0.00    +0.046 A 
ATOM     27  S   UNL     1       0.396  -3.212   1.226  0.00  0.00    -0.100 S 
ATOM     28  C   UNL     1       0.380  -1.433   1.372  0.00  0.00    +0.006 A 
ENDBRANCH   1  28
BRANCH  17  29
ATOM     29  C   UNL     1       4.331   4.232   5.879  0.00  0.00    +0.087 A 
ATOM     30  C   UNL     1       4.222   5.399   5.137  0.00  0.00    +0.028 A 
ATOM     31  C   UNL     1       4.365   6.626   5.756  0.00  0.00    +0.002 A 
ATOM     32  C   UNL     1       4.617   6.694   7.114  0.00  0.00    +0.004 A 
ATOM     33  C   UNL     1       4.727   5.535   7.859  0.00  0.00    +0.047 A 
ATOM     34  C   UNL     1       4.579   4.301   7.247  0.00  0.00    +0.142 A 
BRANCH  34  35
ATOM     35  O   UNL     1       4.681   3.160   7.980  0.00  0.00    -0.493 OA
ATOM     36  C   UNL     1       4.936   3.308   9.378  0.00  0.00    +0.277 C 
ENDBRANCH  34  35
ENDBRANCH  17  29
TORSDOF 3
