REMARK  Name = ZINC06738952
REMARK  5 active torsions:
REMARK  status: ('A' for Active; 'I' for Inactive)
REMARK    1  A    between atoms: C_1  and  C_2
REMARK    2  A    between atoms: C_5  and  C_8
REMARK    3  A    between atoms: C_12  and  S_14
REMARK    4  A    between atoms: S_14  and  C_15
REMARK    5  A    between atoms: C_15  and  C_16
REMARK                            x       y       z     vdW  Elec       q    Type
REMARK                         _______ _______ _______ _____ _____    ______ ____
ROOT
ATOM      1  C   UNL     1      -3.765   6.832   1.244  0.00  0.00    +0.165 A 
ATOM      2  N   UNL     1      -3.673   5.572   0.842  0.00  0.00    -0.193 NA
ATOM      3  C   UNL     1      -2.506   5.066   0.450  0.00  0.00    +0.228 A 
ATOM      4  C   UNL     1      -1.382   5.875   0.466  0.00  0.00    +0.051 A 
ATOM      5  C   UNL     1      -1.513   7.196   0.894  0.00  0.00    +0.108 A 
ATOM      6  N   UNL     1      -2.711   7.635   1.272  0.00  0.00    -0.221 NA
ATOM      7  C   UNL     1      -0.043   5.351   0.033  0.00  0.00    +0.082 C 
ATOM      8  C   UNL     1      -0.048   3.846   0.024  0.00  0.00    -0.000 A 
ATOM      9  C   UNL     1       1.157   3.165   0.009  0.00  0.00    +0.007 A 
ATOM     10  C   UNL     1       1.175   1.784   0.000  0.00  0.00    +0.001 A 
ATOM     11  C   UNL     1      -0.013   1.076   0.008  0.00  0.00    +0.004 A 
ATOM     12  C   UNL     1      -1.217   1.750   0.017  0.00  0.00    +0.046 A 
ATOM     13  C   UNL     1      -1.239   3.140   0.031  0.00  0.00    +0.134 A 
ATOM     14  O   UNL     1      -2.433   3.781   0.044  0.00  0.00    -0.437 OA
ENDROOT
BRANCH   1  19
ATOM     15  C   UNL     1      -8.886   8.872   2.913  0.00  0.00    +0.044 C 
ATOM     16  C   UNL     1      -7.546   8.339   2.476  0.00  0.00    -0.050 A 
ATOM     17  C   UNL     1      -7.431   7.027   2.053  0.00  0.00    +0.004 A 
ATOM     18  C   UNL     1      -6.207   6.532   1.652  0.00  0.00    +0.012 A 
ATOM     19  C   UNL     1      -5.084   7.358   1.673  0.00  0.00    +0.019 A 
ATOM     20  C   UNL     1      -5.205   8.678   2.105  0.00  0.00    +0.012 A 
ATOM     21  C   UNL     1      -6.435   9.163   2.499  0.00  0.00    +0.004 A 
ENDBRANCH   1  19
BRANCH   5  22
ATOM     22  S   UNL     1      -0.114   8.266   0.933  0.00  0.00    -0.096 S 
BRANCH  22  23
ATOM     23  C   UNL     1      -0.893   9.779   1.552  0.00  0.00    +0.171 C 
BRANCH  23  24
ATOM     24  C   UNL     1       0.144  10.866   1.670  0.00  0.00    +0.221 C 
ATOM     25  O   UNL     1       1.296  10.640   1.366  0.00  0.00    -0.275 OA
ATOM     26  N   UNL     1      -0.209  12.088   2.113  0.00  0.00    -0.329 N 
ATOM     27  H   UNL     1      -1.131  12.269   2.356  0.00  0.00    +0.145 HD
ATOM     28  H   UNL     1       0.459  12.788   2.189  0.00  0.00    +0.145 HD
ENDBRANCH  23  24
ENDBRANCH  22  23
ENDBRANCH   5  22
TORSDOF 4
