REMARK  Name = ZINC55503430
REMARK  9 active torsions:
REMARK  status: ('A' for Active; 'I' for Inactive)
REMARK    1  A    between atoms: C_1  and  C_2
REMARK    2  A    between atoms: C_2  and  C_3
REMARK    3  A    between atoms: C_3  and  C_5
REMARK    4  A    between atoms: C_3  and  C_6
REMARK    5  A    between atoms: C_6  and  C_7
REMARK    6  A    between atoms: C_8  and  C_28
REMARK    7  A    between atoms: C_16  and  C_18
REMARK    8  A    between atoms: C_22  and  S_24
REMARK    9  A    between atoms: S_24  and  N_27
REMARK                            x       y       z     vdW  Elec       q    Type
REMARK                         _______ _______ _______ _____ _____    ______ ____
ROOT
ATOM      1  C   UNL     1       1.227  -2.500  -2.628  0.00  0.00    -0.023 A 
ATOM      2  C   UNL     1       0.459  -2.626  -3.722  0.00  0.00    -0.007 A 
ATOM      3  S   UNL     1       1.600  -3.205  -4.963  0.00  0.00    -0.073 S 
ATOM      4  C   UNL     1       3.075  -3.261  -3.977  0.00  0.00    +0.116 A 
ATOM      5  C   UNL     1       2.639  -2.823  -2.712  0.00  0.00    +0.075 A 
ATOM      6  C   UNL     1       3.645  -2.763  -1.693  0.00  0.00    +0.260 A 
ATOM      7  O   UNL     1       3.361  -2.399  -0.565  0.00  0.00    -0.267 OA
ATOM      8  N   UNL     1       4.908  -3.114  -1.999  0.00  0.00    -0.306 N 
ATOM      9  H   UNL     1       5.592  -3.075  -1.312  0.00  0.00    +0.170 HD
ATOM     10  C   UNL     1       5.243  -3.524  -3.259  0.00  0.00    +0.142 A 
ATOM     11  N   UNL     1       4.336  -3.597  -4.210  0.00  0.00    -0.222 NA
ATOM     12  C   UNL     1      -1.014  -2.346  -3.866  0.00  0.00    +0.052 C 
ENDROOT
BRANCH  10  13
ATOM     13  C   UNL     1       6.641  -3.901  -3.555  0.00  0.00    +0.019 A 
ATOM     14  C   UNL     1       7.610  -3.843  -2.551  0.00  0.00    +0.011 A 
ATOM     15  C   UNL     1       8.913  -4.196  -2.834  0.00  0.00    +0.003 A 
ATOM     16  C   UNL     1       9.261  -4.606  -4.109  0.00  0.00    +0.028 A 
ATOM     17  C   UNL     1       8.306  -4.666  -5.108  0.00  0.00    +0.106 A 
ATOM     18  C   UNL     1       6.997  -4.322  -4.837  0.00  0.00    +0.040 A 
BRANCH  17  19
ATOM     19  S   UNL     1       8.759  -5.190  -6.728  0.00  0.00    +0.056 S 
ATOM     20  O   UNL     1       7.798  -4.638  -7.618  0.00  0.00    -0.153 OA
ATOM     21  O   UNL     1      10.152  -4.940  -6.861  0.00  0.00    -0.153 OA
BRANCH  19  22
ATOM     22  N   UNL     1       8.566  -6.833  -6.783  0.00  0.00    -0.204 NA
ATOM     23  H   UNL     1       8.253  -7.311  -6.000  0.00  0.00    +0.144 HD
ATOM     24  H   UNL     1       8.766  -7.318  -7.599  0.00  0.00    +0.144 HD
ENDBRANCH  19  22
ENDBRANCH  17  19
ENDBRANCH  10  13
BRANCH   1  25
ATOM     25  C   UNL     1       0.630  -2.023  -1.329  0.00  0.00    +0.040 C 
BRANCH  25  26
ATOM     26  C   UNL     1       0.718  -0.497  -1.257  0.00  0.00    -0.010 C 
ATOM     27  C   UNL     1       2.187  -0.073  -1.207  0.00  0.00    +0.008 C 
BRANCH  26  29
ATOM     28  C   UNL     1      -0.019   1.526   0.010  0.00  0.00    +0.004 C 
ATOM     29  C   UNL     1       0.002  -0.004   0.002  0.00  0.00    +0.000 C 
ENDBRANCH  26  29
ENDBRANCH  25  26
ENDBRANCH   1  25
TORSDOF 6
