REMARK  Name = ZINC12458337
REMARK  9 active torsions:
REMARK  status: ('A' for Active; 'I' for Inactive)
REMARK    1  A    between atoms: C_1  and  O_2
REMARK    2  A    between atoms: O_2  and  C_3
REMARK    3  A    between atoms: C_7  and  C_9
REMARK    4  A    between atoms: C_9  and  C_10
REMARK    5  A    between atoms: C_10  and  N_11
REMARK    6  A    between atoms: C_12  and  C_14
REMARK    7  A    between atoms: C_14  and  C_15
REMARK    8  A    between atoms: C_22  and  C_23
REMARK    9  A    between atoms: C_22  and  N_61
REMARK                            x       y       z     vdW  Elec       q    Type
REMARK                         _______ _______ _______ _____ _____    ______ ____
ROOT
ATOM      1  C   UNL     1       1.539   5.739   1.569  0.00  0.00    +0.028 C 
ATOM      2  C   UNL     1       1.815   6.593   2.773  0.00  0.00    +0.200 C 
ATOM      3  O   UNL     1       1.780   7.799   2.651  0.00  0.00    -0.278 OA
ATOM      4  N   UNL     1       2.099   6.080   3.975  0.00  0.00    -0.318 N 
ATOM      5  C   UNL     1       2.131   4.644   4.237  0.00  0.00    +0.085 C 
ATOM      6  C   UNL     1       2.252   3.873   2.921  0.00  0.00    -0.058 C 
ATOM      7  H   UNL     1       2.291   6.689   4.705  0.00  0.00    +0.149 HD
ATOM      8  N   UNL     1       1.207   4.369   2.003  0.00  0.00    +0.391 N 
ATOM      9  H   UNL     1       0.306   4.382   2.496  0.00  0.00    -0.080 HD
ENDROOT
BRANCH   1  10
ATOM     10  C   UNL     1       0.350   6.319   0.799  0.00  0.00    +0.089 C 
BRANCH  10  12
ATOM     11  N   UNL     1      -2.030   6.830   1.238  0.00  0.00    -0.315 N 
ATOM     12  C   UNL     1      -0.881   6.269   1.666  0.00  0.00    +0.212 C 
ATOM     13  O   UNL     1      -0.839   5.725   2.749  0.00  0.00    -0.276 OA
ATOM     14  H   UNL     1      -2.063   7.265   0.371  0.00  0.00    +0.149 HD
BRANCH  11  15
ATOM     15  C   UNL     1      -3.227   6.782   2.080  0.00  0.00    +0.109 C 
BRANCH  15  16
ATOM     16  C   UNL     1      -4.383   7.485   1.365  0.00  0.00    +0.054 C 
BRANCH  16  21
ATOM     17  C   UNL     1      -6.997   8.404   3.934  0.00  0.00    +0.120 A 
ATOM     18  C   UNL     1      -7.879   7.340   3.820  0.00  0.00    +0.045 A 
ATOM     19  C   UNL     1      -7.627   6.329   2.914  0.00  0.00    +0.004 A 
ATOM     20  C   UNL     1      -6.498   6.379   2.116  0.00  0.00    +0.004 A 
ATOM     21  C   UNL     1      -5.614   7.436   2.232  0.00  0.00    -0.042 A 
ATOM     22  C   UNL     1      -5.862   8.450   3.137  0.00  0.00    +0.049 A 
BRANCH  17  24
ATOM     23  C   UNL     1      -8.430   9.287   5.613  0.00  0.00    +0.277 C 
ATOM     24  O   UNL     1      -7.243   9.400   4.825  0.00  0.00    -0.495 OA
ENDBRANCH  17  24
ENDBRANCH  16  21
ENDBRANCH  15  16
ENDBRANCH  11  15
ENDBRANCH  10  12
ENDBRANCH   1  10
BRANCH   8  25
ATOM     25  C   UNL     1       1.099   3.477   0.826  0.00  0.00    -0.042 C 
BRANCH  25  26
ATOM     26  C   UNL     1       0.874   2.063   1.298  0.00  0.00    -0.063 A 
ATOM     27  C   UNL     1       1.970   1.233   1.526  0.00  0.00    +0.002 A 
ATOM     28  C   UNL     1       1.802  -0.049   1.952  0.00  0.00    +0.009 A 
ATOM     29  C   UNL     1       0.505  -0.545   2.167  0.00  0.00    -0.018 A 
ATOM     30  C   UNL     1       0.291  -1.863   2.607  0.00  0.00    +0.008 A 
ATOM     31  C   UNL     1      -0.979  -2.310   2.804  0.00  0.00    +0.001 A 
ATOM     32  C   UNL     1      -2.075  -1.479   2.577  0.00  0.00    +0.001 A 
ATOM     33  C   UNL     1      -1.907  -0.198   2.151  0.00  0.00    +0.008 A 
ATOM     34  C   UNL     1      -0.610   0.299   1.936  0.00  0.00    -0.018 A 
ATOM     35  C   UNL     1      -0.397   1.617   1.496  0.00  0.00    +0.010 A 
ENDBRANCH  25  26
ENDBRANCH   8  25
TORSDOF 8
