REMARK  Name = ZINC21535766
REMARK  10 active torsions:
REMARK  status: ('A' for Active; 'I' for Inactive)
REMARK    1  A    between atoms: C_1  and  C_2
REMARK    2  A    between atoms: C_2  and  C_3
REMARK    3  A    between atoms: C_2  and  C_4
REMARK    4  A    between atoms: C_4  and  C_6
REMARK    5  A    between atoms: C_4  and  N_17
REMARK    6  A    between atoms: N_8  and  C_9
REMARK    7  A    between atoms: C_13  and  S_15
REMARK    8  A    between atoms: S_15  and  C_16
REMARK    9  A    between atoms: N_17  and  S_18
REMARK   10  A    between atoms: S_18  and  C_21
REMARK                            x       y       z     vdW  Elec       q    Type
REMARK                         _______ _______ _______ _____ _____    ______ ____
ROOT
ATOM      1  N   UNL     1      -3.816  -0.726   1.488  0.00  0.00    -0.178 NA
ATOM      2  H   UNL     1      -3.607  -1.806   1.478  0.00  0.00    +0.149 HD
ENDROOT
BRANCH   1   3
ATOM      3  S   UNL     1      -2.951   0.276   0.493  0.00  0.00    +0.059 S 
ATOM      4  O   UNL     1      -3.868   1.235  -0.015  0.00  0.00    -0.153 OA
ATOM      5  O   UNL     1      -2.178  -0.563  -0.354  0.00  0.00    -0.153 OA
BRANCH   3   6
ATOM      6  C   UNL     1      -1.810   1.157   1.506  0.00  0.00    +0.106 A 
ATOM      7  C   UNL     1      -2.168   2.369   2.069  0.00  0.00    +0.030 A 
ATOM      8  C   UNL     1      -1.266   3.045   2.853  0.00  0.00    +0.025 A 
ATOM      9  C   UNL     1       0.021   2.535   3.097  0.00  0.00    +0.037 A 
ATOM     10  C   UNL     1       0.370   1.324   2.540  0.00  0.00    -0.024 A 
ATOM     11  C   UNL     1      -0.554   0.647   1.743  0.00  0.00    +0.034 A 
ATOM     12  C   UNL     1       1.687   0.640   2.718  0.00  0.00    +0.037 C 
ATOM     13  C   UNL     1       2.326   0.798   4.062  0.00  0.00    +0.014 C 
ATOM     14  C   UNL     1       2.984   2.143   4.261  0.00  0.00    +0.096 C 
ATOM     15  C   UNL     1       1.985   3.226   4.455  0.00  0.00    +0.217 C 
ATOM     16  O   UNL     1       2.290   4.109   5.230  0.00  0.00    -0.275 OA
ATOM     17  N   UNL     1       0.819   3.332   3.885  0.00  0.00    -0.285 N 
ATOM     18  H   UNL     1       0.481   4.341   4.167  0.00  0.00    +0.155 HD
ENDBRANCH   3   6
ENDBRANCH   1   3
BRANCH   1  19
ATOM     19  C   UNL     1      -4.688  -0.158   2.520  0.00  0.00    +0.165 C 
BRANCH  19  20
ATOM     20  C   UNL     1      -4.243  -0.643   3.876  0.00  0.00    +0.236 C 
ATOM     21  O   UNL     1      -3.628  -1.683   3.976  0.00  0.00    -0.274 OA
ATOM     22  N   UNL     1      -4.528   0.081   4.977  0.00  0.00    -0.284 N 
ATOM     23  H   UNL     1      -5.168   0.972   4.899  0.00  0.00    +0.155 HD
BRANCH  22  24
ATOM     24  C   UNL     1      -4.009  -0.302   6.219  0.00  0.00    +0.034 A 
ATOM     25  C   UNL     1      -2.768  -0.921   6.293  0.00  0.00    +0.023 A 
ATOM     26  C   UNL     1      -2.254  -1.299   7.519  0.00  0.00    +0.003 A 
ATOM     27  C   UNL     1      -2.973  -1.062   8.675  0.00  0.00    +0.015 A 
ATOM     28  C   UNL     1      -4.215  -0.443   8.608  0.00  0.00    +0.009 A 
ATOM     29  C   UNL     1      -4.731  -0.057   7.378  0.00  0.00    +0.038 A 
BRANCH  28  30
ATOM     30  S   UNL     1      -5.131  -0.141  10.082  0.00  0.00    -0.129 S 
ATOM     31  C   UNL     1      -4.070  -0.796  11.400  0.00  0.00    +0.090 C 
ENDBRANCH  28  30
ENDBRANCH  22  24
ENDBRANCH  19  20
BRANCH  19  33
ATOM     32  C   UNL     1      -6.621  -0.014   0.944  0.00  0.00    +0.009 C 
ATOM     33  C   UNL     1      -6.131  -0.601   2.269  0.00  0.00    +0.010 C 
ATOM     34  C   UNL     1      -6.191  -2.129   2.203  0.00  0.00    +0.009 C 
ENDBRANCH  19  33
ENDBRANCH   1  19
TORSDOF 7
