REMARK  Name = ZINC12424827
REMARK  6 active torsions:
REMARK  status: ('A' for Active; 'I' for Inactive)
REMARK    1  A    between atoms: C_10  and  C_13
REMARK    2  A    between atoms: C_13  and  C_14
REMARK    3  A    between atoms: C_14  and  O_16
REMARK    4  A    between atoms: O_16  and  C_17
REMARK    5  A    between atoms: C_17  and  C_18
REMARK    6  A    between atoms: C_21  and  C_23
REMARK                            x       y       z     vdW  Elec       q    Type
REMARK                         _______ _______ _______ _____ _____    ______ ____
ROOT
ATOM      1  C   UNL     1      -0.014   1.204   0.009  0.00  0.00    +0.309 C 
ATOM      2  O   UNL     1       0.002  -0.004   0.002  0.00  0.00    -0.251 OA
ENDROOT
BRANCH   1   3
ATOM      3  C   UNL     1      -1.329   1.940   0.019  0.00  0.00    +0.144 C 
BRANCH   3  13
ATOM      4  C   UNL     1      -4.152   2.982  -4.492  0.00  0.00    +0.002 A 
ATOM      5  C   UNL     1      -3.259   2.018  -4.925  0.00  0.00    +0.001 A 
ATOM      6  C   UNL     1      -2.742   1.104  -4.025  0.00  0.00    +0.016 A 
ATOM      7  C   UNL     1      -3.119   1.158  -2.693  0.00  0.00    +0.030 A 
ATOM      8  C   UNL     1      -4.015   2.130  -2.248  0.00  0.00    +0.047 A 
ATOM      9  C   UNL     1      -4.529   3.041  -3.165  0.00  0.00    +0.024 A 
ATOM     10  N   UNL     1      -4.403   2.216  -0.914  0.00  0.00    -0.284 N 
ATOM     11  C   UNL     1      -3.793   1.658   0.127  0.00  0.00    +0.231 C 
ATOM     12  O   UNL     1      -4.321   1.739   1.216  0.00  0.00    -0.274 OA
ATOM     13  C   UNL     1      -2.479   0.930   0.019  0.00  0.00    +0.148 C 
ATOM     14  S   UNL     1      -2.468  -0.009  -1.539  0.00  0.00    -0.110 S 
ATOM     15  H   UNL     1      -5.199   2.737  -0.725  0.00  0.00    +0.155 HD
ENDBRANCH   3  13
ENDBRANCH   1   3
BRANCH   1  16
ATOM     16  O   UNL     1       1.139   1.891   0.001  0.00  0.00    -0.455 OA
BRANCH  16  17
ATOM     17  C   UNL     1       2.367   1.117  -0.015  0.00  0.00    +0.329 C 
BRANCH  17  18
ATOM     18  C   UNL     1       3.550   2.051  -0.021  0.00  0.00    +0.255 A 
ATOM     19  N   UNL     1       4.160   2.527   1.028  0.00  0.00    -0.108 NA
ATOM     20  N   UNL     1       5.127   3.289   0.654  0.00  0.00    -0.107 NA
ATOM     21  C   UNL     1       5.161   3.333  -0.657  0.00  0.00    +0.248 A 
ATOM     22  O   UNL     1       4.162   2.549  -1.109  0.00  0.00    -0.417 OA
BRANCH  21  23
ATOM     23  C   UNL     1       6.117   4.099  -1.484  0.00  0.00    +0.039 A 
ATOM     24  C   UNL     1       6.038   4.046  -2.877  0.00  0.00    +0.014 A 
ATOM     25  C   UNL     1       6.929   4.769  -3.643  0.00  0.00    +0.021 A 
ATOM     26  C   UNL     1       7.908   5.535  -3.034  0.00  0.00    +0.041 A 
ATOM     27  C   UNL     1       7.996   5.586  -1.653  0.00  0.00    +0.021 A 
ATOM     28  C   UNL     1       7.106   4.873  -0.876  0.00  0.00    +0.014 A 
ATOM     29 CL   UNL     1       9.030   6.435  -4.005  0.00  0.00    -0.084 Cl
ENDBRANCH  21  23
ENDBRANCH  17  18
ENDBRANCH  16  17
ENDBRANCH   1  16
TORSDOF 6
