REMARK  Name = ZINC32537921
REMARK  8 active torsions:
REMARK  status: ('A' for Active; 'I' for Inactive)
REMARK    1  A    between atoms: C_1  and  C_2
REMARK    2  A    between atoms: C_10  and  C_11
REMARK    3  A    between atoms: N_13  and  C_14
REMARK    4  A    between atoms: N_13  and  C_21
REMARK    5  A    between atoms: C_14  and  C_15
REMARK    6  A    between atoms: C_22  and  N_37
REMARK    7  A    between atoms: N_23  and  C_30
REMARK    8  A    between atoms: C_30  and  C_31
REMARK                            x       y       z     vdW  Elec       q    Type
REMARK                         _______ _______ _______ _____ _____    ______ ____
ROOT
ATOM      1  C   UNL     1       3.600  -2.155  -1.942  0.00  0.00    +0.287 C 
ATOM      2  O   UNL     1       3.859  -2.421  -3.102  0.00  0.00    -0.266 OA
ATOM      3  N   UNL     1       4.043  -1.004  -1.399  0.00  0.00    -0.253 N 
ENDROOT
BRANCH   1  13
ATOM      4  C   UNL     1       2.563  -4.922  -2.913  0.00  0.00    +0.048 C 
ATOM      5  C   UNL     1       2.352  -4.299  -1.557  0.00  0.00    +0.008 A 
ATOM      6  C   UNL     1       1.620  -4.874  -0.429  0.00  0.00    +0.027 A 
ATOM      7  C   UNL     1       0.930  -6.072  -0.226  0.00  0.00    +0.012 A 
ATOM      8  C   UNL     1       0.331  -6.314   0.978  0.00  0.00    +0.004 A 
ATOM      9  C   UNL     1       0.402  -5.377   2.001  0.00  0.00    +0.042 A 
ATOM     10  C   UNL     1       1.079  -4.188   1.821  0.00  0.00    +0.166 A 
ATOM     11  C   UNL     1       1.697  -3.921   0.602  0.00  0.00    +0.171 A 
ATOM     12  O   UNL     1       2.411  -2.876   0.139  0.00  0.00    -0.447 OA
ATOM     13  C   UNL     1       2.806  -3.091  -1.134  0.00  0.00    +0.194 A 
ATOM     14  F   UNL     1       1.141  -3.285   2.824  0.00  0.00    -0.202 F 
ENDBRANCH   1  13
BRANCH   3  15
ATOM     15  C   UNL     1       4.891  -0.155  -2.141  0.00  0.00    +0.140 A 
ATOM     16  C   UNL     1       6.194   0.059  -1.741  0.00  0.00    +0.128 A 
ATOM     17  N   UNL     1       6.998   0.888  -2.488  0.00  0.00    -0.276 N 
ATOM     18  C   UNL     1       6.517   1.492  -3.589  0.00  0.00    +0.331 A 
ATOM     19  O   UNL     1       7.243   2.224  -4.234  0.00  0.00    -0.246 OA
ATOM     20  N   UNL     1       5.248   1.299  -3.991  0.00  0.00    -0.273 N 
ATOM     21  H   UNL     1       4.875   1.803  -4.896  0.00  0.00    +0.173 HD
ATOM     22  C   UNL     1       4.420   0.493  -3.299  0.00  0.00    +0.277 A 
ATOM     23  O   UNL     1       3.272   0.325  -3.672  0.00  0.00    -0.266 OA
BRANCH  16  24
ATOM     24  N   UNL     1       6.684  -0.553  -0.612  0.00  0.00    -0.343 N 
ATOM     25  H   UNL     1       7.724  -0.378  -0.299  0.00  0.00    +0.144 HD
ATOM     26  H   UNL     1       6.037  -1.218  -0.021  0.00  0.00    +0.144 HD
ENDBRANCH  16  24
BRANCH  17  27
ATOM     27  C   UNL     1       8.386   1.119  -2.078  0.00  0.00    +0.163 C 
BRANCH  27  28
ATOM     28  C   UNL     1       8.444   2.304  -1.149  0.00  0.00    -0.028 A 
ATOM     29  C   UNL     1       8.632   3.575  -1.661  0.00  0.00    +0.005 A 
ATOM     30  C   UNL     1       8.681   4.662  -0.809  0.00  0.00    +0.000 A 
ATOM     31  C   UNL     1       8.552   4.479   0.555  0.00  0.00    +0.000 A 
ATOM     32  C   UNL     1       8.370   3.207   1.067  0.00  0.00    +0.000 A 
ATOM     33  C   UNL     1       8.316   2.120   0.215  0.00  0.00    +0.005 A 
ENDBRANCH  27  28
ENDBRANCH  17  27
ENDBRANCH   3  15
BRANCH   3  34
ATOM     34  C   UNL     1       3.644  -0.634  -0.039  0.00  0.00    +0.149 C 
BRANCH  34  35
ATOM     35  C   UNL     1       2.377   0.182  -0.092  0.00  0.00    -0.030 A 
ATOM     36  C   UNL     1       1.150  -0.451  -0.160  0.00  0.00    +0.005 A 
ATOM     37  C   UNL     1      -0.011   0.297  -0.208  0.00  0.00    +0.000 A 
ATOM     38  C   UNL     1       0.055   1.678  -0.189  0.00  0.00    +0.000 A 
ATOM     39  C   UNL     1       1.282   2.311  -0.121  0.00  0.00    +0.000 A 
ATOM     40  C   UNL     1       2.443   1.562  -0.073  0.00  0.00    +0.005 A 
ENDBRANCH  34  35
ENDBRANCH   3  34
TORSDOF 7
