REMARK  Name = ZINC12659710
REMARK  6 active torsions:
REMARK  status: ('A' for Active; 'I' for Inactive)
REMARK    1  A    between atoms: C_1  and  C_2
REMARK    2  A    between atoms: C_2  and  C_4
REMARK    3  A    between atoms: C_2  and  N_57
REMARK    4  A    between atoms: C_10  and  C_11
REMARK    5  A    between atoms: C_10  and  N_57
REMARK    6  A    between atoms: C_18  and  C_31
REMARK                            x       y       z     vdW  Elec       q    Type
REMARK                         _______ _______ _______ _____ _____    ______ ____
ROOT
ATOM      1  C   UNL     1       2.134   0.987   1.179  0.00  0.00    +0.087 C 
ATOM      2  C   UNL     1       3.592   1.447   1.228  0.00  0.00    +0.042 C 
ATOM      3  C   UNL     1       4.139   2.100  -0.000  0.00  0.00    +0.014 C 
ATOM      4  C   UNL     1       3.824   3.581  -0.172  0.00  0.00    +0.030 C 
ATOM      5  C   UNL     1       4.144   4.335   1.120  0.00  0.00    -0.023 C 
ATOM      6  C   UNL     1       5.629   4.231   1.444  0.00  0.00    +0.007 C 
ATOM      7  C   UNL     1       6.482   4.840   0.334  0.00  0.00    +0.003 C 
ATOM      8  C   UNL     1       6.216   4.133  -0.996  0.00  0.00    +0.037 C 
ATOM      9  C   UNL     1       4.717   4.132  -1.294  0.00  0.00    +0.096 C 
ATOM     10  C   UNL     1       4.150   5.205  -2.215  0.00  0.00    +0.196 C 
ATOM     11  O   UNL     1       4.316   3.849  -2.637  0.00  0.00    -0.368 OA
ATOM     12  C   UNL     1       3.306   3.747   2.252  0.00  0.00    +0.052 C 
ATOM     13  C   UNL     1       3.672   2.288   2.514  0.00  0.00    +0.181 C 
ATOM     14  O   UNL     1       2.578   1.727   3.333  0.00  0.00    -0.461 OA
ATOM     15  C   UNL     1       1.549   1.482   2.494  0.00  0.00    +0.309 C 
ATOM     16  O   UNL     1       0.378   1.628   2.739  0.00  0.00    -0.251 OA
ATOM     17  C   UNL     1       3.751   5.809   0.966  0.00  0.00    +0.011 C 
ENDROOT
BRANCH   1  18
ATOM     18  C   UNL     1       1.353   1.550  -0.003  0.00  0.00    -0.067 C 
BRANCH  18  19
ATOM     19  N   UNL     1      -0.015   0.998   0.015  0.00  0.00    +0.384 N 
ATOM     20  H   UNL     1       0.032  -0.025  -0.054  0.00  0.00    -0.085 HD
ATOM     21  H   UNL     1      -0.475   1.261   0.894  0.00  0.00    -0.085 HD
BRANCH  19  23
ATOM     22  C   UNL     1      -0.534   0.673  -2.362  0.00  0.00    -0.009 C 
ATOM     23  C   UNL     1      -0.795   1.527  -1.120  0.00  0.00    -0.044 C 
BRANCH  23  24
ATOM     24  C   UNL     1      -2.262   1.479  -0.777  0.00  0.00    -0.062 A 
ATOM     25  C   UNL     1      -2.778   0.389  -0.101  0.00  0.00    +0.002 A 
ATOM     26  C   UNL     1      -4.123   0.347   0.219  0.00  0.00    +0.000 A 
ATOM     27  C   UNL     1      -4.953   1.390  -0.148  0.00  0.00    +0.000 A 
ATOM     28  C   UNL     1      -4.438   2.477  -0.829  0.00  0.00    +0.000 A 
ATOM     29  C   UNL     1      -3.092   2.521  -1.144  0.00  0.00    +0.002 A 
ENDBRANCH  23  24
ENDBRANCH  19  23
ENDBRANCH  18  19
ENDBRANCH   1  18
TORSDOF 4
