REMARK  Name = ZINC36398810
REMARK  9 active torsions:
REMARK  status: ('A' for Active; 'I' for Inactive)
REMARK    1  A    between atoms: C_1  and  O_2
REMARK    2  A    between atoms: O_2  and  C_3
REMARK    3  A    between atoms: C_6  and  C_9
REMARK    4  A    between atoms: C_9  and  C_10
REMARK    5  A    between atoms: C_9  and  C_28
REMARK    6  A    between atoms: C_10  and  N_11
REMARK    7  A    between atoms: C_12  and  C_14
REMARK    8  A    between atoms: C_14  and  N_15
REMARK    9  A    between atoms: C_17  and  C_25
REMARK                            x       y       z     vdW  Elec       q    Type
REMARK                         _______ _______ _______ _____ _____    ______ ____
ROOT
ATOM      1  C   UNL     1       1.490  -3.382  -5.115  0.00  0.00    +0.117 C 
ENDROOT
BRANCH   1   2
ATOM      2  N   UNL     1       2.107  -3.938  -6.322  0.00  0.00    -0.313 N 
ATOM      3  C   UNL     1       1.395  -4.747  -7.131  0.00  0.00    +0.230 C 
ATOM      4  O   UNL     1       0.244  -5.016  -6.860  0.00  0.00    -0.274 OA
ATOM      5  H   UNL     1       3.027  -3.722  -6.539  0.00  0.00    +0.149 HD
BRANCH   3   6
ATOM      6  C   UNL     1       2.030  -5.319  -8.373  0.00  0.00    +0.201 C 
BRANCH   6   7
ATOM      7  N   UNL     1       1.058  -6.160  -9.075  0.00  0.00    -0.314 N 
ATOM      8  C   UNL     1       0.938  -7.598  -8.777  0.00  0.00    +0.160 C 
ATOM      9  C   UNL     1      -0.558  -7.939  -8.738  0.00  0.00    +0.275 C 
ATOM     10  O   UNL     1      -1.142  -7.599  -9.998  0.00  0.00    -0.476 OA
ATOM     11  C   UNL     1      -0.886  -6.362 -10.500  0.00  0.00    +0.143 A 
ATOM     12  C   UNL     1       0.205  -5.623 -10.052  0.00  0.00    +0.073 A 
ATOM     13  C   UNL     1       0.452  -4.364 -10.573  0.00  0.00    +0.027 A 
ATOM     14  C   UNL     1      -0.393  -3.838 -11.534  0.00  0.00    +0.002 A 
ATOM     15  C   UNL     1      -1.481  -4.567 -11.973  0.00  0.00    +0.004 A 
ATOM     16  C   UNL     1      -1.724  -5.827 -11.466  0.00  0.00    +0.047 A 
BRANCH   9  17
ATOM     17  C   UNL     1      -0.733  -9.414  -8.482  0.00  0.00    +0.253 C 
ATOM     18  O   UNL     1      -1.232 -10.122  -9.332  0.00  0.00    -0.272 OA
ATOM     19  N   UNL     1      -0.336  -9.947  -7.310  0.00  0.00    -0.326 N 
ATOM     20  H   UNL     1       0.062  -9.381  -6.630  0.00  0.00    +0.145 HD
ATOM     21  H   UNL     1      -0.449 -10.896  -7.145  0.00  0.00    +0.145 HD
ENDBRANCH   9  17
ENDBRANCH   6   7
ENDBRANCH   3   6
ENDBRANCH   1   2
BRANCH   1  22
ATOM     22  C   UNL     1       2.505  -2.503  -4.381  0.00  0.00    +0.068 C 
BRANCH  22  23
ATOM     23  C   UNL     1       3.645  -3.357  -3.889  0.00  0.00    -0.013 A 
ATOM     24  C   UNL     1       3.558  -4.394  -3.042  0.00  0.00    +0.088 A 
ATOM     25  N   UNL     1       4.800  -4.926  -2.826  0.00  0.00    -0.360 N 
ATOM     26  H   UNL     1       4.990  -5.683  -2.250  0.00  0.00    +0.165 HD
ATOM     27  C   UNL     1       5.741  -4.225  -3.547  0.00  0.00    +0.047 A 
ATOM     28  C   UNL     1       5.058  -3.216  -4.250  0.00  0.00    +0.003 A 
ATOM     29  C   UNL     1       5.765  -2.343  -5.079  0.00  0.00    +0.010 A 
ATOM     30  C   UNL     1       7.119  -2.477  -5.206  0.00  0.00    +0.001 A 
ATOM     31  C   UNL     1       7.797  -3.474  -4.518  0.00  0.00    +0.002 A 
ATOM     32  C   UNL     1       7.120  -4.340  -3.688  0.00  0.00    +0.026 A 
ENDBRANCH  22  23
BRANCH  22  36
ATOM     33  C   UNL     1       0.606  -0.607  -1.056  0.00  0.00    +0.120 A 
ATOM     34  C   UNL     1       1.173   0.161  -2.062  0.00  0.00    +0.046 A 
ATOM     35  C   UNL     1       1.786  -0.455  -3.136  0.00  0.00    +0.008 A 
ATOM     36  C   UNL     1       1.835  -1.835  -3.209  0.00  0.00    -0.038 A 
ATOM     37  C   UNL     1       1.270  -2.602  -2.207  0.00  0.00    +0.008 A 
ATOM     38  C   UNL     1       0.661  -1.992  -1.128  0.00  0.00    +0.046 A 
BRANCH  33  40
ATOM     39  C   UNL     1      -0.017   1.425   0.010  0.00  0.00    +0.277 C 
ATOM     40  O   UNL     1       0.002  -0.004   0.002  0.00  0.00    -0.495 OA
ENDBRANCH  33  40
ENDBRANCH  22  36
ENDBRANCH   1  22
TORSDOF 8
