REMARK  Name = ZINC39638016
REMARK  10 active torsions:
REMARK  status: ('A' for Active; 'I' for Inactive)
REMARK    1  A    between atoms: C_1  and  C_2
REMARK    2  A    between atoms: C_2  and  C_3
REMARK    3  A    between atoms: C_3  and  C_5
REMARK    4  A    between atoms: C_3  and  N_8
REMARK    5  A    between atoms: C_5  and  O_6
REMARK    6  A    between atoms: O_6  and  C_7
REMARK    7  A    between atoms: C_9  and  C_11
REMARK    8  A    between atoms: C_22  and  C_24
REMARK    9  A    between atoms: C_25  and  C_37
REMARK   10  A    between atoms: C_28  and  C_29
REMARK                            x       y       z     vdW  Elec       q    Type
REMARK                         _______ _______ _______ _____ _____    ______ ____
ROOT
ATOM      1  C   UNL     1       3.498   0.726  -1.159  0.00  0.00    +0.100 C 
ATOM      2  C   UNL     1       4.105   1.107   0.210  0.00  0.00    +0.121 C 
ATOM      3  N   UNL     1       4.863   2.354  -0.051  0.00  0.00    -0.296 N 
ATOM      4  C   UNL     1       4.008   3.116  -0.992  0.00  0.00    +0.115 C 
ATOM      5  C   UNL     1       3.435   2.047  -1.944  0.00  0.00    -0.004 C 
ATOM      6  C   UNL     1       1.989   2.380  -2.302  0.00  0.00    -0.010 C 
ATOM      7  C   UNL     1       1.957   3.666  -3.132  0.00  0.00    -0.082 C 
ATOM      8  N   UNL     1       2.755   3.484  -4.351  0.00  0.00    +0.379 N 
ATOM      9  C   UNL     1       4.162   3.256  -4.000  0.00  0.00    -0.082 C 
ATOM     10  C   UNL     1       4.287   1.953  -3.206  0.00  0.00    -0.010 C 
ATOM     11  C   UNL     1       6.060   2.714   0.454  0.00  0.00    +0.252 C 
ATOM     12  O   UNL     1       6.556   3.780   0.141  0.00  0.00    -0.270 OA
ATOM     13  H   UNL     1       2.405   2.689  -4.865  0.00  0.00    -0.086 HD
ATOM     14  H   UNL     1       2.683   4.310  -4.926  0.00  0.00    -0.086 HD
ENDROOT
BRANCH  11  15
ATOM     15  C   UNL     1       6.768   1.817   1.383  0.00  0.00    +0.106 A 
ATOM     16  C   UNL     1       7.664   0.844   1.051  0.00  0.00    +0.147 A 
ATOM     17  O   UNL     1       8.079   0.255   2.175  0.00  0.00    -0.359 OA
ATOM     18  N   UNL     1       7.440   0.854   3.285  0.00  0.00    -0.077 NA
ATOM     19  C   UNL     1       6.649   1.801   2.849  0.00  0.00    +0.130 A 
ATOM     20  C   UNL     1       8.109   0.494  -0.346  0.00  0.00    +0.090 C 
BRANCH  19  21
ATOM     21  C   UNL     1       5.793   2.686   3.675  0.00  0.00    +0.058 A 
ATOM     22  C   UNL     1       5.846   4.071   3.504  0.00  0.00    +0.134 A 
ATOM     23  C   UNL     1       5.045   4.890   4.278  0.00  0.00    +0.039 A 
ATOM     24  C   UNL     1       4.193   4.341   5.218  0.00  0.00    +0.004 A 
ATOM     25  C   UNL     1       4.136   2.970   5.391  0.00  0.00    +0.021 A 
ATOM     26  C   UNL     1       4.927   2.139   4.621  0.00  0.00    +0.053 A 
ATOM     27 CL   UNL     1       4.848   0.418   4.836  0.00  0.00    -0.083 Cl
ATOM     28  F   UNL     1       6.679   4.609   2.586  0.00  0.00    -0.205 F 
ENDBRANCH  19  21
ENDBRANCH  11  15
BRANCH   1  30
ATOM     29  N   UNL     1       1.633  -0.736  -1.866  0.00  0.00    -0.310 N 
ATOM     30  C   UNL     1       2.115   0.156  -0.978  0.00  0.00    +0.218 C 
ATOM     31  O   UNL     1       1.435   0.500  -0.034  0.00  0.00    -0.275 OA
ATOM     32  H   UNL     1       2.176  -1.010  -2.621  0.00  0.00    +0.149 HD
BRANCH  29  33
ATOM     33  C   UNL     1       0.288  -1.290  -1.691  0.00  0.00    +0.098 C 
BRANCH  33  35
ATOM     34  C   UNL     1       0.778  -2.017   0.649  0.00  0.00    +0.006 C 
ATOM     35  C   UNL     1       0.350  -2.489  -0.742  0.00  0.00    +0.021 C 
ENDBRANCH  33  35
BRANCH  33  36
ATOM     36  C   UNL     1      -0.259  -1.740  -3.047  0.00  0.00    +0.181 C 
BRANCH  36  37
ATOM     37  O   UNL     1       0.533  -2.821  -3.545  0.00  0.00    -0.381 OA
ATOM     38  C   UNL     1       0.105  -3.319  -4.814  0.00  0.00    +0.194 C 
ENDBRANCH  36  37
ENDBRANCH  33  36
ENDBRANCH  29  33
ENDBRANCH   1  30
TORSDOF 7
