REMARK  Name = ZINC02201463
REMARK  12 active torsions:
REMARK  status: ('A' for Active; 'I' for Inactive)
REMARK    1  A    between atoms: C_1  and  C_2
REMARK    2  A    between atoms: C_2  and  C_3
REMARK    3  A    between atoms: C_2  and  C_4
REMARK    4  A    between atoms: C_2  and  C_5
REMARK    5  A    between atoms: C_8  and  C_11
REMARK    6  A    between atoms: N_13  and  C_14
REMARK    7  A    between atoms: C_14  and  C_25
REMARK    8  A    between atoms: C_15  and  C_16
REMARK    9  A    between atoms: C_20  and  N_22
REMARK   10  A    between atoms: N_27  and  C_28
REMARK   11  A    between atoms: C_28  and  C_29
REMARK   12  A    between atoms: C_29  and  C_30
REMARK                            x       y       z     vdW  Elec       q    Type
REMARK                         _______ _______ _______ _____ _____    ______ ____
ROOT
ATOM      1  C   UNL     1      -1.252   5.989  -0.067  0.00  0.00    +0.097 C 
ATOM      2  C   UNL     1      -0.146   5.428   0.476  0.00  0.00    +0.036 C 
ENDROOT
BRANCH   2   3
ATOM      3  C   UNL     1      -0.237   4.122   1.146  0.00  0.00    -0.021 A 
ATOM      4  C   UNL     1      -1.398   3.768   1.843  0.00  0.00    +0.008 A 
ATOM      5  C   UNL     1      -1.477   2.540   2.463  0.00  0.00    +0.003 A 
ATOM      6  C   UNL     1      -0.408   1.662   2.408  0.00  0.00    +0.033 A 
ATOM      7  C   UNL     1       0.743   2.005   1.722  0.00  0.00    +0.127 A 
ATOM      8  C   UNL     1       0.836   3.227   1.091  0.00  0.00    +0.040 A 
BRANCH   7   9
ATOM      9  N   UNL     1       1.878   1.056   1.665  0.00  0.00    +0.056 N 
ATOM     10  O   UNL     1       1.798  -0.024   2.221  0.00  0.00    -0.126 OA
ATOM     11  O   UNL     1       2.893   1.356   1.061  0.00  0.00    -0.126 OA
ENDBRANCH   7   9
ENDBRANCH   2   3
BRANCH   1  14
ATOM     12  C   UNL     1      -2.287   7.831  -1.156  0.00  0.00    +0.248 C 
ATOM     13  O   UNL     1      -3.342   7.228  -1.151  0.00  0.00    -0.270 OA
ATOM     14  N   UNL     1      -1.197   7.288  -0.578  0.00  0.00    -0.277 N 
ATOM     15  H   UNL     1      -0.376   7.800  -0.516  0.00  0.00    +0.155 HD
BRANCH  12  19
ATOM     16  C   UNL     1      -2.033  11.649  -3.000  0.00  0.00    -0.042 A 
ATOM     17  C   UNL     1      -3.236  10.965  -2.995  0.00  0.00    +0.005 A 
ATOM     18  C   UNL     1      -3.325   9.725  -2.398  0.00  0.00    +0.013 A 
ATOM     19  C   UNL     1      -2.199   9.160  -1.798  0.00  0.00    +0.037 A 
ATOM     20  C   UNL     1      -0.990   9.858  -1.801  0.00  0.00    +0.013 A 
ATOM     21  C   UNL     1      -0.912  11.095  -2.407  0.00  0.00    +0.005 A 
BRANCH  16  23
ATOM     22  C   UNL     1      -2.915  13.966  -2.970  0.00  0.00    +0.015 C 
ATOM     23  C   UNL     1      -1.943  13.004  -3.654  0.00  0.00    -0.013 C 
ATOM     24  C   UNL     1      -0.516  13.540  -3.522  0.00  0.00    +0.015 C 
ATOM     25  C   UNL     1      -2.306  12.880  -5.136  0.00  0.00    +0.015 C 
ENDBRANCH  16  23
ENDBRANCH  12  19
ENDBRANCH   1  14
BRANCH   1  26
ATOM     26  C   UNL     1      -2.510   5.230  -0.119  0.00  0.00    +0.258 C 
ATOM     27  O   UNL     1      -3.420   5.508   0.638  0.00  0.00    -0.269 OA
ATOM     28  N   UNL     1      -2.655   4.226  -1.007  0.00  0.00    -0.310 N 
ATOM     29  H   UNL     1      -1.906   3.957  -1.561  0.00  0.00    +0.149 HD
BRANCH  28  30
ATOM     30  C   UNL     1      -3.945   3.542  -1.135  0.00  0.00    +0.109 C 
BRANCH  30  31
ATOM     31  C   UNL     1      -3.808   2.376  -2.115  0.00  0.00    +0.056 C 
BRANCH  31  32
ATOM     32  C   UNL     1      -5.159   1.747  -2.339  0.00  0.00    -0.021 A 
ATOM     33  C   UNL     1      -5.658   0.678  -1.699  0.00  0.00    +0.087 A 
ATOM     34  N   UNL     1      -6.913   0.398  -2.166  0.00  0.00    -0.360 N 
ATOM     35  H   UNL     1      -7.475  -0.329  -1.854  0.00  0.00    +0.165 HD
ATOM     36  C   UNL     1      -7.258   1.298  -3.150  0.00  0.00    +0.047 A 
ATOM     37  C   UNL     1      -6.174   2.182  -3.301  0.00  0.00    +0.003 A 
ATOM     38  C   UNL     1      -6.242   3.213  -4.240  0.00  0.00    +0.010 A 
ATOM     39  C   UNL     1      -7.363   3.358  -5.008  0.00  0.00    +0.001 A 
ATOM     40  C   UNL     1      -8.434   2.488  -4.863  0.00  0.00    +0.002 A 
ATOM     41  C   UNL     1      -8.389   1.464  -3.942  0.00  0.00    +0.026 A 
ENDBRANCH  31  32
ENDBRANCH  30  31
ENDBRANCH  28  30
ENDBRANCH   1  26
TORSDOF 9
