REMARK  Name = ZINC39655357
REMARK  6 active torsions:
REMARK  status: ('A' for Active; 'I' for Inactive)
REMARK    1  A    between atoms: C_4  and  N_7
REMARK    2  A    between atoms: N_7  and  C_8
REMARK    3  A    between atoms: C_8  and  C_9
REMARK    4  A    between atoms: C_9  and  N_10
REMARK    5  A    between atoms: C_11  and  C_13
REMARK    6  A    between atoms: C_24  and  C_26
REMARK                            x       y       z     vdW  Elec       q    Type
REMARK                         _______ _______ _______ _____ _____    ______ ____
ROOT
ATOM      1  C   UNL     1       6.062  -6.876  -0.077  0.00  0.00    +0.100 C 
ATOM      2  C   UNL     1       5.344  -7.085  -1.429  0.00  0.00    +0.121 C 
ATOM      3  N   UNL     1       6.439  -7.247  -2.413  0.00  0.00    -0.296 N 
ATOM      4  C   UNL     1       7.455  -8.062  -1.704  0.00  0.00    +0.115 C 
ATOM      5  C   UNL     1       7.445  -7.522  -0.260  0.00  0.00    -0.004 C 
ATOM      6  C   UNL     1       7.630  -8.665   0.733  0.00  0.00    -0.010 C 
ATOM      7  C   UNL     1       9.035  -9.253   0.571  0.00  0.00    -0.082 C 
ATOM      8  N   UNL     1      10.036  -8.207   0.807  0.00  0.00    +0.379 N 
ATOM      9  C   UNL     1       9.911  -7.155  -0.210  0.00  0.00    -0.082 C 
ATOM     10  C   UNL     1       8.544  -6.478  -0.081  0.00  0.00    -0.010 C 
ATOM     11  C   UNL     1       6.499  -6.764  -3.670  0.00  0.00    +0.247 C 
ATOM     12  O   UNL     1       5.639  -6.003  -4.070  0.00  0.00    -0.270 OA
ATOM     13  H   UNL     1       9.893  -7.806   1.722  0.00  0.00    -0.086 HD
ATOM     14  H   UNL     1      10.960  -8.610   0.760  0.00  0.00    -0.086 HD
ENDROOT
BRANCH  11  15
ATOM     15  C   UNL     1       7.610  -7.159  -4.561  0.00  0.00    +0.037 A 
ATOM     16  C   UNL     1       8.337  -8.322  -4.302  0.00  0.00    +0.014 A 
ATOM     17  C   UNL     1       9.372  -8.685  -5.138  0.00  0.00    +0.016 A 
ATOM     18  C   UNL     1       9.691  -7.899  -6.232  0.00  0.00    +0.018 A 
ATOM     19  C   UNL     1       8.973  -6.744  -6.495  0.00  0.00    +0.016 A 
ATOM     20  C   UNL     1       7.932  -6.373  -5.670  0.00  0.00    +0.014 A 
ATOM     21 BR   UNL     1      11.113  -8.403  -7.372  0.00  0.00    -0.050 Br
ENDBRANCH  11  15
BRANCH   1  23
ATOM     22  N   UNL     1       6.348  -4.985   1.492  0.00  0.00    -0.314 N 
ATOM     23  C   UNL     1       6.205  -5.405   0.220  0.00  0.00    +0.218 C 
ATOM     24  O   UNL     1       6.191  -4.600  -0.687  0.00  0.00    -0.275 OA
ATOM     25  H   UNL     1       6.359  -5.629   2.217  0.00  0.00    +0.149 HD
BRANCH  22  26
ATOM     26  C   UNL     1       6.487  -3.555   1.780  0.00  0.00    +0.123 C 
BRANCH  26  27
ATOM     27  C   UNL     1       6.633  -3.351   3.289  0.00  0.00    +0.120 C 
BRANCH  27  28
ATOM     28  N   UNL     1       6.772  -1.921   3.577  0.00  0.00    -0.342 N 
ATOM     29  H   UNL     1       6.761  -1.277   2.852  0.00  0.00    +0.146 HD
BRANCH  28  33
ATOM     30  C   UNL     1       7.213  -0.622   7.509  0.00  0.00    +0.000 A 
ATOM     31  C   UNL     1       7.198   0.297   6.476  0.00  0.00    +0.002 A 
ATOM     32  C   UNL     1       7.052  -0.130   5.171  0.00  0.00    +0.023 A 
ATOM     33  C   UNL     1       6.920  -1.485   4.896  0.00  0.00    +0.027 A 
ATOM     34  C   UNL     1       6.936  -2.406   5.936  0.00  0.00    +0.023 A 
ATOM     35  C   UNL     1       7.082  -1.972   7.239  0.00  0.00    +0.002 A 
ENDBRANCH  28  33
ENDBRANCH  27  28
ENDBRANCH  26  27
ENDBRANCH  22  26
ENDBRANCH   1  23
TORSDOF 6
