REMARK  Name = ZINC02682448
REMARK  7 active torsions:
REMARK  status: ('A' for Active; 'I' for Inactive)
REMARK    1  A    between atoms: C_4  and  C_7
REMARK    2  A    between atoms: C_7  and  C_9
REMARK    3  A    between atoms: C_9  and  N_11
REMARK    4  A    between atoms: C_9  and  N_23
REMARK    5  A    between atoms: N_11  and  C_12
REMARK    6  A    between atoms: C_13  and  C_21
REMARK    7  A    between atoms: C_24  and  C_26
REMARK                            x       y       z     vdW  Elec       q    Type
REMARK                         _______ _______ _______ _____ _____    ______ ____
ROOT
ATOM      1  C   UNL     1       6.245  -1.054  -0.266  0.00  0.00    +0.232 C 
ENDROOT
BRANCH   1   2
ATOM      2  N   UNL     1       4.876  -0.557  -0.109  0.00  0.00    -0.287 N 
ATOM      3  C   UNL     1       3.832  -1.388  -0.297  0.00  0.00    +0.246 C 
ATOM      4  O   UNL     1       4.026  -2.549  -0.597  0.00  0.00    -0.270 OA
ATOM      5  H   UNL     1       4.721   0.370   0.131  0.00  0.00    +0.151 HD
BRANCH   3   6
ATOM      6  C   UNL     1       2.450  -0.886  -0.138  0.00  0.00    +0.037 A 
ATOM      7  C   UNL     1       1.366  -1.744  -0.332  0.00  0.00    +0.013 A 
ATOM      8  C   UNL     1       0.080  -1.269  -0.182  0.00  0.00    +0.001 A 
ATOM      9  C   UNL     1      -0.138   0.054   0.160  0.00  0.00    +0.000 A 
ATOM     10  C   UNL     1       0.932   0.909   0.354  0.00  0.00    +0.001 A 
ATOM     11  C   UNL     1       2.224   0.448   0.207  0.00  0.00    +0.013 A 
ENDBRANCH   3   6
ENDBRANCH   1   2
BRANCH   1  12
ATOM     12  C   UNL     1       7.050  -0.065  -1.069  0.00  0.00    +0.201 C 
ATOM     13  O   UNL     1       8.151   0.272  -0.689  0.00  0.00    -0.288 OA
BRANCH  12  17
ATOM     14  C   UNL     1       5.462   1.542  -4.660  0.00  0.00    +0.000 A 
ATOM     15  C   UNL     1       6.659   2.025  -4.159  0.00  0.00    +0.001 A 
ATOM     16  C   UNL     1       7.181   1.508  -2.993  0.00  0.00    +0.011 A 
ATOM     17  C   UNL     1       6.499   0.493  -2.315  0.00  0.00    +0.021 A 
ATOM     18  C   UNL     1       5.293   0.006  -2.830  0.00  0.00    +0.011 A 
ATOM     19  C   UNL     1       4.781   0.537  -3.995  0.00  0.00    +0.001 A 
ENDBRANCH  12  17
ENDBRANCH   1  12
BRANCH   1  20
ATOM     20  N   UNL     1       6.857  -1.224   1.054  0.00  0.00    -0.313 N 
ATOM     21  H   UNL     1       7.151  -0.448   1.556  0.00  0.00    +0.149 HD
BRANCH  20  22
ATOM     22  C   UNL     1       7.018  -2.492   1.584  0.00  0.00    +0.085 A 
ATOM     23  C   UNL     1       7.575  -2.853   2.803  0.00  0.00    +0.083 A 
ATOM     24  C   UNL     1       7.621  -4.270   3.127  0.00  0.00    -0.018 A 
ATOM     25  C   UNL     1       7.116  -5.092   2.183  0.00  0.00    -0.004 A 
ATOM     26  S   UNL     1       6.578  -4.015   0.885  0.00  0.00    -0.077 S 
ATOM     27  C   UNL     1       7.036  -6.587   2.235  0.00  0.00    +0.043 C 
ATOM     28  C   UNL     1       7.954  -7.081   3.363  0.00  0.00    +0.005 C 
ATOM     29  C   UNL     1       7.681  -6.252   4.621  0.00  0.00    +0.005 C 
ATOM     30  C   UNL     1       8.196  -4.824   4.425  0.00  0.00    +0.037 C 
BRANCH  23  31
ATOM     31  C   UNL     1       8.081  -1.867   3.710  0.00  0.00    +0.102 C 
ATOM     32  N   UNL     1       8.483  -1.085   4.429  0.00  0.00    -0.191 NA
ENDBRANCH  23  31
ENDBRANCH  20  22
ENDBRANCH   1  20
TORSDOF 7
