REMARK  Name = ZINC38917856
REMARK  9 active torsions:
REMARK  status: ('A' for Active; 'I' for Inactive)
REMARK    1  A    between atoms: C_1  and  C_2
REMARK    2  A    between atoms: C_2  and  O_3
REMARK    3  A    between atoms: O_3  and  C_4
REMARK    4  A    between atoms: C_7  and  N_10
REMARK    5  A    between atoms: N_10  and  C_11
REMARK    6  A    between atoms: C_11  and  C_12
REMARK    7  A    between atoms: C_17  and  C_24
REMARK    8  A    between atoms: C_25  and  C_27
REMARK    9  A    between atoms: C_30  and  N_33
REMARK                            x       y       z     vdW  Elec       q    Type
REMARK                         _______ _______ _______ _____ _____    ______ ____
ROOT
ATOM      1  N   UNL     1       1.626  -5.885   1.316  0.00  0.00    -0.266 N 
ATOM      2  C   UNL     1       0.735  -6.668   0.678  0.00  0.00    +0.251 C 
ATOM      3  O   UNL     1      -0.235  -6.171   0.139  0.00  0.00    -0.270 OA
ENDROOT
BRANCH   1   7
ATOM      4  C   UNL     1       1.117  -1.747   1.352  0.00  0.00    +0.121 A 
ATOM      5  C   UNL     1       0.058  -2.573   1.004  0.00  0.00    +0.047 A 
ATOM      6  C   UNL     1       0.226  -3.944   0.992  0.00  0.00    +0.027 A 
ATOM      7  C   UNL     1       1.455  -4.495   1.328  0.00  0.00    +0.037 A 
ATOM      8  C   UNL     1       2.515  -3.668   1.675  0.00  0.00    +0.027 A 
ATOM      9  C   UNL     1       2.347  -2.297   1.683  0.00  0.00    +0.047 A 
BRANCH   4  10
ATOM     10  O   UNL     1       0.951  -0.398   1.364  0.00  0.00    -0.492 OA
BRANCH  10  12
ATOM     11  C   UNL     1      -0.337   1.628   1.083  0.00  0.00    +0.048 C 
ATOM     12  C   UNL     1      -0.342   0.100   1.013  0.00  0.00    +0.225 C 
ENDBRANCH  10  12
ENDBRANCH   4  10
ENDBRANCH   1   7
BRANCH   2  13
ATOM     13  C   UNL     1       0.936  -8.132   0.632  0.00  0.00    +0.037 A 
ATOM     14  C   UNL     1       1.622  -8.777   1.662  0.00  0.00    +0.015 A 
ATOM     15  C   UNL     1       1.806 -10.144   1.614  0.00  0.00    +0.033 A 
ATOM     16  C   UNL     1       1.313 -10.874   0.547  0.00  0.00    +0.126 A 
ATOM     17  C   UNL     1       0.632 -10.240  -0.477  0.00  0.00    +0.033 A 
ATOM     18  C   UNL     1       0.436  -8.875  -0.438  0.00  0.00    +0.015 A 
BRANCH  16  19
ATOM     19  N   UNL     1       1.514 -12.340   0.502  0.00  0.00    +0.056 N 
ATOM     20  O   UNL     1       2.109 -12.896   1.395  0.00  0.00    -0.126 OA
ATOM     21  O   UNL     1       1.084 -12.980  -0.429  0.00  0.00    -0.126 OA
ENDBRANCH  16  19
ENDBRANCH   2  13
BRANCH   1  22
ATOM     22  C   UNL     1       2.775  -6.487   1.998  0.00  0.00    +0.131 C 
BRANCH  22  23
ATOM     23  C   UNL     1       2.493  -6.565   3.500  0.00  0.00    +0.116 C 
ATOM     24  C   UNL     1       3.596  -7.386   4.138  0.00  0.00    -0.003 C 
ATOM     25  C   UNL     1       4.327  -6.791   5.124  0.00  0.00    -0.007 A 
ATOM     26  C   UNL     1       5.410  -7.512   5.794  0.00  0.00    +0.012 A 
ATOM     27  C   UNL     1       6.112  -6.880   6.770  0.00  0.00    -0.050 A 
ATOM     28  C   UNL     1       5.818  -5.567   7.142  0.00  0.00    +0.005 A 
ATOM     29  C   UNL     1       4.825  -4.845   6.559  0.00  0.00    +0.024 A 
ATOM     30  C   UNL     1       4.040  -5.406   5.536  0.00  0.00    +0.040 A 
ATOM     31  N   UNL     1       3.069  -4.688   4.971  0.00  0.00    -0.284 N 
ATOM     32  C   UNL     1       2.294  -5.154   4.008  0.00  0.00    +0.226 C 
ATOM     33  O   UNL     1       1.424  -4.451   3.531  0.00  0.00    -0.275 OA
ATOM     34  C   UNL     1       7.229  -7.611   7.467  0.00  0.00    +0.044 C 
ATOM     35  H   UNL     1       2.925  -3.781   5.283  0.00  0.00    +0.155 HD
ENDBRANCH  22  23
ENDBRANCH   1  22
TORSDOF 7
