REMARK  Name = ZINC37358163
REMARK  5 active torsions:
REMARK  status: ('A' for Active; 'I' for Inactive)
REMARK    1  A    between atoms: C_1  and  O_2
REMARK    2  A    between atoms: O_2  and  C_3
REMARK    3  A    between atoms: C_8  and  C_9
REMARK    4  A    between atoms: C_11  and  N_29
REMARK    5  A    between atoms: N_12  and  C_23
REMARK                            x       y       z     vdW  Elec       q    Type
REMARK                         _______ _______ _______ _____ _____    ______ ____
ROOT
ATOM      1  C   UNL     1       0.333  -2.865   0.074  0.00  0.00    +0.092 A 
ATOM      2  C   UNL     1       0.145  -4.254  -0.106  0.00  0.00    +0.086 A 
ATOM      3  C   UNL     1       0.437  -5.177  -1.103  0.00  0.00    +0.131 A 
ATOM      4  N   UNL     1      -0.000  -6.380  -0.683  0.00  0.00    -0.216 N 
ATOM      5  N   UNL     1      -0.580  -6.259   0.585  0.00  0.00    -0.144 NA
ATOM      6  C   UNL     1      -0.517  -5.005   0.975  0.00  0.00    +0.189 A 
ATOM      7  N   UNL     1      -0.904  -4.322   2.070  0.00  0.00    -0.193 NA
ATOM      8  C   UNL     1      -0.690  -3.025   2.156  0.00  0.00    +0.220 A 
ATOM      9  N   UNL     1      -0.091  -2.315   1.205  0.00  0.00    -0.213 NA
ATOM     10  N   UNL     1      -1.105  -2.368   3.300  0.00  0.00    -0.300 N 
ATOM     11  C   UNL     1      -0.955  -0.929   3.564  0.00  0.00    +0.108 C 
ATOM     12  C   UNL     1      -1.537  -0.658   4.967  0.00  0.00    +0.020 C 
ATOM     13  C   UNL     1      -1.470  -2.051   5.647  0.00  0.00    +0.020 C 
ATOM     14  C   UNL     1      -1.778  -2.993   4.453  0.00  0.00    +0.108 C 
ENDROOT
BRANCH   1  20
ATOM     15  C   UNL     1       2.139  -1.308  -0.662  0.00  0.00    +0.129 A 
ATOM     16  C   UNL     1       2.751  -0.548  -1.647  0.00  0.00    +0.046 A 
ATOM     17  C   UNL     1       2.225  -0.518  -2.924  0.00  0.00    +0.004 A 
ATOM     18  C   UNL     1       1.086  -1.243  -3.229  0.00  0.00    +0.001 A 
ATOM     19  C   UNL     1       0.465  -2.003  -2.260  0.00  0.00    +0.013 A 
ATOM     20  C   UNL     1       0.990  -2.047  -0.968  0.00  0.00    +0.043 A 
BRANCH  15  22
ATOM     21  C   UNL     1       3.829  -0.559   0.832  0.00  0.00    +0.277 C 
ATOM     22  O   UNL     1       2.655  -1.338   0.594  0.00  0.00    -0.494 OA
ENDBRANCH  15  22
ENDBRANCH   1  20
BRANCH   4  23
ATOM     23  C   UNL     1       0.108  -7.573  -1.407  0.00  0.00    +0.067 A 
ATOM     24  C   UNL     1      -0.001  -7.559  -2.792  0.00  0.00    +0.028 A 
ATOM     25  C   UNL     1       0.107  -8.738  -3.503  0.00  0.00    +0.002 A 
ATOM     26  C   UNL     1       0.323  -9.931  -2.839  0.00  0.00    +0.000 A 
ATOM     27  C   UNL     1       0.432  -9.949  -1.460  0.00  0.00    +0.002 A 
ATOM     28  C   UNL     1       0.331  -8.773  -0.743  0.00  0.00    +0.028 A 
ENDBRANCH   4  23
BRANCH   3  29
ATOM     29  N   UNL     1       1.062  -4.909  -2.307  0.00  0.00    -0.342 N 
ATOM     30  H   UNL     1       1.317  -4.000  -2.529  0.00  0.00    +0.144 HD
ATOM     31  H   UNL     1       1.246  -5.630  -2.929  0.00  0.00    +0.144 HD
ENDBRANCH   3  29
TORSDOF 4
