REMARK  Name = ZINC16034242
REMARK  10 active torsions:
REMARK  status: ('A' for Active; 'I' for Inactive)
REMARK    1  A    between atoms: C_1  and  C_2
REMARK    2  A    between atoms: C_2  and  C_3
REMARK    3  A    between atoms: C_2  and  C_4
REMARK    4  A    between atoms: C_2  and  O_5
REMARK    5  A    between atoms: O_5  and  C_6
REMARK    6  A    between atoms: C_15  and  C_27
REMARK    7  A    between atoms: C_17  and  C_23
REMARK    8  A    between atoms: C_17  and  C_25
REMARK    9  A    between atoms: C_18  and  N_22
REMARK   10  A    between atoms: C_19  and  C_20
REMARK                            x       y       z     vdW  Elec       q    Type
REMARK                         _______ _______ _______ _____ _____    ______ ____
ROOT
ATOM      1  C   UNL     1      -0.095   4.215   3.676  0.00  0.00    +0.404 C 
ATOM      2  O   UNL     1       1.105   4.198   3.486  0.00  0.00    -0.226 OA
ATOM      3  N   UNL     1      -0.832   5.257   3.243  0.00  0.00    -0.263 N 
ATOM      4  C   UNL     1      -2.289   5.310   3.456  0.00  0.00    +0.138 C 
ATOM      5  C   UNL     1      -2.930   5.488   2.103  0.00  0.00    -0.003 C 
ATOM      6  C   UNL     1      -2.280   6.055   1.125  0.00  0.00    -0.026 C 
ATOM      7  C   UNL     1      -0.909   6.654   1.222  0.00  0.00    +0.048 C 
ATOM      8  C   UNL     1      -0.217   6.388   2.539  0.00  0.00    +0.120 C 
ATOM      9  C   UNL     1      -0.082   6.158   0.034  0.00  0.00    +0.068 C 
ATOM     10  C   UNL     1      -0.715   6.668  -1.261  0.00  0.00    +0.188 C 
ATOM     11  C   UNL     1      -2.185   6.367  -1.310  0.00  0.00    +0.054 C 
ATOM     12  C   UNL     1      -2.933   6.090  -0.212  0.00  0.00    +0.074 C 
ENDROOT
BRANCH   9  13
ATOM     13  C   UNL     1      -0.061   4.651   0.027  0.00  0.00    -0.041 A 
ATOM     14  C   UNL     1       1.024   3.973   0.549  0.00  0.00    +0.005 A 
ATOM     15  C   UNL     1       1.044   2.591   0.542  0.00  0.00    +0.015 A 
ATOM     16  C   UNL     1      -0.023   1.887   0.013  0.00  0.00    +0.018 A 
ATOM     17  C   UNL     1      -1.107   2.567  -0.514  0.00  0.00    +0.015 A 
ATOM     18  C   UNL     1      -1.127   3.949  -0.502  0.00  0.00    +0.005 A 
ATOM     19 BR   UNL     1       0.003  -0.004   0.002  0.00  0.00    -0.050 Br
ENDBRANCH   9  13
BRANCH  11  20
ATOM     20  N   UNL     1      -2.804   6.371  -2.528  0.00  0.00    -0.358 N 
ATOM     21  H   UNL     1      -3.881   6.154  -2.599  0.00  0.00    +0.142 HD
ATOM     22  H   UNL     1      -2.227   6.591  -3.438  0.00  0.00    +0.142 HD
ENDBRANCH  11  20
BRANCH  12  23
ATOM     23  C   UNL     1      -4.336   5.835  -0.338  0.00  0.00    +0.101 C 
ATOM     24  N   UNL     1      -5.449   5.633  -0.439  0.00  0.00    -0.191 NA
ENDBRANCH  12  23
BRANCH  10  25
ATOM     25  C   UNL     1      -0.520   8.124  -1.350  0.00  0.00    +0.091 C 
ATOM     26  N   UNL     1      -0.370   9.248  -1.419  0.00  0.00    -0.194 NA
ENDBRANCH  10  25
BRANCH  10  27
ATOM     27  C   UNL     1      -0.051   6.025  -2.406  0.00  0.00    +0.091 C 
ATOM     28  N   UNL     1       0.462   5.529  -3.291  0.00  0.00    -0.194 NA
ENDBRANCH  10  27
BRANCH   1  29
ATOM     29  O   UNL     1      -0.689   3.192   4.318  0.00  0.00    -0.445 OA
BRANCH  29  31
ATOM     30  C   UNL     1       1.220   2.641   5.726  0.00  0.00    +0.055 C 
ATOM     31  C   UNL     1       0.166   2.103   4.756  0.00  0.00    +0.107 C 
ATOM     32  C   UNL     1      -0.681   1.042   5.461  0.00  0.00    +0.055 C 
ATOM     33  C   UNL     1       0.859   1.479   3.543  0.00  0.00    +0.055 C 
ENDBRANCH  29  31
ENDBRANCH   1  29
TORSDOF 7
