REMARK  Name = ZINC36643651
REMARK  15 active torsions:
REMARK  status: ('A' for Active; 'I' for Inactive)
REMARK    1  A    between atoms: C_1  and  C_2
REMARK    2  A    between atoms: C_2  and  C_3
REMARK    3  A    between atoms: C_3  and  C_4
REMARK    4  A    between atoms: C_4  and  C_5
REMARK    5  A    between atoms: C_5  and  O_6
REMARK    6  A    between atoms: O_6  and  C_7
REMARK    7  A    between atoms: C_10  and  C_13
REMARK    8  A    between atoms: N_15  and  C_16
REMARK    9  A    between atoms: C_16  and  C_17
REMARK   10  A    between atoms: C_17  and  C_18
REMARK   11  A    between atoms: C_18  and  N_19
REMARK   12  A    between atoms: N_19  and  C_20
REMARK   13  A    between atoms: N_19  and  C_21
REMARK   14  A    between atoms: C_25  and  C_32
REMARK   15  A    between atoms: C_26  and  C_31
REMARK                            x       y       z     vdW  Elec       q    Type
REMARK                         _______ _______ _______ _____ _____    ______ ____
ROOT
ATOM      1  C   UNL     1       3.839  -6.928  -6.208  0.00  0.00    +0.252 C 
ATOM      2  O   UNL     1       4.066  -6.000  -6.959  0.00  0.00    -0.270 OA
ATOM      3  N   UNL     1       3.909  -8.195  -6.662  0.00  0.00    -0.246 N 
ATOM      4  C   UNL     1       4.369  -8.447  -7.944  0.00  0.00    +0.168 A 
ATOM      5  N   UNL     1       4.781  -7.594  -8.853  0.00  0.00    -0.224 NA
ATOM      6  C   UNL     1       5.207  -7.984 -10.074  0.00  0.00    +0.083 A 
ATOM      7  C   UNL     1       5.672  -7.174 -11.136  0.00  0.00    -0.021 A 
ATOM      8  C   UNL     1       6.070  -7.734 -12.321  0.00  0.00    -0.045 A 
ATOM      9  C   UNL     1       6.031  -9.107 -12.524  0.00  0.00    +0.005 A 
ATOM     10  C   UNL     1       5.582  -9.929 -11.506  0.00  0.00    +0.017 A 
ATOM     11  C   UNL     1       5.181  -9.376 -10.316  0.00  0.00    +0.041 A 
ATOM     12  S   UNL     1       4.559 -10.015  -8.779  0.00  0.00    -0.052 S 
ATOM     13  C   UNL     1       6.559  -6.840 -13.431  0.00  0.00    +0.044 C 
ATOM     14  C   UNL     1       5.731  -5.678 -10.962  0.00  0.00    +0.046 C 
ENDROOT
BRANCH   1  18
ATOM     15  C   UNL     1       2.823  -6.181  -2.154  0.00  0.00    +0.121 A 
ATOM     16  C   UNL     1       2.081  -7.091  -2.897  0.00  0.00    +0.046 A 
ATOM     17  C   UNL     1       2.407  -7.336  -4.213  0.00  0.00    +0.016 A 
ATOM     18  C   UNL     1       3.486  -6.668  -4.800  0.00  0.00    +0.038 A 
ATOM     19  C   UNL     1       4.229  -5.754  -4.048  0.00  0.00    +0.016 A 
ATOM     20  C   UNL     1       3.893  -5.511  -2.735  0.00  0.00    +0.046 A 
BRANCH  15  21
ATOM     21  O   UNL     1       2.498  -5.942  -0.858  0.00  0.00    -0.492 OA
BRANCH  21  22
ATOM     22  C   UNL     1       1.387  -6.665  -0.323  0.00  0.00    +0.229 C 
BRANCH  22  23
ATOM     23  C   UNL     1       1.175  -6.266   1.138  0.00  0.00    +0.041 C 
BRANCH  23  24
ATOM     24  C   UNL     1      -0.014  -7.040   1.710  0.00  0.00    +0.003 C 
BRANCH  24  26
ATOM     25  C   UNL     1      -1.416  -7.415   3.744  0.00  0.00    +0.004 C 
ATOM     26  C   UNL     1      -0.227  -6.640   3.172  0.00  0.00    -0.003 C 
ENDBRANCH  24  26
ENDBRANCH  23  24
ENDBRANCH  22  23
ENDBRANCH  21  22
ENDBRANCH  15  21
ENDBRANCH   1  18
BRANCH   3  27
ATOM     27  C   UNL     1       3.500  -9.307  -5.800  0.00  0.00    +0.114 C 
BRANCH  27  28
ATOM     28  C   UNL     1       2.076  -9.734  -6.161  0.00  0.00    +0.001 C 
BRANCH  28  29
ATOM     29  C   UNL     1       1.590 -10.784  -5.160  0.00  0.00    -0.078 C 
BRANCH  29  30
ATOM     30  N   UNL     1       0.223 -11.195  -5.506  0.00  0.00    +0.376 N 
ATOM     31  C   UNL     1       0.231 -11.874  -6.808  0.00  0.00    -0.097 C 
ATOM     32  C   UNL     1      -0.288 -12.113  -4.478  0.00  0.00    -0.097 C 
ATOM     33  H   UNL     1      -0.371 -10.381  -5.555  0.00  0.00    -0.083 HD
ENDBRANCH  29  30
ENDBRANCH  28  29
ENDBRANCH  27  28
ENDBRANCH   3  27
TORSDOF 10
