REMARK  Name = ZINC39604475
REMARK  8 active torsions:
REMARK  status: ('A' for Active; 'I' for Inactive)
REMARK    1  A    between atoms: C_1  and  C_2
REMARK    2  A    between atoms: C_2  and  O_3
REMARK    3  A    between atoms: O_3  and  C_4
REMARK    4  A    between atoms: C_4  and  C_5
REMARK    5  A    between atoms: C_5  and  C_6
REMARK    6  A    between atoms: C_6  and  N_7
REMARK    7  A    between atoms: C_8  and  C_10
REMARK    8  A    between atoms: C_21  and  C_23
REMARK                            x       y       z     vdW  Elec       q    Type
REMARK                         _______ _______ _______ _____ _____    ______ ____
ROOT
ATOM      1  C   UNL     1       3.170  -5.820  -5.499  0.00  0.00    +0.100 C 
ATOM      2  C   UNL     1       2.320  -5.438  -6.732  0.00  0.00    +0.121 C 
ATOM      3  N   UNL     1       2.552  -6.535  -7.701  0.00  0.00    -0.297 N 
ATOM      4  C   UNL     1       2.580  -7.762  -6.869  0.00  0.00    +0.115 C 
ATOM      5  C   UNL     1       3.338  -7.346  -5.592  0.00  0.00    -0.004 C 
ATOM      6  C   UNL     1       4.815  -7.708  -5.713  0.00  0.00    -0.010 C 
ATOM      7  C   UNL     1       4.960  -9.232  -5.747  0.00  0.00    -0.082 C 
ATOM      8  N   UNL     1       4.394  -9.807  -4.521  0.00  0.00    +0.379 N 
ATOM      9  C   UNL     1       2.953  -9.533  -4.459  0.00  0.00    -0.082 C 
ATOM     10  C   UNL     1       2.723  -8.021  -4.371  0.00  0.00    -0.010 C 
ATOM     11  C   UNL     1       2.703  -6.439  -9.037  0.00  0.00    +0.260 C 
ATOM     12  O   UNL     1       2.888  -7.438  -9.699  0.00  0.00    -0.271 OA
ATOM     13  H   UNL     1       4.545 -10.805  -4.518  0.00  0.00    -0.086 HD
ATOM     14  H   UNL     1       4.848  -9.398  -3.719  0.00  0.00    -0.086 HD
ENDROOT
BRANCH  11  15
ATOM     15  C   UNL     1       2.643  -5.091  -9.707  0.00  0.00    +0.296 C 
ATOM     16  C   UNL     1       1.233  -4.504  -9.563  0.00  0.00    +0.283 C 
ATOM     17  O   UNL     1       1.207  -3.233 -10.222  0.00  0.00    -0.484 OA
ATOM     18  C   UNL     1       1.766  -3.175 -11.461  0.00  0.00    +0.162 A 
ATOM     19  C   UNL     1       1.466  -2.107 -12.294  0.00  0.00    +0.049 A 
ATOM     20  C   UNL     1       2.027  -2.032 -13.555  0.00  0.00    +0.004 A 
ATOM     21  C   UNL     1       2.890  -3.022 -13.989  0.00  0.00    +0.004 A 
ATOM     22  C   UNL     1       3.192  -4.089 -13.165  0.00  0.00    +0.049 A 
ATOM     23  C   UNL     1       2.630  -4.171 -11.899  0.00  0.00    +0.163 A 
ATOM     24  O   UNL     1       2.932  -5.232 -11.102  0.00  0.00    -0.473 OA
ENDBRANCH  11  15
BRANCH   1  26
ATOM     25  N   UNL     1       3.151  -5.144  -3.120  0.00  0.00    -0.315 N 
ATOM     26  C   UNL     1       2.449  -5.448  -4.229  0.00  0.00    +0.218 C 
ATOM     27  O   UNL     1       1.236  -5.423  -4.205  0.00  0.00    -0.275 OA
ATOM     28  H   UNL     1       4.121  -5.164  -3.139  0.00  0.00    +0.149 HD
BRANCH  25  29
ATOM     29  C   UNL     1       2.450  -4.782  -1.885  0.00  0.00    +0.106 C 
BRANCH  29  30
ATOM     30  C   UNL     1       3.472  -4.486  -0.786  0.00  0.00    +0.047 C 
BRANCH  30  31
ATOM     31  C   UNL     1       2.740  -4.108   0.503  0.00  0.00    +0.161 C 
BRANCH  31  32
ATOM     32  O   UNL     1       3.695  -3.832   1.529  0.00  0.00    -0.380 OA
BRANCH  32  34
ATOM     33  C   UNL     1       4.222  -3.195   3.800  0.00  0.00    +0.034 C 
ATOM     34  C   UNL     1       3.112  -3.467   2.782  0.00  0.00    +0.156 C 
ENDBRANCH  32  34
ENDBRANCH  31  32
ENDBRANCH  30  31
ENDBRANCH  29  30
ENDBRANCH  25  29
ENDBRANCH   1  26
TORSDOF 7
