REMARK  Name = ZINC12413064
REMARK  5 active torsions:
REMARK  status: ('A' for Active; 'I' for Inactive)
REMARK    1  A    between atoms: C_1  and  C_2
REMARK    2  A    between atoms: N_8  and  N_9
REMARK    3  A    between atoms: N_9  and  C_10
REMARK    4  A    between atoms: C_15  and  O_16
REMARK    5  A    between atoms: C_19  and  C_22
REMARK                            x       y       z     vdW  Elec       q    Type
REMARK                         _______ _______ _______ _____ _____    ______ ____
ROOT
ATOM      1  C   UNL     1      -0.018   1.503   0.010  0.00  0.00    +0.070 C 
ATOM      2  C   UNL     1       0.002  -0.004   0.002  0.00  0.00    +0.089 C 
ATOM      3  N   UNL     1       0.008  -0.765  -1.049  0.00  0.00    -0.173 NA
ATOM      4  N   UNL     1       0.028  -2.115  -0.701  0.00  0.00    -0.130 N 
ATOM      5  C   UNL     1       0.036  -2.248   0.641  0.00  0.00    +0.294 C 
ATOM      6  O   UNL     1       0.053  -3.288   1.275  0.00  0.00    -0.266 OA
ATOM      7  C   UNL     1       0.025  -0.879   1.184  0.00  0.00    +0.168 C 
ATOM      8  N   UNL     1       0.032  -0.517   2.455  0.00  0.00    -0.175 NA
ATOM      9  C   UNL     1       0.039  -3.172  -1.606  0.00  0.00    +0.189 A 
ATOM     10  N   UNL     1       0.039  -3.141  -2.926  0.00  0.00    -0.223 NA
ATOM     11  C   UNL     1       0.051  -4.256  -3.640  0.00  0.00    +0.080 A 
ATOM     12  C   UNL     1       0.064  -5.463  -2.998  0.00  0.00    +0.077 A 
ATOM     13  S   UNL     1       0.065  -4.931  -1.291  0.00  0.00    -0.058 S 
ENDROOT
BRANCH  11  14
ATOM     14  C   UNL     1       0.050  -4.196  -5.122  0.00  0.00    +0.001 A 
ATOM     15  C   UNL     1       0.056  -5.372  -5.870  0.00  0.00    +0.010 A 
ATOM     16  C   UNL     1       0.055  -5.310  -7.248  0.00  0.00    +0.001 A 
ATOM     17  C   UNL     1       0.049  -4.083  -7.888  0.00  0.00    +0.000 A 
ATOM     18  C   UNL     1       0.043  -2.913  -7.151  0.00  0.00    +0.001 A 
ATOM     19  C   UNL     1       0.037  -2.963  -5.772  0.00  0.00    +0.010 A 
ENDBRANCH  11  14
BRANCH   8  20
ATOM     20  N   UNL     1       0.053  -1.414   3.381  0.00  0.00    -0.233 N 
ATOM     21  H   UNL     1       0.064  -2.355   3.145  0.00  0.00    +0.175 HD
BRANCH  20  22
ATOM     22  C   UNL     1       0.061  -1.031   4.723  0.00  0.00    +0.090 A 
ATOM     23  C   UNL     1       0.040   0.315   5.064  0.00  0.00    +0.028 A 
ATOM     24  C   UNL     1       0.048   0.691   6.393  0.00  0.00    +0.002 A 
ATOM     25  C   UNL     1       0.076  -0.270   7.387  0.00  0.00    +0.004 A 
ATOM     26  C   UNL     1       0.097  -1.612   7.057  0.00  0.00    +0.047 A 
ATOM     27  C   UNL     1       0.084  -1.999   5.727  0.00  0.00    +0.139 A 
BRANCH  27  28
ATOM     28  O   UNL     1       0.098  -3.319   5.401  0.00  0.00    -0.505 OA
ATOM     29  H   UNL     1       0.985  -3.689   5.298  0.00  0.00    +0.292 HD
ENDBRANCH  27  28
ENDBRANCH  20  22
ENDBRANCH   8  20
TORSDOF 4
