REMARK  Name = ZINC35072452
REMARK  9 active torsions:
REMARK  status: ('A' for Active; 'I' for Inactive)
REMARK    1  A    between atoms: C_1  and  C_2
REMARK    2  A    between atoms: C_2  and  C_4
REMARK    3  A    between atoms: C_2  and  N_23
REMARK    4  A    between atoms: N_14  and  C_15
REMARK    5  A    between atoms: C_20  and  O_21
REMARK    6  A    between atoms: O_21  and  C_22
REMARK    7  A    between atoms: N_23  and  C_24
REMARK    8  A    between atoms: N_23  and  S_25
REMARK    9  A    between atoms: S_25  and  C_28
REMARK                            x       y       z     vdW  Elec       q    Type
REMARK                         _______ _______ _______ _____ _____    ______ ____
ROOT
ATOM      1  C   UNL     1      -1.392  -0.560   0.148  0.00  0.00    +0.136 A 
ATOM      2  N   UNL     1      -1.936  -1.139  -0.879  0.00  0.00    -0.231 NA
ATOM      3  C   UNL     1      -3.211  -1.601  -0.843  0.00  0.00    +0.078 A 
ATOM      4  C   UNL     1      -3.796  -2.223  -1.948  0.00  0.00    +0.028 A 
ATOM      5  C   UNL     1      -5.093  -2.677  -1.867  0.00  0.00    +0.002 A 
ATOM      6  C   UNL     1      -5.829  -2.524  -0.699  0.00  0.00    +0.001 A 
ATOM      7  C   UNL     1      -5.274  -1.914   0.404  0.00  0.00    +0.015 A 
ATOM      8  C   UNL     1      -3.962  -1.447   0.343  0.00  0.00    +0.065 A 
ATOM      9  C   UNL     1      -3.318  -0.788   1.488  0.00  0.00    +0.266 A 
ATOM     10  O   UNL     1      -3.910  -0.625   2.539  0.00  0.00    -0.267 OA
ATOM     11  N   UNL     1      -2.038  -0.375   1.331  0.00  0.00    -0.259 N 
ENDROOT
BRANCH  11  12
ATOM     12  C   UNL     1      -1.375   0.253   2.394  0.00  0.00    +0.093 A 
ATOM     13  C   UNL     1      -1.562   1.609   2.626  0.00  0.00    +0.030 A 
ATOM     14  C   UNL     1      -0.907   2.226   3.674  0.00  0.00    +0.002 A 
ATOM     15  C   UNL     1      -0.065   1.497   4.494  0.00  0.00    +0.004 A 
ATOM     16  C   UNL     1       0.125   0.146   4.270  0.00  0.00    +0.048 A 
ATOM     17  C   UNL     1      -0.532  -0.482   3.224  0.00  0.00    +0.144 A 
BRANCH  17  18
ATOM     18  O   UNL     1      -0.351  -1.811   3.006  0.00  0.00    -0.493 OA
ATOM     19  C   UNL     1       0.528  -2.501   3.897  0.00  0.00    +0.277 C 
ENDBRANCH  17  18
ENDBRANCH  11  12
BRANCH   1  21
ATOM     20  C   UNL     1       0.037   1.446  -0.134  0.00  0.00    +0.034 C 
ATOM     21  C   UNL     1       0.030  -0.075   0.027  0.00  0.00    +0.143 C 
BRANCH  21  22
ATOM     22  N   UNL     1       0.658  -0.693  -1.143  0.00  0.00    -0.170 NA
ATOM     23  C   UNL     1       0.095  -0.475  -2.478  0.00  0.00    +0.132 C 
BRANCH  22  24
ATOM     24  S   UNL     1       2.006  -1.637  -0.958  0.00  0.00    +0.061 S 
ATOM     25  O   UNL     1       2.688  -1.621  -2.204  0.00  0.00    -0.153 OA
ATOM     26  O   UNL     1       2.624  -1.229   0.255  0.00  0.00    -0.153 OA
BRANCH  24  27
ATOM     27  C   UNL     1       1.452  -3.292  -0.708  0.00  0.00    +0.106 A 
ATOM     28  C   UNL     1       1.200  -3.743   0.586  0.00  0.00    +0.029 A 
ATOM     29  C   UNL     1       0.772  -5.015   0.814  0.00  0.00    +0.010 A 
ATOM     30  C   UNL     1       0.580  -5.888  -0.270  0.00  0.00    -0.018 A 
ATOM     31  C   UNL     1       0.138  -7.208  -0.075  0.00  0.00    +0.008 A 
ATOM     32  C   UNL     1      -0.037  -8.025  -1.149  0.00  0.00    +0.001 A 
ATOM     33  C   UNL     1       0.215  -7.574  -2.443  0.00  0.00    +0.001 A 
ATOM     34  C   UNL     1       0.643  -6.302  -2.670  0.00  0.00    +0.008 A 
ATOM     35  C   UNL     1       0.836  -5.429  -1.586  0.00  0.00    -0.016 A 
ATOM     36  C   UNL     1       1.272  -4.107  -1.782  0.00  0.00    +0.037 A 
ENDBRANCH  24  27
ENDBRANCH  22  24
ENDBRANCH  21  22
ENDBRANCH   1  21
TORSDOF 6
