REMARK  Name = ZINC11910465
REMARK  11 active torsions:
REMARK  status: ('A' for Active; 'I' for Inactive)
REMARK    1  A    between atoms: C_1  and  C_2
REMARK    2  A    between atoms: C_3  and  C_9
REMARK    3  A    between atoms: C_4  and  C_8
REMARK    4  A    between atoms: N_5  and  C_7
REMARK    5  A    between atoms: C_9  and  C_11
REMARK    6  A    between atoms: C_9  and  N_71
REMARK    7  A    between atoms: C_12  and  N_71
REMARK    8  A    between atoms: C_13  and  C_14
REMARK    9  A    between atoms: C_13  and  N_71
REMARK   10  A    between atoms: N_22  and  C_25
REMARK   11  A    between atoms: C_25  and  C_26
REMARK                            x       y       z     vdW  Elec       q    Type
REMARK                         _______ _______ _______ _____ _____    ______ ____
ROOT
ATOM      1  C   UNL     1      -1.242   5.170  -0.203  0.00  0.00    +0.001 A 
ATOM      2  C   UNL     1      -0.159   5.702  -0.822  0.00  0.00    +0.017 A 
ATOM      3  C   UNL     1       0.077   7.142  -0.705  0.00  0.00    -0.001 A 
ATOM      4  C   UNL     1       1.173   7.750  -1.323  0.00  0.00    +0.014 A 
ATOM      5  C   UNL     1       1.373   9.098  -1.191  0.00  0.00    -0.043 A 
ATOM      6  C   UNL     1       0.492   9.870  -0.444  0.00  0.00    -0.042 A 
ATOM      7  C   UNL     1      -0.598   9.287   0.173  0.00  0.00    +0.030 A 
ATOM      8  C   UNL     1      -0.819   7.921   0.052  0.00  0.00    +0.053 A 
ATOM      9  N   UNL     1      -1.899   7.318   0.661  0.00  0.00    -0.304 N 
ATOM     10  C   UNL     1      -2.110   5.995   0.544  0.00  0.00    +0.253 A 
ATOM     11  O   UNL     1      -3.076   5.497   1.095  0.00  0.00    -0.267 OA
ATOM     12  C   UNL     1       0.943  11.316  -0.461  0.00  0.00    +0.036 C 
ATOM     13  C   UNL     1       2.415  11.275  -0.921  0.00  0.00    +0.009 C 
ATOM     14  C   UNL     1       2.469   9.978  -1.755  0.00  0.00    +0.036 C 
ENDROOT
BRANCH   1  15
ATOM     15  C   UNL     1      -1.516   3.692  -0.308  0.00  0.00    -0.037 C 
BRANCH  15  17
ATOM     16  C   UNL     1      -1.629   3.400   2.093  0.00  0.00    -0.095 C 
ATOM     17  N   UNL     1      -0.915   3.012   0.859  0.00  0.00    +0.385 N 
ATOM     18  H   UNL     1       0.069   3.295   0.940  0.00  0.00    -0.081 HD
BRANCH  17  19
ATOM     19  C   UNL     1      -0.979   1.546   0.678  0.00  0.00    -0.037 C 
ATOM     20  C   UNL     1      -0.172   1.165  -0.565  0.00  0.00    -0.008 C 
BRANCH  19  23
ATOM     21  C   UNL     1       1.696   2.395   2.150  0.00  0.00    +0.068 C 
ATOM     22  C   UNL     1       0.796   1.250   2.540  0.00  0.00    +0.062 A 
ATOM     23  C   UNL     1      -0.384   0.876   1.889  0.00  0.00    -0.018 A 
ATOM     24  C   UNL     1      -0.900  -0.190   2.543  0.00  0.00    +0.038 A 
ATOM     25  N   UNL     1      -0.071  -0.486   3.566  0.00  0.00    -0.271 N 
ATOM     26  N   UNL     1       0.985   0.434   3.545  0.00  0.00    -0.176 NA
ATOM     27  C   UNL     1      -0.247  -1.573   4.531  0.00  0.00    +0.172 C 
ATOM     28  C   UNL     1      -2.171  -0.919   2.190  0.00  0.00    +0.065 C 
ENDBRANCH  19  23
ENDBRANCH  17  19
ENDBRANCH  15  17
ENDBRANCH   1  15
BRANCH   9  29
ATOM     29  C   UNL     1      -2.831   8.131   1.447  0.00  0.00    +0.162 C 
BRANCH  29  30
ATOM     30  C   UNL     1      -2.313   8.268   2.856  0.00  0.00    -0.006 A 
ATOM     31  C   UNL     1      -1.097   7.707   3.201  0.00  0.00    +0.056 A 
ATOM     32  C   UNL     1      -0.618   7.832   4.495  0.00  0.00    +0.167 A 
ATOM     33  C   UNL     1      -1.365   8.523   5.447  0.00  0.00    +0.168 A 
ATOM     34  C   UNL     1      -2.582   9.082   5.095  0.00  0.00    +0.070 A 
ATOM     35  C   UNL     1      -3.052   8.959   3.799  0.00  0.00    +0.050 A 
ATOM     36 CL   UNL     1      -4.574   9.667   3.358  0.00  0.00    -0.083 Cl
ATOM     37  O   UNL     1      -0.686   8.505   6.631  0.00  0.00    -0.453 OA
ATOM     38  C   UNL     1       0.286   7.451   6.501  0.00  0.00    +0.466 C 
ATOM     39  O   UNL     1       0.528   7.382   5.083  0.00  0.00    -0.453 OA
ENDBRANCH  29  30
ENDBRANCH   9  29
TORSDOF 6
