REMARK  Name = ZINC06949606
REMARK  11 active torsions:
REMARK  status: ('A' for Active; 'I' for Inactive)
REMARK    1  A    between atoms: C_4  and  C_7
REMARK    2  A    between atoms: C_7  and  C_9
REMARK    3  A    between atoms: C_7  and  C_24
REMARK    4  A    between atoms: C_9  and  N_55
REMARK    5  A    between atoms: C_10  and  C_11
REMARK    6  A    between atoms: C_10  and  N_55
REMARK    7  A    between atoms: C_11  and  C_13
REMARK    8  A    between atoms: C_11  and  O_23
REMARK    9  A    between atoms: C_13  and  O_14
REMARK   10  A    between atoms: O_14  and  C_15
REMARK   11  A    between atoms: C_18  and  C_21
REMARK                            x       y       z     vdW  Elec       q    Type
REMARK                         _______ _______ _______ _____ _____    ______ ____
ROOT
ATOM      1  C   UNL     1      -0.212   0.781   4.913  0.00  0.00    -0.070 C 
ENDROOT
BRANCH   1   2
ATOM      2  N   UNL     1      -0.832   1.354   3.703  0.00  0.00    +0.381 N 
ATOM      3  H   UNL     1      -0.847   2.378   3.783  0.00  0.00    -0.086 HD
ATOM      4  H   UNL     1      -1.793   1.004   3.616  0.00  0.00    -0.086 HD
BRANCH   2   5
ATOM      5  C   UNL     1      -0.064   0.971   2.503  0.00  0.00    -0.047 C 
BRANCH   5   6
ATOM      6  C   UNL     1      -0.729   1.579   1.267  0.00  0.00    +0.135 C 
BRANCH   6   7
ATOM      7  O   UNL     1      -0.647   3.004   1.334  0.00  0.00    -0.390 OA
ATOM      8  H   UNL     1       0.258   3.345   1.368  0.00  0.00    +0.210 HD
ENDBRANCH   6   7
BRANCH   6   9
ATOM      9  C   UNL     1      -0.013   1.086   0.008  0.00  0.00    +0.258 C 
BRANCH   9  10
ATOM     10  O   UNL     1      -0.704   1.559  -1.150  0.00  0.00    -0.489 OA
BRANCH  10  11
ATOM     11  C   UNL     1      -0.195   1.208  -2.358  0.00  0.00    +0.121 A 
ATOM     12  C   UNL     1       0.953   0.427  -2.426  0.00  0.00    +0.047 A 
ATOM     13  C   UNL     1       1.470   0.063  -3.650  0.00  0.00    +0.022 A 
ATOM     14  C   UNL     1       0.845   0.491  -4.825  0.00  0.00    +0.052 A 
ATOM     15  C   UNL     1      -0.306   1.281  -4.752  0.00  0.00    +0.022 A 
ATOM     16  C   UNL     1      -0.819   1.635  -3.524  0.00  0.00    +0.047 A 
BRANCH  14  17
ATOM     17  C   UNL     1       1.381   0.119  -6.099  0.00  0.00    +0.099 C 
ATOM     18  N   UNL     1       1.807  -0.175  -7.110  0.00  0.00    -0.191 NA
ENDBRANCH  14  17
ENDBRANCH  10  11
ENDBRANCH   9  10
ENDBRANCH   6   9
ENDBRANCH   5   6
ENDBRANCH   2   5
ENDBRANCH   1   2
BRANCH   1  19
ATOM     19  C   UNL     1      -1.029   1.194   6.138  0.00  0.00    +0.034 C 
BRANCH  19  20
ATOM     20  C   UNL     1      -0.476   0.514   7.364  0.00  0.00    -0.017 A 
ATOM     21  C   UNL     1       0.771   0.630   7.847  0.00  0.00    +0.087 A 
ATOM     22  N   UNL     1       0.907  -0.132   8.976  0.00  0.00    -0.360 N 
ATOM     23  H   UNL     1       1.717  -0.207   9.503  0.00  0.00    +0.165 HD
ATOM     24  C   UNL     1      -0.277  -0.781   9.247  0.00  0.00    +0.047 A 
ATOM     25  C   UNL     1      -1.195  -0.405   8.250  0.00  0.00    +0.003 A 
ATOM     26  C   UNL     1      -2.494  -0.915   8.270  0.00  0.00    +0.010 A 
ATOM     27  C   UNL     1      -2.868  -1.779   9.261  0.00  0.00    +0.001 A 
ATOM     28  C   UNL     1      -1.966  -2.154  10.247  0.00  0.00    +0.002 A 
ATOM     29  C   UNL     1      -0.678  -1.662  10.246  0.00  0.00    +0.026 A 
ENDBRANCH  19  20
BRANCH  19  33
ATOM     30  C   UNL     1      -0.802   5.431   6.639  0.00  0.00    +0.000 A 
ATOM     31  C   UNL     1      -2.028   4.822   6.443  0.00  0.00    +0.000 A 
ATOM     32  C   UNL     1      -2.102   3.451   6.281  0.00  0.00    +0.004 A 
ATOM     33  C   UNL     1      -0.949   2.689   6.315  0.00  0.00    -0.042 A 
ATOM     34  C   UNL     1       0.276   3.297   6.515  0.00  0.00    +0.004 A 
ATOM     35  C   UNL     1       0.350   4.668   6.673  0.00  0.00    +0.000 A 
ENDBRANCH  19  33
ENDBRANCH   1  19
TORSDOF 11
