REMARK  Name = ZINC08623863
REMARK  4 active torsions:
REMARK  status: ('A' for Active; 'I' for Inactive)
REMARK    1  A    between atoms: N_13  and  C_17
REMARK    2  A    between atoms: C_17  and  C_18
REMARK    3  A    between atoms: C_21  and  C_31
REMARK    4  A    between atoms: C_24  and  C_26
REMARK                            x       y       z     vdW  Elec       q    Type
REMARK                         _______ _______ _______ _____ _____    ______ ____
ROOT
ATOM      1  C   UNL     1       3.666   5.143   2.751  0.00  0.00    +0.215 C 
ENDROOT
BRANCH   1  14
ATOM      2  C   UNL     1       0.186   1.257   7.284  0.00  0.00    +0.000 A 
ATOM      3  C   UNL     1       0.011   2.451   6.610  0.00  0.00    +0.000 A 
ATOM      4  C   UNL     1       1.111   3.203   6.250  0.00  0.00    +0.006 A 
ATOM      5  C   UNL     1       2.394   2.770   6.560  0.00  0.00    -0.012 A 
ATOM      6  C   UNL     1       2.568   1.581   7.234  0.00  0.00    -0.042 A 
ATOM      7  C   UNL     1       1.460   0.826   7.594  0.00  0.00    +0.004 A 
ATOM      8  C   UNL     1       3.929   1.057   7.608  0.00  0.00    +0.035 C 
ATOM      9  C   UNL     1       5.016   1.734   6.775  0.00  0.00    +0.008 C 
ATOM     10  C   UNL     1       4.828   3.253   6.875  0.00  0.00    +0.040 C 
ATOM     11  C   UNL     1       3.550   3.631   6.137  0.00  0.00    +0.138 C 
ATOM     12  C   UNL     1       3.758   3.530   4.642  0.00  0.00    +0.251 C 
ATOM     13  O   UNL     1       4.039   2.537   4.006  0.00  0.00    -0.272 OA
ATOM     14  N   UNL     1       3.564   4.777   4.166  0.00  0.00    -0.215 N 
ATOM     15  C   UNL     1       3.272   5.640   5.146  0.00  0.00    +0.310 C 
ATOM     16  O   UNL     1       3.060   6.823   4.965  0.00  0.00    -0.252 OA
ATOM     17  N   UNL     1       3.235   5.050   6.356  0.00  0.00    -0.281 N 
ATOM     18  H   UNL     1       3.041   5.477   7.205  0.00  0.00    +0.152 HD
ENDBRANCH   1  14
BRANCH   1  19
ATOM     19  C   UNL     1       2.319   4.987   2.093  0.00  0.00    +0.253 C 
ATOM     20  O   UNL     1       1.367   4.608   2.743  0.00  0.00    -0.272 OA
ATOM     21  N   UNL     1       2.171   5.269   0.783  0.00  0.00    -0.183 N 
ATOM     22  C   UNL     1       0.918   5.160   0.021  0.00  0.00    +0.143 C 
ATOM     23  C   UNL     1       1.320   5.597  -1.402  0.00  0.00    +0.088 C 
ATOM     24  C   UNL     1       2.794   5.913  -1.284  0.00  0.00    +0.075 C 
ATOM     25  N   UNL     1       3.182   5.710  -0.069  0.00  0.00    -0.180 NA
BRANCH  24  26
ATOM     26  C   UNL     1       3.651   6.376  -2.380  0.00  0.00    +0.035 A 
ATOM     27  C   UNL     1       5.000   6.686  -2.361  0.00  0.00    +0.017 A 
ATOM     28  C   UNL     1       5.590   7.105  -3.531  0.00  0.00    +0.008 A 
ATOM     29  C   UNL     1       4.838   7.201  -4.658  0.00  0.00    +0.046 A 
ATOM     30  S   UNL     1       3.229   6.680  -4.088  0.00  0.00    -0.095 S 
ENDBRANCH  24  26
BRANCH  22  31
ATOM     31  C   UNL     1       0.421   3.738   0.017  0.00  0.00    +0.013 A 
ATOM     32  C   UNL     1      -0.855   3.279   0.027  0.00  0.00    +0.013 A 
ATOM     33  C   UNL     1      -1.077   1.915   0.017  0.00  0.00    +0.008 A 
ATOM     34  C   UNL     1      -0.013   1.076   0.008  0.00  0.00    +0.045 A 
ATOM     35  S   UNL     1       1.359   2.219   0.001  0.00  0.00    -0.100 S 
ENDBRANCH  22  31
ENDBRANCH   1  19
TORSDOF 4
