REMARK  Name = ZINC10331522
REMARK  7 active torsions:
REMARK  status: ('A' for Active; 'I' for Inactive)
REMARK    1  A    between atoms: C_3  and  C_9
REMARK    2  A    between atoms: N_11  and  C_12
REMARK    3  A    between atoms: C_12  and  C_13
REMARK    4  A    between atoms: N_15  and  C_16
REMARK    5  A    between atoms: C_16  and  C_17
REMARK    6  A    between atoms: N_19  and  N_20
REMARK    7  A    between atoms: C_21  and  C_23
REMARK                            x       y       z     vdW  Elec       q    Type
REMARK                         _______ _______ _______ _____ _____    ______ ____
ROOT
ATOM      1  C   UNL     1      -8.517   0.788  -0.143  0.00  0.00    +0.201 C 
ENDROOT
BRANCH   1   4
ATOM      2  C   UNL     1     -10.713   1.844  -0.159  0.00  0.00    +0.231 C 
ATOM      3  O   UNL     1     -11.212   0.739  -0.193  0.00  0.00    -0.274 OA
ATOM      4  N   UNL     1      -9.373   1.978  -0.132  0.00  0.00    -0.305 N 
ATOM      5  H   UNL     1      -8.974   2.861  -0.104  0.00  0.00    +0.149 HD
BRANCH   2   6
ATOM      6  C   UNL     1     -11.593   3.067  -0.148  0.00  0.00    +0.200 C 
BRANCH   6   9
ATOM      7  C   UNL     1     -13.973   3.590  -0.180  0.00  0.00    +0.246 C 
ATOM      8  O   UNL     1     -13.684   4.771  -0.148  0.00  0.00    -0.270 OA
ATOM      9  N   UNL     1     -12.999   2.658  -0.183  0.00  0.00    -0.303 N 
ATOM     10  H   UNL     1     -13.230   1.716  -0.208  0.00  0.00    +0.150 HD
BRANCH   7  13
ATOM     11  C   UNL     1     -17.051   1.443  -0.285  0.00  0.00    +0.021 A 
ATOM     12  C   UNL     1     -15.726   1.823  -0.252  0.00  0.00    +0.016 A 
ATOM     13  C   UNL     1     -15.391   3.177  -0.215  0.00  0.00    +0.055 A 
ATOM     14  C   UNL     1     -16.403   4.141  -0.206  0.00  0.00    +0.054 A 
ATOM     15  C   UNL     1     -17.726   3.749  -0.245  0.00  0.00    +0.040 A 
ATOM     16  C   UNL     1     -18.050   2.403  -0.281  0.00  0.00    +0.042 A 
ATOM     17 CL   UNL     1     -19.716   1.917  -0.322  0.00  0.00    -0.083 Cl
ATOM     18 CL   UNL     1     -15.997   5.829  -0.153  0.00  0.00    -0.083 Cl
ENDBRANCH   7  13
ENDBRANCH   6   9
ENDBRANCH   2   6
ENDBRANCH   1   4
BRANCH   1  19
ATOM     19  C   UNL     1      -7.071   1.209  -0.107  0.00  0.00    +0.246 C 
ATOM     20  O   UNL     1      -6.783   2.387  -0.075  0.00  0.00    -0.273 OA
ATOM     21  N   UNL     1      -6.097   0.277  -0.110  0.00  0.00    -0.233 N 
ATOM     22  H   UNL     1      -6.328  -0.665  -0.135  0.00  0.00    +0.173 HD
BRANCH  21  23
ATOM     23  N   UNL     1      -4.753   0.669  -0.076  0.00  0.00    -0.230 N 
ATOM     24  C   UNL     1      -3.779  -0.263  -0.080  0.00  0.00    +0.267 C 
ATOM     25  O   UNL     1      -4.068  -1.445  -0.112  0.00  0.00    -0.268 OA
ATOM     26  H   UNL     1      -4.522   1.611  -0.051  0.00  0.00    +0.173 HD
BRANCH  24  27
ATOM     27  C   UNL     1      -2.372   0.146  -0.044  0.00  0.00    +0.076 A 
ATOM     28  C   UNL     1      -1.234  -0.640  -0.041  0.00  0.00    +0.024 A 
ATOM     29  C   UNL     1       0.002  -0.004   0.002  0.00  0.00    -0.036 A 
ATOM     30  C   UNL     1      -0.016   1.348   0.009  0.00  0.00    -0.006 A 
ATOM     31  S   UNL     1      -1.678   1.791   0.005  0.00  0.00    -0.088 S 
ATOM     32  C   UNL     1       1.189   2.263   0.003  0.00  0.00    +0.043 C 
ATOM     33  C   UNL     1       1.901   2.086   1.355  0.00  0.00    +0.005 C 
ATOM     34  C   UNL     1       2.734   0.827   1.351  0.00  0.00    +0.001 C 
ATOM     35  C   UNL     1       1.980  -0.478   1.400  0.00  0.00    +0.005 C 
ATOM     36  C   UNL     1       1.309  -0.801   0.064  0.00  0.00    +0.036 C 
ENDBRANCH  24  27
ENDBRANCH  21  23
ENDBRANCH   1  19
TORSDOF 7
