REMARK  Name = ZINC62826921
REMARK  6 active torsions:
REMARK  status: ('A' for Active; 'I' for Inactive)
REMARK    1  A    between atoms: C_1  and  C_2
REMARK    2  A    between atoms: C_2  and  C_3
REMARK    3  A    between atoms: C_2  and  C_6
REMARK    4  A    between atoms: C_2  and  N_19
REMARK    5  A    between atoms: N_8  and  C_9
REMARK    6  A    between atoms: C_10  and  C_16
REMARK                            x       y       z     vdW  Elec       q    Type
REMARK                         _______ _______ _______ _____ _____    ______ ____
ROOT
ATOM      1  C   UNL     1       0.622   0.104  -1.453  0.00  0.00    +0.206 C 
ATOM      2  O   UNL     1       1.791   0.403  -1.579  0.00  0.00    -0.277 OA
ATOM      3  N   UNL     1       0.014  -0.646  -2.393  0.00  0.00    -0.285 N 
ATOM      4  H   UNL     1      -0.896  -0.952  -2.255  0.00  0.00    +0.155 HD
ENDROOT
BRANCH   3   5
ATOM      5  C   UNL     1       0.691  -0.982  -3.562  0.00  0.00    +0.062 A 
ATOM      6  C   UNL     1       0.120  -0.704  -4.814  0.00  0.00    +0.085 A 
ATOM      7  C   UNL     1       0.812  -1.047  -5.980  0.00  0.00    +0.017 A 
ATOM      8  C   UNL     1       2.045  -1.654  -5.894  0.00  0.00    +0.002 A 
ATOM      9  C   UNL     1       2.606  -1.928  -4.656  0.00  0.00    +0.017 A 
ATOM     10  C   UNL     1       1.939  -1.590  -3.495  0.00  0.00    +0.040 A 
ATOM     11 BR   UNL     1       2.720  -1.962  -1.814  0.00  0.00    -0.048 Br
BRANCH   6  12
ATOM     12  C   UNL     1      -1.198  -0.055  -4.899  0.00  0.00    +0.388 C 
ATOM     13  O   UNL     1      -1.738   0.093  -5.986  0.00  0.00    -0.241 OA
ATOM     14  O   UNL     1      -1.754   0.337  -3.881  0.00  0.00    -0.241 OA
ENDBRANCH   6  12
ENDBRANCH   3   5
BRANCH   1  16
ATOM     15  C   UNL     1      -0.894   1.865  -0.587  0.00  0.00    -0.001 C 
ATOM     16  C   UNL     1      -0.149   0.572  -0.246  0.00  0.00    +0.007 C 
BRANCH  16  17
ATOM     17  N   UNL     1      -1.117  -0.461   0.147  0.00  0.00    +0.388 N 
ATOM     18  H   UNL     1      -1.756  -0.632  -0.615  0.00  0.00    -0.089 HD
ATOM     19  H   UNL     1      -0.626  -1.313   0.372  0.00  0.00    -0.089 HD
ATOM     20  H   UNL     1      -1.634  -0.148   0.955  0.00  0.00    -0.089 HD
ENDBRANCH  16  17
BRANCH  16  21
ATOM     21  C   UNL     1       0.819   0.831   0.910  0.00  0.00    -0.014 C 
ATOM     22  C   UNL     1       0.754  -0.115   2.111  0.00  0.00    +0.003 C 
ATOM     23  C   UNL     1       0.225   1.316   2.234  0.00  0.00    +0.003 C 
ENDBRANCH  16  21
ENDBRANCH   1  16
TORSDOF 5
