REMARK  Name = ZINC45764916
REMARK  6 active torsions:
REMARK  status: ('A' for Active; 'I' for Inactive)
REMARK    1  A    between atoms: C_4  and  N_11
REMARK    2  A    between atoms: C_5  and  C_7
REMARK    3  A    between atoms: C_7  and  C_8
REMARK    4  A    between atoms: N_14  and  C_15
REMARK    5  A    between atoms: C_15  and  C_17
REMARK    6  A    between atoms: C_15  and  C_24
REMARK                            x       y       z     vdW  Elec       q    Type
REMARK                         _______ _______ _______ _____ _____    ______ ____
ROOT
ATOM      1  N   UNL     1       4.140  -1.633  -1.108  0.00  0.00    -0.269 N 
ATOM      2  C   UNL     1       5.272  -0.903  -1.160  0.00  0.00    +0.304 C 
ATOM      3  O   UNL     1       5.520  -0.235  -2.145  0.00  0.00    -0.252 OA
ATOM      4  N   UNL     1       6.129  -0.914  -0.119  0.00  0.00    -0.292 N 
ATOM      5  H   UNL     1       3.908  -2.111  -0.297  0.00  0.00    +0.156 HD
ATOM      6  H   UNL     1       5.968  -1.502   0.635  0.00  0.00    +0.151 HD
ENDROOT
BRANCH   1  10
ATOM      7  C   UNL     1       1.641  -1.837  -4.436  0.00  0.00    +0.000 A 
ATOM      8  C   UNL     1       2.341  -0.674  -4.168  0.00  0.00    +0.002 A 
ATOM      9  C   UNL     1       3.170  -0.603  -3.066  0.00  0.00    +0.023 A 
ATOM     10  C   UNL     1       3.300  -1.701  -2.226  0.00  0.00    +0.038 A 
ATOM     11  C   UNL     1       2.596  -2.867  -2.497  0.00  0.00    -0.017 A 
ATOM     12  C   UNL     1       1.768  -2.931  -3.601  0.00  0.00    +0.006 A 
BRANCH  11  13
ATOM     13  C   UNL     1       2.735  -4.061  -1.587  0.00  0.00    +0.132 C 
BRANCH  13  14
ATOM     14  C   UNL     1       1.780  -3.924  -0.430  0.00  0.00    +0.215 C 
ATOM     15  O   UNL     1       1.058  -2.953  -0.351  0.00  0.00    -0.276 OA
ATOM     16  N   UNL     1       1.729  -4.881   0.518  0.00  0.00    -0.329 N 
ATOM     17  H   UNL     1       2.307  -5.658   0.455  0.00  0.00    +0.145 HD
ATOM     18  H   UNL     1       1.114  -4.794   1.263  0.00  0.00    +0.145 HD
ENDBRANCH  13  14
ENDBRANCH  11  13
ENDBRANCH   1  10
BRANCH   4  19
ATOM     19  C   UNL     1       7.303  -0.038  -0.128  0.00  0.00    +0.108 C 
BRANCH  19  20
ATOM     20  C   UNL     1       8.455  -0.749  -0.791  0.00  0.00    -0.027 A 
ATOM     21  C   UNL     1       8.665  -2.095  -0.555  0.00  0.00    +0.008 A 
ATOM     22  C   UNL     1       9.720  -2.747  -1.163  0.00  0.00    +0.038 A 
ATOM     23  C   UNL     1      10.568  -2.052  -2.009  0.00  0.00    +0.123 A 
ATOM     24  C   UNL     1      10.357  -0.705  -2.245  0.00  0.00    +0.038 A 
ATOM     25  C   UNL     1       9.298  -0.055  -1.640  0.00  0.00    +0.008 A 
ATOM     26  F   UNL     1      11.601  -2.689  -2.603  0.00  0.00    -0.205 F 
ENDBRANCH  19  20
BRANCH  19  27
ATOM     27  C   UNL     1       7.684   0.318   1.310  0.00  0.00    +0.014 C 
ATOM     28  C   UNL     1       7.910  -0.968   2.131  0.00  0.00    +0.006 C 
ATOM     29  C   UNL     1       7.344  -0.629   3.533  0.00  0.00    +0.000 C 
ATOM     30  C   UNL     1       6.094   0.223   3.199  0.00  0.00    +0.000 C 
ATOM     31  C   UNL     1       6.529   1.075   1.989  0.00  0.00    +0.006 C 
ENDBRANCH  19  27
ENDBRANCH   4  19
TORSDOF 6
