REMARK  Name = ZINC12218758
REMARK  8 active torsions:
REMARK  status: ('A' for Active; 'I' for Inactive)
REMARK    1  A    between atoms: C_1  and  C_2
REMARK    2  A    between atoms: C_2  and  C_3
REMARK    3  A    between atoms: C_2  and  C_4
REMARK    4  A    between atoms: C_4  and  N_5
REMARK    5  A    between atoms: C_6  and  C_8
REMARK    6  A    between atoms: N_13  and  C_15
REMARK    7  A    between atoms: N_23  and  C_26
REMARK    8  A    between atoms: C_26  and  C_27
REMARK                            x       y       z     vdW  Elec       q    Type
REMARK                         _______ _______ _______ _____ _____    ______ ____
ROOT
ATOM      1  C   UNL     1      -1.722   4.919   0.044  0.00  0.00    +0.043 A 
ATOM      2  C   UNL     1      -0.628   5.786   0.078  0.00  0.00    +0.024 A 
ATOM      3  C   UNL     1      -0.820   7.151   0.086  0.00  0.00    +0.003 A 
ATOM      4  C   UNL     1      -2.103   7.684   0.061  0.00  0.00    +0.014 A 
ATOM      5  C   UNL     1      -3.200   6.842   0.028  0.00  0.00    +0.051 A 
ATOM      6  C   UNL     1      -3.013   5.443   0.014  0.00  0.00    +0.070 A 
ATOM      7  C   UNL     1      -4.362   4.855  -0.029  0.00  0.00    +0.256 C 
ATOM      8  O   UNL     1      -4.617   3.667  -0.048  0.00  0.00    -0.269 OA
ATOM      9  N   UNL     1      -5.266   5.851  -0.044  0.00  0.00    -0.232 N 
ATOM     10  C   UNL     1      -4.662   7.053  -0.004  0.00  0.00    +0.254 C 
ATOM     11  O   UNL     1      -5.224   8.130  -0.007  0.00  0.00    -0.270 OA
ENDROOT
BRANCH   1  16
ATOM     12  C   UNL     1      -0.732   1.581   1.266  0.00  0.00    +0.092 C 
ATOM     13  C   UNL     1      -0.013   1.086   0.008  0.00  0.00    +0.016 C 
ATOM     14  C   UNL     1      -0.756   1.594  -1.230  0.00  0.00    +0.020 C 
ATOM     15  C   UNL     1      -0.826   3.122  -1.185  0.00  0.00    +0.105 C 
ATOM     16  N   UNL     1      -1.525   3.546   0.035  0.00  0.00    -0.329 N 
ATOM     17  C   UNL     1      -0.804   3.109   1.238  0.00  0.00    +0.117 C 
BRANCH  12  19
ATOM     18  N   UNL     1       0.220  -0.179   2.720  0.00  0.00    -0.315 N 
ATOM     19  C   UNL     1       0.028   1.134   2.488  0.00  0.00    +0.218 C 
ATOM     20  O   UNL     1       0.466   1.957   3.264  0.00  0.00    -0.275 OA
ATOM     21  H   UNL     1      -0.131  -0.838   2.099  0.00  0.00    +0.149 HD
BRANCH  18  22
ATOM     22  C   UNL     1       0.958  -0.614   3.908  0.00  0.00    +0.107 C 
BRANCH  22  24
ATOM     23  C   UNL     1       1.860  -2.630   2.741  0.00  0.00    +0.009 C 
ATOM     24  C   UNL     1       1.033  -2.142   3.932  0.00  0.00    -0.000 C 
ATOM     25  C   UNL     1       1.694  -2.599   5.234  0.00  0.00    +0.009 C 
ENDBRANCH  22  24
ENDBRANCH  18  22
ENDBRANCH  12  19
ENDBRANCH   1  16
BRANCH   9  26
ATOM     26  C   UNL     1      -6.717   5.653  -0.086  0.00  0.00    +0.148 C 
BRANCH  26  27
ATOM     27  C   UNL     1      -7.261   5.570   1.342  0.00  0.00    +0.136 C 
ATOM     28  C   UNL     1      -8.770   5.237   1.324  0.00  0.00    +0.035 C 
ATOM     29  C   UNL     1      -9.351   6.067   2.490  0.00  0.00    +0.031 C 
ATOM     30  C   UNL     1      -8.126   6.803   3.075  0.00  0.00    +0.160 C 
ATOM     31  O   UNL     1      -7.176   6.859   1.988  0.00  0.00    -0.375 OA
ENDBRANCH  26  27
ENDBRANCH   9  26
TORSDOF 6
