REMARK  Name = ZINC12298590
REMARK  10 active torsions:
REMARK  status: ('A' for Active; 'I' for Inactive)
REMARK    1  A    between atoms: C_1  and  N_2
REMARK    2  A    between atoms: N_2  and  C_3
REMARK    3  A    between atoms: C_3  and  C_4
REMARK    4  A    between atoms: C_4  and  N_68
REMARK    5  A    between atoms: C_14  and  C_16
REMARK    6  A    between atoms: C_16  and  C_17
REMARK    7  A    between atoms: C_24  and  C_25
REMARK    8  A    between atoms: C_24  and  N_70
REMARK    9  A    between atoms: C_25  and  C_26
REMARK   10  A    between atoms: C_26  and  C_27
REMARK                            x       y       z     vdW  Elec       q    Type
REMARK                         _______ _______ _______ _____ _____    ______ ____
ROOT
ATOM      1  C   UNL     1       0.947   1.854  -0.133  0.00  0.00    +0.090 C 
ENDROOT
BRANCH   1   2
ATOM      2  C   UNL     1       0.881   3.383  -0.117  0.00  0.00    +0.028 C 
ATOM      3  C   UNL     1       0.187   3.839   1.135  0.00  0.00    +0.200 C 
ATOM      4  O   UNL     1       0.460   3.293   2.183  0.00  0.00    -0.278 OA
ATOM      5  N   UNL     1      -0.720   4.822   1.142  0.00  0.00    -0.318 N 
ATOM      6  C   UNL     1      -1.146   5.518  -0.069  0.00  0.00    +0.085 C 
ATOM      7  C   UNL     1      -0.126   5.295  -1.187  0.00  0.00    -0.059 C 
ATOM      8  H   UNL     1      -1.113   5.084   1.989  0.00  0.00    +0.149 HD
ATOM      9  N   UNL     1       0.124   3.843  -1.296  0.00  0.00    +0.389 N 
ATOM     10  H   UNL     1      -0.776   3.350  -1.330  0.00  0.00    -0.081 HD
BRANCH   9  11
ATOM     11  C   UNL     1       0.883   3.549  -2.532  0.00  0.00    -0.077 C 
BRANCH  11  12
ATOM     12  C   UNL     1      -0.053   3.692  -3.734  0.00  0.00    -0.014 C 
BRANCH  12  13
ATOM     13  C   UNL     1       0.715   3.376  -5.019  0.00  0.00    +0.033 C 
BRANCH  13  14
ATOM     14  C   UNL     1      -0.207   3.517  -6.203  0.00  0.00    -0.047 A 
ATOM     15  C   UNL     1      -0.931   2.426  -6.648  0.00  0.00    +0.003 A 
ATOM     16  C   UNL     1      -1.780   2.557  -7.731  0.00  0.00    +0.000 A 
ATOM     17  C   UNL     1      -1.898   3.774  -8.374  0.00  0.00    +0.000 A 
ATOM     18  C   UNL     1      -1.170   4.863  -7.933  0.00  0.00    +0.000 A 
ATOM     19  C   UNL     1      -0.324   4.734  -6.846  0.00  0.00    +0.003 A 
ENDBRANCH  13  14
ENDBRANCH  12  13
ENDBRANCH  11  12
ENDBRANCH   9  11
ENDBRANCH   1   2
BRANCH   1  22
ATOM     20  C   UNL     1       0.505  -0.939   0.051  0.00  0.00    +0.132 C 
ATOM     21  N   UNL     1      -0.644  -0.039  -0.072  0.00  0.00    -0.306 N 
ATOM     22  C   UNL     1      -0.451   1.292  -0.161  0.00  0.00    +0.214 C 
ATOM     23  O   UNL     1      -1.402   2.037  -0.268  0.00  0.00    -0.276 OA
BRANCH  21  24
ATOM     24  C   UNL     1      -2.003  -0.585  -0.099  0.00  0.00    +0.089 C 
BRANCH  24  25
ATOM     25  C   UNL     1      -2.405  -0.882  -1.545  0.00  0.00    -0.059 C 
BRANCH  25  35
ATOM     26  C   UNL     1      -4.279  -1.506  -2.949  0.00  0.00    -0.074 C 
ATOM     27  C   UNL     1      -5.517  -2.403  -2.959  0.00  0.00    +0.017 C 
ATOM     28  C   UNL     1      -6.479  -1.963  -1.886  0.00  0.00    -0.048 A 
ATOM     29  C   UNL     1      -7.793  -2.403  -1.955  0.00  0.00    +0.004 A 
ATOM     30  C   UNL     1      -8.706  -2.027  -0.990  0.00  0.00    +0.000 A 
ATOM     31  C   UNL     1      -8.309  -1.207   0.050  0.00  0.00    +0.000 A 
ATOM     32  C   UNL     1      -7.002  -0.768   0.119  0.00  0.00    +0.002 A 
ATOM     33  C   UNL     1      -6.084  -1.143  -0.851  0.00  0.00    -0.061 A 
ATOM     34  C   UNL     1      -4.672  -0.631  -0.738  0.00  0.00    -0.043 C 
ATOM     35  N   UNL     1      -3.771  -1.453  -1.564  0.00  0.00    +0.384 N 
ATOM     36  H   UNL     1      -3.740  -2.405  -1.181  0.00  0.00    -0.081 HD
ENDBRANCH  25  35
ENDBRANCH  24  25
ENDBRANCH  21  24
ENDBRANCH   1  22
TORSDOF 9
