REMARK  Name = ZINC01102213
REMARK  12 active torsions:
REMARK  status: ('A' for Active; 'I' for Inactive)
REMARK    1  A    between atoms: C_1  and  C_2
REMARK    2  A    between atoms: C_3  and  C_26
REMARK    3  A    between atoms: C_15  and  C_19
REMARK    4  A    between atoms: C_16  and  N_18
REMARK    5  A    between atoms: C_19  and  O_21
REMARK    6  A    between atoms: O_21  and  C_22
REMARK    7  A    between atoms: C_22  and  C_23
REMARK    8  A    between atoms: C_22  and  C_24
REMARK    9  A    between atoms: C_22  and  C_25
REMARK   10  A    between atoms: C_26  and  O_28
REMARK   11  A    between atoms: O_28  and  C_29
REMARK   12  A    between atoms: C_29  and  C_30
REMARK                            x       y       z     vdW  Elec       q    Type
REMARK                         _______ _______ _______ _____ _____    ______ ____
ROOT
ATOM      1  C   UNL     1      -0.056   1.502  -0.000  0.00  0.00    +0.087 C 
ATOM      2  C   UNL     1      -0.016  -0.005  -0.003  0.00  0.00    +0.116 C 
ATOM      3  C   UNL     1      -1.170  -0.686   0.021  0.00  0.00    +0.098 C 
ATOM      4  C   UNL     1      -1.180  -2.187   0.018  0.00  0.00    +0.145 C 
ATOM      5  C   UNL     1      -1.576  -2.716   1.374  0.00  0.00    -0.001 A 
ATOM      6  C   UNL     1      -1.019  -2.600   2.628  0.00  0.00    +0.022 A 
ATOM      7  C   UNL     1      -1.623  -3.213   3.713  0.00  0.00    +0.018 A 
ATOM      8  C   UNL     1      -2.786  -3.940   3.531  0.00  0.00    +0.017 A 
ATOM      9  C   UNL     1      -3.346  -4.058   2.276  0.00  0.00    +0.025 A 
ATOM     10  C   UNL     1      -2.744  -3.444   1.181  0.00  0.00    +0.038 A 
ATOM     11  N   UNL     1      -3.112  -3.416  -0.166  0.00  0.00    -0.284 N 
ATOM     12  C   UNL     1      -2.252  -2.702  -0.914  0.00  0.00    +0.237 C 
ATOM     13  O   UNL     1      -2.323  -2.510  -2.109  0.00  0.00    -0.274 OA
ATOM     14 BR   UNL     1      -0.861  -3.057   5.436  0.00  0.00    -0.050 Br
ATOM     15  C   UNL     1       0.162  -2.725  -0.385  0.00  0.00    +0.117 C 
ATOM     16  C   UNL     1       1.257  -1.918  -0.387  0.00  0.00    +0.195 C 
ATOM     17  O   UNL     1       1.174  -0.624  -0.035  0.00  0.00    -0.446 OA
ATOM     18  H   UNL     1      -3.898  -3.860  -0.521  0.00  0.00    +0.155 HD
ENDROOT
BRANCH  16  19
ATOM     19  N   UNL     1       2.469  -2.433  -0.761  0.00  0.00    -0.329 N 
ATOM     20  H   UNL     1       2.527  -3.343  -1.093  0.00  0.00    +0.145 HD
ATOM     21  H   UNL     1       3.269  -1.889  -0.694  0.00  0.00    +0.145 HD
ENDBRANCH  16  19
BRANCH  15  22
ATOM     22  C   UNL     1       0.289  -4.071  -0.762  0.00  0.00    +0.342 C 
ATOM     23  O   UNL     1       0.339  -4.940   0.090  0.00  0.00    -0.245 OA
BRANCH  22  24
ATOM     24  O   UNL     1       0.355  -4.402  -2.069  0.00  0.00    -0.455 OA
BRANCH  24  25
ATOM     25  C   UNL     1       0.484  -5.791  -2.380  0.00  0.00    +0.106 C 
ATOM     26  C   UNL     1      -0.722  -6.552  -1.824  0.00  0.00    +0.055 C 
ATOM     27  C   UNL     1       0.543  -5.970  -3.899  0.00  0.00    +0.055 C 
ATOM     28  C   UNL     1       1.767  -6.338  -1.752  0.00  0.00    +0.055 C 
ENDBRANCH  24  25
ENDBRANCH  22  24
ENDBRANCH  15  22
BRANCH   3  29
ATOM     29  C   UNL     1      -2.398   0.021   0.049  0.00  0.00    +0.340 C 
ATOM     30  O   UNL     1      -2.399   1.237   0.052  0.00  0.00    -0.245 OA
BRANCH  29  31
ATOM     31  O   UNL     1      -3.565  -0.655   0.073  0.00  0.00    -0.457 OA
BRANCH  31  32
ATOM     32  C   UNL     1      -4.764   0.121   0.101  0.00  0.00    +0.268 C 
BRANCH  32  33
ATOM     33  C   UNL     1      -5.958  -0.798   0.125  0.00  0.00    -0.010 A 
ATOM     34  C   UNL     1      -6.528  -1.222  -1.061  0.00  0.00    +0.007 A 
ATOM     35  C   UNL     1      -7.623  -2.066  -1.039  0.00  0.00    +0.000 A 
ATOM     36  C   UNL     1      -8.147  -2.486   0.169  0.00  0.00    +0.000 A 
ATOM     37  C   UNL     1      -7.577  -2.063   1.355  0.00  0.00    +0.000 A 
ATOM     38  C   UNL     1      -6.479  -1.223   1.333  0.00  0.00    +0.007 A 
ENDBRANCH  32  33
ENDBRANCH  31  32
ENDBRANCH  29  31
ENDBRANCH   3  29
TORSDOF 8
