REMARK  Name = ZINC15221336
REMARK  6 active torsions:
REMARK  status: ('A' for Active; 'I' for Inactive)
REMARK    1  A    between atoms: C_1  and  C_2
REMARK    2  A    between atoms: C_9  and  N_14
REMARK    3  A    between atoms: C_10  and  O_13
REMARK    4  A    between atoms: N_15  and  C_16
REMARK    5  A    between atoms: C_16  and  C_18
REMARK    6  A    between atoms: C_21  and  C_23
REMARK                            x       y       z     vdW  Elec       q    Type
REMARK                         _______ _______ _______ _____ _____    ______ ____
ROOT
ATOM      1  C   UNL     1      -0.018   1.503   0.010  0.00  0.00    +0.045 C 
ATOM      2  C   UNL     1       0.002  -0.004   0.002  0.00  0.00    -0.036 A 
ATOM      3  C   UNL     1       0.006  -0.688  -1.203  0.00  0.00    +0.006 A 
ATOM      4  C   UNL     1       0.024  -2.067  -1.228  0.00  0.00    +0.027 A 
ATOM      5  C   UNL     1       0.039  -2.784  -0.037  0.00  0.00    +0.052 A 
ATOM      6  C   UNL     1       0.035  -2.091   1.182  0.00  0.00    +0.045 A 
ATOM      7  C   UNL     1       0.023  -0.699   1.195  0.00  0.00    +0.032 A 
ATOM      8 BR   UNL     1       0.026   0.236   2.838  0.00  0.00    -0.049 Br
ATOM      9  C   UNL     1       0.053  -3.121   2.240  0.00  0.00    +0.153 A 
ATOM     10  C   UNL     1       0.066  -4.356   1.578  0.00  0.00    +0.219 A 
ATOM     11  N   UNL     1       0.057  -4.142   0.241  0.00  0.00    -0.324 N 
ATOM     12  H   UNL     1       0.063  -4.842  -0.429  0.00  0.00    +0.169 HD
ENDROOT
BRANCH  10  13
ATOM     13  O   UNL     1       0.084  -5.565   2.176  0.00  0.00    -0.492 OA
ATOM     14  H   UNL     1      -0.794  -5.928   2.355  0.00  0.00    +0.294 HD
ENDBRANCH  10  13
BRANCH   9  15
ATOM     15  N   UNL     1       0.057  -2.917   3.559  0.00  0.00    -0.151 NA
ATOM     16  N   UNL     1       0.073  -3.923   4.367  0.00  0.00    -0.080 NA
BRANCH  16  17
ATOM     17  C   UNL     1       0.077  -3.718   5.691  0.00  0.00    +0.258 C 
ATOM     18  O   UNL     1       0.066  -2.586   6.130  0.00  0.00    -0.272 OA
BRANCH  17  19
ATOM     19  C   UNL     1       0.097  -4.893   6.635  0.00  0.00    +0.086 C 
ATOM     20  C   UNL     1       1.368  -5.120   7.455  0.00  0.00    +0.022 C 
ATOM     21  C   UNL     1       0.102  -4.593   8.135  0.00  0.00    +0.032 C 
BRANCH  21  22
ATOM     22  C   UNL     1      -0.648  -5.540   9.037  0.00  0.00    -0.044 A 
ATOM     23  C   UNL     1      -0.289  -6.874   9.090  0.00  0.00    +0.004 A 
ATOM     24  C   UNL     1      -0.978  -7.742   9.917  0.00  0.00    +0.000 A 
ATOM     25  C   UNL     1      -2.024  -7.276  10.690  0.00  0.00    +0.000 A 
ATOM     26  C   UNL     1      -2.382  -5.942  10.638  0.00  0.00    +0.000 A 
ATOM     27  C   UNL     1      -1.691  -5.073   9.814  0.00  0.00    +0.004 A 
ENDBRANCH  21  22
ENDBRANCH  17  19
ENDBRANCH  16  17
ENDBRANCH   9  15
TORSDOF 5
