REMARK  Name = ZINC39884073
REMARK  4 active torsions:
REMARK  status: ('A' for Active; 'I' for Inactive)
REMARK    1  A    between atoms: C_4  and  C_7
REMARK    2  A    between atoms: N_11  and  C_15
REMARK    3  A    between atoms: C_15  and  C_16
REMARK    4  A    between atoms: N_18  and  C_19
REMARK                            x       y       z     vdW  Elec       q    Type
REMARK                         _______ _______ _______ _____ _____    ______ ____
ROOT
ATOM      1  C   UNL     1       3.728  -0.707  -0.037  0.00  0.00    +0.072 C 
ATOM      2  C   UNL     1       3.799  -1.477  -1.297  0.00  0.00    +0.033 A 
ATOM      3  C   UNL     1       4.279  -2.716  -1.519  0.00  0.00    +0.091 A 
ATOM      4  N   UNL     1       4.245  -3.136  -2.826  0.00  0.00    -0.288 N 
ATOM      5  C   UNL     1       3.720  -2.337  -3.773  0.00  0.00    +0.292 A 
ATOM      6  O   UNL     1       3.604  -2.554  -4.967  0.00  0.00    -0.259 OA
ATOM      7  S   UNL     1       3.262  -0.966  -2.913  0.00  0.00    -0.030 S 
ATOM      8  S   UNL     1       4.866  -3.703  -0.166  0.00  0.00    -0.093 S 
ATOM      9  C   UNL     1       4.970  -2.559   1.203  0.00  0.00    +0.152 C 
ATOM     10  C   UNL     1       3.848  -1.515   1.252  0.00  0.00    +0.110 C 
ATOM     11  C   UNL     1       4.537  -0.530   2.225  0.00  0.00    +0.235 C 
ATOM     12  O   UNL     1       3.992   0.198   3.021  0.00  0.00    -0.274 OA
ATOM     13  N   UNL     1       5.865  -0.643   2.013  0.00  0.00    -0.162 N 
ATOM     14  C   UNL     1       6.207  -1.717   1.274  0.00  0.00    +0.244 C 
ATOM     15  O   UNL     1       7.286  -1.957   0.785  0.00  0.00    -0.273 OA
ATOM     16  C   UNL     1       6.763   0.245   2.483  0.00  0.00    +0.313 C 
ATOM     17  O   UNL     1       6.389   1.202   3.132  0.00  0.00    -0.252 OA
ATOM     18  N   UNL     1       8.076   0.072   2.234  0.00  0.00    -0.313 N 
ATOM     19  H   UNL     1       8.374  -0.692   1.715  0.00  0.00    +0.147 HD
ATOM     20  H   UNL     1       8.723   0.711   2.572  0.00  0.00    +0.147 HD
ENDROOT
BRANCH   1  24
ATOM     21  C   UNL     1      -0.002   1.374   0.037  0.00  0.00    +0.000 A 
ATOM     22  C   UNL     1       1.185   2.083   0.021  0.00  0.00    +0.000 A 
ATOM     23  C   UNL     1       2.392   1.410  -0.003  0.00  0.00    +0.004 A 
ATOM     24  C   UNL     1       2.413   0.027  -0.010  0.00  0.00    -0.039 A 
ATOM     25  C   UNL     1       1.226  -0.681   0.007  0.00  0.00    +0.004 A 
ATOM     26  C   UNL     1       0.019  -0.008   0.029  0.00  0.00    +0.000 A 
ENDBRANCH   1  24
BRANCH   4  27
ATOM     27  C   UNL     1       4.781  -4.450  -3.189  0.00  0.00    +0.222 C 
BRANCH  27  28
ATOM     28  C   UNL     1       3.687  -5.482  -3.094  0.00  0.00    +0.237 C 
ATOM     29  O   UNL     1       2.569  -5.152  -2.757  0.00  0.00    -0.274 OA
ATOM     30  N   UNL     1       3.949  -6.772  -3.385  0.00  0.00    -0.284 N 
ATOM     31  H   UNL     1       4.824  -7.025  -3.719  0.00  0.00    +0.155 HD
BRANCH  30  32
ATOM     32  C   UNL     1       2.961  -7.745  -3.204  0.00  0.00    +0.033 A 
ATOM     33  C   UNL     1       3.309  -9.020  -2.779  0.00  0.00    +0.023 A 
ATOM     34  C   UNL     1       2.331  -9.979  -2.602  0.00  0.00    +0.002 A 
ATOM     35  C   UNL     1       1.005  -9.670  -2.847  0.00  0.00    +0.000 A 
ATOM     36  C   UNL     1       0.655  -8.401  -3.270  0.00  0.00    +0.002 A 
ATOM     37  C   UNL     1       1.628  -7.436  -3.444  0.00  0.00    +0.023 A 
ENDBRANCH  30  32
ENDBRANCH  27  28
ENDBRANCH   4  27
TORSDOF 4
