REMARK  Name = ZINC18749848
REMARK  9 active torsions:
REMARK  status: ('A' for Active; 'I' for Inactive)
REMARK    1  A    between atoms: C_1  and  C_2
REMARK    2  A    between atoms: C_2  and  C_4
REMARK    3  A    between atoms: C_2  and  O_23
REMARK    4  A    between atoms: N_6  and  C_7
REMARK    5  A    between atoms: C_9  and  S_14
REMARK    6  A    between atoms: S_14  and  N_17
REMARK    7  A    between atoms: O_23  and  C_24
REMARK    8  A    between atoms: C_24  and  C_26
REMARK    9  A    between atoms: C_31  and  N_32
REMARK                            x       y       z     vdW  Elec       q    Type
REMARK                         _______ _______ _______ _____ _____    ______ ____
ROOT
ATOM      1  C   UNL     1      -3.891  -1.920  -0.963  0.00  0.00    +0.258 C 
ATOM      2  O   UNL     1      -2.979  -2.127  -1.736  0.00  0.00    -0.271 OA
ATOM      3  N   UNL     1      -4.759  -2.907  -0.665  0.00  0.00    -0.281 N 
ATOM      4  H   UNL     1      -5.534  -2.720  -0.112  0.00  0.00    +0.155 HD
ENDROOT
BRANCH   3   5
ATOM      5  C   UNL     1      -4.543  -4.200  -1.154  0.00  0.00    +0.054 A 
ATOM      6  C   UNL     1      -3.259  -4.614  -1.482  0.00  0.00    +0.053 A 
ATOM      7  C   UNL     1      -3.049  -5.891  -1.964  0.00  0.00    +0.107 A 
ATOM      8  C   UNL     1      -4.115  -6.758  -2.120  0.00  0.00    +0.030 A 
ATOM      9  C   UNL     1      -5.395  -6.350  -1.794  0.00  0.00    +0.024 A 
ATOM     10  C   UNL     1      -5.612  -5.075  -1.305  0.00  0.00    +0.062 A 
ATOM     11 CL   UNL     1      -7.218  -4.565  -0.889  0.00  0.00    -0.082 Cl
BRANCH   7  12
ATOM     12  S   UNL     1      -1.420  -6.417  -2.381  0.00  0.00    +0.061 S 
ATOM     13  O   UNL     1      -1.562  -7.471  -3.324  0.00  0.00    -0.153 OA
ATOM     14  O   UNL     1      -0.672  -5.242  -2.660  0.00  0.00    -0.153 OA
BRANCH  12  15
ATOM     15  N   UNL     1      -0.758  -7.087  -1.019  0.00  0.00    -0.177 NA
ATOM     16  C   UNL     1      -0.002  -6.259  -0.069  0.00  0.00    +0.109 C 
ATOM     17  C   UNL     1      -0.600  -6.453   1.332  0.00  0.00    +0.017 C 
ATOM     18  C   UNL     1      -0.615  -7.945   1.673  0.00  0.00    +0.003 C 
ATOM     19  C   UNL     1      -1.494  -8.691   0.666  0.00  0.00    +0.017 C 
ATOM     20  C   UNL     1      -0.910  -8.521  -0.740  0.00  0.00    +0.109 C 
ENDBRANCH  12  15
ENDBRANCH   7  12
ENDBRANCH   3   5
BRANCH   1  22
ATOM     21  C   UNL     1      -3.838  -0.664   1.174  0.00  0.00    +0.062 C 
ATOM     22  C   UNL     1      -4.053  -0.559  -0.337  0.00  0.00    +0.259 C 
BRANCH  22  23
ATOM     23  O   UNL     1      -3.076   0.354  -0.902  0.00  0.00    -0.449 OA
BRANCH  23  24
ATOM     24  C   UNL     1      -3.421   1.655  -0.969  0.00  0.00    +0.342 C 
ATOM     25  O   UNL     1      -4.508   2.017  -0.566  0.00  0.00    -0.245 OA
BRANCH  24  26
ATOM     26  C   UNL     1      -2.480   2.638  -1.530  0.00  0.00    +0.080 A 
ATOM     27  C   UNL     1      -1.272   2.213  -2.095  0.00  0.00    +0.019 A 
ATOM     28  C   UNL     1      -0.399   3.135  -2.623  0.00  0.00    +0.039 A 
ATOM     29  C   UNL     1      -0.706   4.490  -2.594  0.00  0.00    +0.125 A 
ATOM     30  C   UNL     1      -1.893   4.925  -2.035  0.00  0.00    +0.061 A 
ATOM     31  C   UNL     1      -2.786   4.008  -1.498  0.00  0.00    +0.041 A 
ATOM     32  F   UNL     1       0.159   5.386  -3.115  0.00  0.00    -0.205 F 
BRANCH  31  33
ATOM     33  N   UNL     1      -3.979   4.443  -0.936  0.00  0.00    -0.357 N 
ATOM     34  H   UNL     1      -4.157   5.393  -0.851  0.00  0.00    +0.142 HD
ATOM     35  H   UNL     1      -4.634   3.797  -0.628  0.00  0.00    +0.142 HD
ENDBRANCH  31  33
ENDBRANCH  24  26
ENDBRANCH  23  24
ENDBRANCH  22  23
ENDBRANCH   1  22
TORSDOF 8
