REMARK  Name = ZINC03222154
REMARK  6 active torsions:
REMARK  status: ('A' for Active; 'I' for Inactive)
REMARK    1  A    between atoms: C_3  and  S_6
REMARK    2  A    between atoms: S_6  and  N_9
REMARK    3  A    between atoms: N_9  and  C_10
REMARK    4  A    between atoms: C_13  and  C_16
REMARK    5  A    between atoms: N_18  and  N_19
REMARK    6  A    between atoms: N_19  and  C_20
REMARK                            x       y       z     vdW  Elec       q    Type
REMARK                         _______ _______ _______ _____ _____    ______ ____
ROOT
ATOM      1  C   UNL     1       0.034   1.500   0.043  0.00  0.00    +0.048 A 
ATOM      2  C   UNL     1       1.161   2.315   0.100  0.00  0.00    +0.025 A 
ATOM      3  C   UNL     1       2.417   1.753   0.120  0.00  0.00    +0.015 A 
ATOM      4  C   UNL     1       2.561   0.363   0.084  0.00  0.00    +0.038 A 
ATOM      5  C   UNL     1       1.427  -0.452   0.026  0.00  0.00    +0.015 A 
ATOM      6  C   UNL     1       0.173   0.115   0.006  0.00  0.00    +0.025 A 
ENDROOT
BRANCH   4   7
ATOM      7  C   UNL     1       3.906  -0.242   0.105  0.00  0.00    +0.260 C 
ATOM      8  O   UNL     1       4.029  -1.451   0.073  0.00  0.00    -0.269 OA
ATOM      9  N   UNL     1       4.998   0.545   0.161  0.00  0.00    -0.233 N 
ATOM     10  H   UNL     1       4.900   1.510   0.187  0.00  0.00    +0.173 HD
BRANCH   9  11
ATOM     11  N   UNL     1       6.276  -0.029   0.181  0.00  0.00    -0.268 N 
ATOM     12  H   UNL     1       6.374  -0.994   0.155  0.00  0.00    +0.170 HD
BRANCH  11  13
ATOM     13  C   UNL     1       7.396   0.778   0.238  0.00  0.00    +0.026 C 
ATOM     14  C   UNL     1       7.612   2.096   0.278  0.00  0.00    -0.026 C 
ATOM     15  C   UNL     1       7.396   3.536   0.539  0.00  0.00    +0.001 C 
ATOM     16  C   UNL     1       8.453   4.014   1.216  0.00  0.00    -0.026 C 
ATOM     17  C   UNL     1       9.468   2.884   1.394  0.00  0.00    +0.035 C 
ATOM     18  C   UNL     1       9.139   2.016   0.168  0.00  0.00    +0.030 C 
ATOM     19  C   UNL     1       8.885   0.539   0.275  0.00  0.00    +0.060 C 
ENDBRANCH  11  13
ENDBRANCH   9  11
ENDBRANCH   4   7
BRANCH   1  20
ATOM     20  N   UNL     1      -1.234   2.070   0.017  0.00  0.00    -0.216 N 
ATOM     21  H   UNL     1      -1.560   2.490  -0.794  0.00  0.00    +0.174 HD
BRANCH  20  22
ATOM     22  S   UNL     1      -2.187   2.033   1.371  0.00  0.00    +0.079 S 
ATOM     23  O   UNL     1      -3.383   2.727   1.045  0.00  0.00    -0.149 OA
ATOM     24  O   UNL     1      -2.187   0.688   1.831  0.00  0.00    -0.149 OA
BRANCH  22  27
ATOM     25  C   UNL     1      -0.788   4.837   3.951  0.00  0.00    +0.010 A 
ATOM     26  C   UNL     1      -1.547   4.292   2.932  0.00  0.00    +0.036 A 
ATOM     27  C   UNL     1      -1.372   2.987   2.608  0.00  0.00    +0.146 A 
ATOM     28  S   UNL     1      -0.108   2.486   3.764  0.00  0.00    -0.077 S 
ATOM     29  C   UNL     1       0.108   4.051   4.596  0.00  0.00    +0.047 A 
ENDBRANCH  22  27
ENDBRANCH  20  22
ENDBRANCH   1  20
TORSDOF 6
