REMARK  Name = ZINC15084520
REMARK  7 active torsions:
REMARK  status: ('A' for Active; 'I' for Inactive)
REMARK    1  A    between atoms: C_1  and  C_2
REMARK    2  A    between atoms: C_4  and  C_23
REMARK    3  A    between atoms: C_6  and  N_22
REMARK    4  A    between atoms: C_7  and  C_11
REMARK    5  A    between atoms: C_16  and  C_19
REMARK    6  A    between atoms: C_23  and  O_24
REMARK    7  A    between atoms: O_24  and  C_25
REMARK                            x       y       z     vdW  Elec       q    Type
REMARK                         _______ _______ _______ _____ _____    ______ ____
ROOT
ATOM      1  C   UNL     1       0.165   1.544  -0.001  0.00  0.00    +0.065 C 
ATOM      2  C   UNL     1      -0.689   1.671   1.234  0.00  0.00    +0.040 A 
ATOM      3  C   UNL     1      -0.370   0.943   2.371  0.00  0.00    +0.029 A 
ATOM      4  C   UNL     1      -1.140   1.050   3.505  0.00  0.00    -0.009 A 
ATOM      5  C   UNL     1      -2.263   1.914   3.493  0.00  0.00    +0.034 A 
ATOM      6  C   UNL     1      -3.212   2.185   4.562  0.00  0.00    +0.054 A 
ATOM      7  C   UNL     1      -4.237   3.072   4.317  0.00  0.00    +0.097 A 
ATOM      8  S   UNL     1      -3.954   3.574   2.631  0.00  0.00    -0.062 S 
ATOM      9  C   UNL     1      -2.503   2.611   2.287  0.00  0.00    +0.111 A 
ATOM     10  N   UNL     1      -1.732   2.478   1.229  0.00  0.00    -0.245 NA
ENDROOT
BRANCH   7  11
ATOM     11  C   UNL     1      -5.269   3.487   5.196  0.00  0.00    +0.255 C 
ATOM     12  O   UNL     1      -5.023   3.691   6.371  0.00  0.00    -0.269 OA
ATOM     13  N   UNL     1      -6.523   3.655   4.731  0.00  0.00    -0.297 N 
ATOM     14  C   UNL     1      -7.577   4.195   5.600  0.00  0.00    +0.109 C 
ATOM     15  C   UNL     1      -8.768   3.238   5.592  0.00  0.00    +0.032 C 
ATOM     16  C   UNL     1      -9.209   2.989   4.148  0.00  0.00    +0.078 C 
ATOM     17  C   UNL     1      -8.063   2.343   3.366  0.00  0.00    +0.032 C 
ATOM     18  C   UNL     1      -6.863   3.295   3.348  0.00  0.00    +0.109 C 
BRANCH  16  19
ATOM     19  C   UNL     1     -10.403   2.069   4.139  0.00  0.00    +0.214 C 
ATOM     20  O   UNL     1     -10.343   1.003   3.565  0.00  0.00    -0.276 OA
ATOM     21  N   UNL     1     -11.538   2.432   4.770  0.00  0.00    -0.329 N 
ATOM     22  H   UNL     1     -11.586   3.285   5.229  0.00  0.00    +0.145 HD
ATOM     23  H   UNL     1     -12.306   1.840   4.764  0.00  0.00    +0.145 HD
ENDBRANCH  16  19
ENDBRANCH   7  11
BRANCH   6  24
ATOM     24  N   UNL     1      -3.088   1.565   5.798  0.00  0.00    -0.356 N 
ATOM     25  H   UNL     1      -2.362   0.942   5.957  0.00  0.00    +0.142 HD
ATOM     26  H   UNL     1      -3.728   1.754   6.502  0.00  0.00    +0.142 HD
ENDBRANCH   6  24
BRANCH   4  27
ATOM     27  C   UNL     1      -0.795   0.261   4.741  0.00  0.00    +0.195 C 
BRANCH  27  28
ATOM     28  O   UNL     1       0.372  -0.526   4.494  0.00  0.00    -0.378 OA
ATOM     29  C   UNL     1       0.786  -1.318   5.609  0.00  0.00    +0.194 C 
ENDBRANCH  27  28
ENDBRANCH   4  27
TORSDOF 5
