REMARK  Name = ZINC63000912
REMARK  6 active torsions:
REMARK  status: ('A' for Active; 'I' for Inactive)
REMARK    1  A    between atoms: C_4  and  CA_7
REMARK    2  A    between atoms: CA_7  and  C_9
REMARK    3  A    between atoms: CA_7  and  N_11
REMARK    4  A    between atoms: C_9  and  O_10
REMARK    5  A    between atoms: N_11  and  C_12
REMARK    6  A    between atoms: C_15  and  N_22
REMARK                            x       y       z     vdW  Elec       q    Type
REMARK                         _______ _______ _______ _____ _____    ______ ____
ROOT
ATOM      1  C   UNL     1       4.763  -2.389  -1.526  0.00  0.00    +0.036 A 
ATOM      2  C   UNL     1       5.995  -1.825  -1.271  0.00  0.00    +0.025 A 
ATOM      3  C   UNL     1       7.149  -2.336  -1.856  0.00  0.00    +0.025 A 
ATOM      4  C   UNL     1       7.092  -3.421  -2.706  0.00  0.00    +0.034 A 
ATOM      5  C   UNL     1       5.848  -4.020  -2.986  0.00  0.00    +0.020 A 
ATOM      6  C   UNL     1       4.673  -3.501  -2.383  0.00  0.00    +0.007 A 
ATOM      7  C   UNL     1       3.445  -4.122  -2.676  0.00  0.00    +0.028 A 
ATOM      8  C   UNL     1       3.439  -5.193  -3.517  0.00  0.00    +0.083 A 
ATOM      9  N   UNL     1       4.554  -5.661  -4.062  0.00  0.00    -0.366 N 
ATOM     10  C   UNL     1       5.732  -5.124  -3.842  0.00  0.00    +0.093 A 
ATOM     11  H   UNL     1       4.495  -6.427  -4.654  0.00  0.00    +0.165 HD
ENDROOT
BRANCH   4  12
ATOM     12  N   UNL     1       8.259  -3.921  -3.286  0.00  0.00    -0.357 N 
ATOM     13  H   UNL     1       9.114  -3.506  -3.091  0.00  0.00    +0.142 HD
ATOM     14  H   UNL     1       8.216  -4.684  -3.883  0.00  0.00    +0.142 HD
ENDBRANCH   4  12
BRANCH   1  15
ATOM     15  N   UNL     1       3.611  -1.865  -0.930  0.00  0.00    -0.334 N 
ATOM     16  H   UNL     1       2.747  -2.267  -1.108  0.00  0.00    +0.147 HD
BRANCH  15  17
ATOM     17  CA  UNL     1       3.711  -0.707  -0.038  0.00  0.00    +0.126 C 
BRANCH  17  21
ATOM     18  C   UNL     1      -0.017   1.378   0.010  0.00  0.00    +0.000 A 
ATOM     19  C   UNL     1       1.171   2.086   0.002  0.00  0.00    +0.000 A 
ATOM     20  C   UNL     1       2.377   1.411  -0.013  0.00  0.00    +0.005 A 
ATOM     21  C   UNL     1       2.396   0.029  -0.020  0.00  0.00    -0.025 A 
ATOM     22  C   UNL     1       1.208  -0.679  -0.012  0.00  0.00    +0.005 A 
ATOM     23  C   UNL     1       0.002  -0.004   0.002  0.00  0.00    +0.000 A 
ENDBRANCH  17  21
BRANCH  17  24
ATOM     24  C   UNL     1       4.049  -1.182   1.377  0.00  0.00    +0.182 C 
BRANCH  24  25
ATOM     25  O   UNL     1       2.966  -1.962   1.889  0.00  0.00    -0.393 OA
ATOM     26  H   UNL     1       3.112  -2.297   2.784  0.00  0.00    +0.209 HD
ENDBRANCH  24  25
ENDBRANCH  17  24
ENDBRANCH  15  17
ENDBRANCH   1  15
TORSDOF 6
