REMARK  Name = ZINC24797758
REMARK  11 active torsions:
REMARK  status: ('A' for Active; 'I' for Inactive)
REMARK    1  A    between atoms: C_1  and  C_2
REMARK    2  A    between atoms: C_5  and  C_7
REMARK    3  A    between atoms: C_7  and  N_8
REMARK    4  A    between atoms: N_8  and  C_9
REMARK    5  A    between atoms: N_8  and  C_10
REMARK    6  A    between atoms: C_10  and  C_11
REMARK    7  A    between atoms: N_13  and  C_14
REMARK    8  A    between atoms: C_16  and  S_22
REMARK    9  A    between atoms: C_18  and  C_21
REMARK   10  A    between atoms: C_19  and  C_20
REMARK   11  A    between atoms: S_22  and  N_25
REMARK                            x       y       z     vdW  Elec       q    Type
REMARK                         _______ _______ _______ _____ _____    ______ ____
ROOT
ATOM      1  C   UNL     1      -3.768  -0.635   3.093  0.00  0.00    +0.201 C 
ATOM      2  O   UNL     1      -3.146  -0.973   2.108  0.00  0.00    -0.278 OA
ATOM      3  N   UNL     1      -3.492   0.539   3.695  0.00  0.00    -0.287 N 
ATOM      4  H   UNL     1      -4.004   0.812   4.629  0.00  0.00    +0.155 HD
ENDROOT
BRANCH   3   5
ATOM      5  C   UNL     1      -2.553   1.410   3.131  0.00  0.00    +0.038 A 
ATOM      6  C   UNL     1      -1.440   0.903   2.473  0.00  0.00    +0.052 A 
ATOM      7  C   UNL     1      -0.516   1.766   1.918  0.00  0.00    +0.107 A 
ATOM      8  C   UNL     1      -0.694   3.133   2.021  0.00  0.00    +0.032 A 
ATOM      9  C   UNL     1      -1.803   3.641   2.672  0.00  0.00    -0.044 A 
ATOM     10  C   UNL     1      -2.732   2.784   3.229  0.00  0.00    -0.026 A 
ATOM     11  C   UNL     1      -3.938   3.338   3.943  0.00  0.00    +0.046 C 
ATOM     12  C   UNL     1      -1.997   5.132   2.778  0.00  0.00    +0.044 C 
BRANCH   7  13
ATOM     13  S   UNL     1       0.896   1.123   1.082  0.00  0.00    +0.056 S 
ATOM     14  O   UNL     1       1.116  -0.182   1.601  0.00  0.00    -0.153 OA
ATOM     15  O   UNL     1       1.890   2.138   1.126  0.00  0.00    -0.153 OA
BRANCH  13  16
ATOM     16  N   UNL     1       0.480   0.936  -0.510  0.00  0.00    -0.204 NA
ATOM     17  H   UNL     1       1.339   0.535  -1.068  0.00  0.00    +0.144 HD
ATOM     18  H   UNL     1       0.192   1.910  -0.930  0.00  0.00    +0.144 HD
ENDBRANCH  13  16
ENDBRANCH   7  13
ENDBRANCH   3   5
BRANCH   1  19
ATOM     19  C   UNL     1      -4.851  -1.527   3.642  0.00  0.00    +0.019 C 
BRANCH  19  20
ATOM     20  N   UNL     1      -4.957  -2.736   2.815  0.00  0.00    +0.388 N 
ATOM     21  C   UNL     1      -3.741  -3.555   2.922  0.00  0.00    -0.095 C 
ATOM     22  H   UNL     1      -5.060  -2.420   1.766  0.00  0.00    -0.081 HD
BRANCH  20  23
ATOM     23  C   UNL     1      -6.150  -3.516   3.171  0.00  0.00    -0.003 C 
BRANCH  23  28
ATOM     24  C   UNL     1      -7.745  -5.952  -0.947  0.00  0.00    +0.086 C 
ATOM     25  C   UNL     1      -7.054  -5.664   0.361  0.00  0.00    +0.102 A 
ATOM     26  C   UNL     1      -6.299  -6.532   1.059  0.00  0.00    +0.044 A 
ATOM     27  C   UNL     1      -5.848  -5.848   2.211  0.00  0.00    +0.043 A 
ATOM     28  C   UNL     1      -6.361  -4.605   2.152  0.00  0.00    +0.089 A 
ATOM     29  O   UNL     1      -7.088  -4.499   1.028  0.00  0.00    -0.467 OA
ENDBRANCH  23  28
ENDBRANCH  20  23
ENDBRANCH  19  20
ENDBRANCH   1  19
TORSDOF 7
