REMARK  Name = ZINC31194073
REMARK  13 active torsions:
REMARK  status: ('A' for Active; 'I' for Inactive)
REMARK    1  A    between atoms: C_1  and  C_2
REMARK    2  A    between atoms: C_2  and  N_3
REMARK    3  A    between atoms: N_3  and  C_4
REMARK    4  A    between atoms: N_3  and  C_6
REMARK    5  A    between atoms: C_4  and  C_5
REMARK    6  A    between atoms: C_6  and  C_8
REMARK    7  A    between atoms: C_6  and  C_25
REMARK    8  A    between atoms: C_8  and  N_9
REMARK    9  A    between atoms: N_12  and  C_13
REMARK   10  A    between atoms: C_13  and  C_14
REMARK   11  A    between atoms: C_14  and  C_15
REMARK   12  A    between atoms: C_18  and  S_21
REMARK   13  A    between atoms: S_21  and  N_24
REMARK                            x       y       z     vdW  Elec       q    Type
REMARK                         _______ _______ _______ _____ _____    ______ ____
ROOT
ATOM      1  N   UNL     1       1.127  -1.893  -1.047  0.00  0.00    -0.301 N 
ATOM      2  C   UNL     1       1.667  -2.337  -2.200  0.00  0.00    +0.300 C 
ATOM      3  O   UNL     1       2.660  -3.037  -2.176  0.00  0.00    -0.253 OA
ATOM      4  N   UNL     1       1.104  -2.005  -3.379  0.00  0.00    -0.299 N 
ATOM      5  H   UNL     1       0.335  -1.335  -1.066  0.00  0.00    +0.150 HD
ATOM      6  H   UNL     1       0.312  -1.446  -3.397  0.00  0.00    +0.150 HD
ENDROOT
BRANCH   1   7
ATOM      7  C   UNL     1       1.739  -2.255   0.234  0.00  0.00    +0.095 C 
BRANCH   7   8
ATOM      8  C   UNL     1       0.997  -1.548   1.371  0.00  0.00    -0.020 C 
BRANCH   8   9
ATOM      9  C   UNL     1       1.474  -2.087   2.694  0.00  0.00    -0.052 A 
ATOM     10  C   UNL     1       0.735  -3.037   3.373  0.00  0.00    +0.009 A 
ATOM     11  C   UNL     1       1.192  -3.501   4.561  0.00  0.00    +0.045 A 
ATOM     12  S   UNL     1       2.713  -2.586   4.754  0.00  0.00    -0.105 S 
ATOM     13  C   UNL     1       2.639  -1.651   3.235  0.00  0.00    +0.047 A 
ENDBRANCH   8   9
BRANCH   8  14
ATOM     14  N   UNL     1       1.262  -0.104   1.305  0.00  0.00    +0.385 N 
ATOM     15  H   UNL     1       2.257   0.053   1.248  0.00  0.00    -0.081 HD
BRANCH  14  17
ATOM     16  C   UNL     1      -0.909   0.319   0.254  0.00  0.00    -0.017 C 
ATOM     17  C   UNL     1       0.608   0.460   0.117  0.00  0.00    -0.081 C 
ENDBRANCH  14  17
BRANCH  14  18
ATOM     18  C   UNL     1       0.732   0.546   2.511  0.00  0.00    -0.081 C 
ATOM     19  C   UNL     1       1.134   2.022   2.513  0.00  0.00    -0.017 C 
ENDBRANCH  14  18
ENDBRANCH   8  14
ENDBRANCH   7   8
ENDBRANCH   1   7
BRANCH   4  20
ATOM     20  C   UNL     1       1.690  -2.487  -4.632  0.00  0.00    +0.110 C 
BRANCH  20  21
ATOM     21  C   UNL     1       0.866  -1.970  -5.812  0.00  0.00    +0.054 C 
BRANCH  21  22
ATOM     22  C   UNL     1       1.469  -2.466  -7.101  0.00  0.00    -0.046 A 
ATOM     23  C   UNL     1       2.440  -1.720  -7.743  0.00  0.00    +0.005 A 
ATOM     24  C   UNL     1       2.993  -2.175  -8.925  0.00  0.00    +0.029 A 
ATOM     25  C   UNL     1       2.576  -3.377  -9.466  0.00  0.00    +0.105 A 
ATOM     26  C   UNL     1       1.606  -4.124  -8.823  0.00  0.00    +0.029 A 
ATOM     27  C   UNL     1       1.056  -3.671  -7.639  0.00  0.00    +0.005 A 
BRANCH  25  28
ATOM     28  S   UNL     1       3.280  -3.957 -10.973  0.00  0.00    +0.056 S 
ATOM     29  O   UNL     1       2.330  -4.841 -11.552  0.00  0.00    -0.153 OA
ATOM     30  O   UNL     1       3.772  -2.813 -11.658  0.00  0.00    -0.153 OA
BRANCH  28  31
ATOM     31  N   UNL     1       4.600  -4.875 -10.576  0.00  0.00    -0.204 NA
ATOM     32  H   UNL     1       4.842  -4.998  -9.645  0.00  0.00    +0.144 HD
ATOM     33  H   UNL     1       5.130  -5.289 -11.275  0.00  0.00    +0.144 HD
ENDBRANCH  28  31
ENDBRANCH  25  28
ENDBRANCH  21  22
ENDBRANCH  20  21
ENDBRANCH   4  20
TORSDOF 11
