REMARK  Name = ZINC39694198
REMARK  10 active torsions:
REMARK  status: ('A' for Active; 'I' for Inactive)
REMARK    1  A    between atoms: C_1  and  C_2
REMARK    2  A    between atoms: C_2  and  C_3
REMARK    3  A    between atoms: C_2  and  C_4
REMARK    4  A    between atoms: C_4  and  C_6
REMARK    5  A    between atoms: C_4  and  O_34
REMARK    6  A    between atoms: C_10  and  C_19
REMARK    7  A    between atoms: N_21  and  C_22
REMARK    8  A    between atoms: C_22  and  C_23
REMARK    9  A    between atoms: C_27  and  N_29
REMARK   10  A    between atoms: O_34  and  C_35
REMARK                            x       y       z     vdW  Elec       q    Type
REMARK                         _______ _______ _______ _____ _____    ______ ____
ROOT
ATOM      1  C   UNL     1       0.758  -1.932   1.377  0.00  0.00    +0.257 C 
ATOM      2  O   UNL     1       1.810  -2.533   1.333  0.00  0.00    -0.272 OA
ATOM      3  N   UNL     1      -0.403  -2.611   1.472  0.00  0.00    -0.297 N 
ATOM      4  C   UNL     1      -1.769  -2.057   1.619  0.00  0.00    +0.121 C 
ATOM      5  C   UNL     1      -2.654  -2.960   0.731  0.00  0.00    +0.100 C 
ATOM      6  C   UNL     1      -1.882  -4.286   0.628  0.00  0.00    -0.004 C 
ATOM      7  C   UNL     1      -0.601  -4.080   1.448  0.00  0.00    +0.115 C 
ATOM      8  C   UNL     1      -1.528  -4.581  -0.826  0.00  0.00    -0.010 C 
ATOM      9  C   UNL     1      -0.812  -5.932  -0.909  0.00  0.00    -0.082 C 
ATOM     10  N   UNL     1      -1.685  -6.984  -0.374  0.00  0.00    +0.379 N 
ATOM     11  C   UNL     1      -1.945  -6.742   1.050  0.00  0.00    -0.082 C 
ATOM     12  C   UNL     1      -2.709  -5.426   1.216  0.00  0.00    -0.010 C 
ATOM     13  H   UNL     1      -2.558  -6.983  -0.879  0.00  0.00    -0.086 HD
ATOM     14  H   UNL     1      -1.236  -7.880  -0.485  0.00  0.00    -0.086 HD
ENDROOT
BRANCH   5  15
ATOM     15  C   UNL     1      -3.996  -3.180   1.378  0.00  0.00    +0.218 C 
ATOM     16  O   UNL     1      -4.110  -3.093   2.583  0.00  0.00    -0.275 OA
ATOM     17  N   UNL     1      -5.071  -3.473   0.619  0.00  0.00    -0.311 N 
ATOM     18  H   UNL     1      -4.980  -3.542  -0.344  0.00  0.00    +0.149 HD
BRANCH  17  19
ATOM     19  C   UNL     1      -6.376  -3.686   1.249  0.00  0.00    +0.139 C 
BRANCH  19  20
ATOM     20  C   UNL     1      -7.401  -3.996   0.188  0.00  0.00    -0.028 A 
ATOM     21  C   UNL     1      -8.110  -2.970  -0.409  0.00  0.00    +0.005 A 
ATOM     22  C   UNL     1      -9.050  -3.250  -1.382  0.00  0.00    +0.002 A 
ATOM     23  C   UNL     1      -9.285  -4.558  -1.762  0.00  0.00    +0.026 A 
ATOM     24  C   UNL     1      -8.575  -5.590  -1.164  0.00  0.00    +0.046 A 
ATOM     25  C   UNL     1      -7.628  -5.305  -0.191  0.00  0.00    +0.031 A 
BRANCH  24  26
ATOM     26  N   UNL     1      -8.812  -6.918  -1.546  0.00  0.00    -0.323 N 
ATOM     27  C   UNL     1      -8.187  -8.018  -1.032  0.00  0.00    +0.091 A 
ATOM     28  C   UNL     1      -8.681  -9.110  -1.650  0.00  0.00    +0.019 A 
ATOM     29  C   UNL     1      -9.646  -8.671  -2.578  0.00  0.00    +0.019 A 
ATOM     30  C   UNL     1      -9.710  -7.327  -2.490  0.00  0.00    +0.091 A 
ENDBRANCH  24  26
ENDBRANCH  19  20
ENDBRANCH  17  19
ENDBRANCH   5  15
BRANCH   1  31
ATOM     31  C   UNL     1       0.748  -0.426   1.324  0.00  0.00    +0.261 C 
BRANCH  31  33
ATOM     32  C   UNL     1      -0.021   1.559   0.015  0.00  0.00    +0.011 C 
ATOM     33  C   UNL     1       0.109   0.034   0.012  0.00  0.00    +0.033 C 
ATOM     34  C   UNL     1       0.986  -0.401  -1.163  0.00  0.00    +0.011 C 
ENDBRANCH  31  33
BRANCH  31  35
ATOM     35  O   UNL     1       2.089   0.062   1.397  0.00  0.00    -0.479 OA
BRANCH  35  36
ATOM     36  C   UNL     1       2.282   1.241   2.045  0.00  0.00    +0.122 A 
ATOM     37  C   UNL     1       1.220   1.867   2.681  0.00  0.00    +0.045 A 
ATOM     38  C   UNL     1       1.419   3.064   3.340  0.00  0.00    +0.004 A 
ATOM     39  C   UNL     1       2.676   3.640   3.366  0.00  0.00    +0.000 A 
ATOM     40  C   UNL     1       3.736   3.018   2.733  0.00  0.00    +0.004 A 
ATOM     41  C   UNL     1       3.544   1.817   2.078  0.00  0.00    +0.045 A 
ENDBRANCH  35  36
ENDBRANCH  31  35
ENDBRANCH   1  31
TORSDOF 8
