REMARK  Name = ZINC39711364
REMARK  13 active torsions:
REMARK  status: ('A' for Active; 'I' for Inactive)
REMARK    1  A    between atoms: C_1  and  O_2
REMARK    2  A    between atoms: O_2  and  C_3
REMARK    3  A    between atoms: C_3  and  C_4
REMARK    4  A    between atoms: C_4  and  N_5
REMARK    5  A    between atoms: C_6  and  C_10
REMARK    6  A    between atoms: C_10  and  C_12
REMARK    7  A    between atoms: C_10  and  N_26
REMARK    8  A    between atoms: C_17  and  O_24
REMARK    9  A    between atoms: O_24  and  C_25
REMARK   10  A    between atoms: N_26  and  C_27
REMARK   11  A    between atoms: N_26  and  C_33
REMARK   12  A    between atoms: C_27  and  C_28
REMARK   13  A    between atoms: C_33  and  C_34
REMARK                            x       y       z     vdW  Elec       q    Type
REMARK                         _______ _______ _______ _____ _____    ______ ____
ROOT
ATOM      1  C   UNL     1       4.335  -2.738   1.766  0.00  0.00    +0.143 C 
ENDROOT
BRANCH   1   2
ATOM      2  C   UNL     1       4.713  -3.925   0.878  0.00  0.00    +0.123 C 
ATOM      3  C   UNL     1       3.448  -4.427   0.209  0.00  0.00    -0.003 C 
ATOM      4  C   UNL     1       3.104  -5.729   0.420  0.00  0.00    -0.003 A 
ATOM      5  C   UNL     1       1.899  -6.294  -0.187  0.00  0.00    +0.055 A 
ATOM      6  C   UNL     1       1.593  -7.599   0.052  0.00  0.00    +0.121 A 
ATOM      7  C   UNL     1       2.409  -8.400   0.861  0.00  0.00    +0.047 A 
ATOM      8  C   UNL     1       3.539  -7.932   1.451  0.00  0.00    +0.027 A 
ATOM      9  C   UNL     1       3.942  -6.596   1.267  0.00  0.00    +0.041 A 
ATOM     10  N   UNL     1       5.054  -6.150   1.852  0.00  0.00    -0.284 N 
ATOM     11  C   UNL     1       5.489  -4.909   1.724  0.00  0.00    +0.226 C 
ATOM     12  O   UNL     1       6.511  -4.560   2.283  0.00  0.00    -0.275 OA
ATOM     13  H   UNL     1       5.567  -6.766   2.399  0.00  0.00    +0.155 HD
BRANCH   6  14
ATOM     14  O   UNL     1       0.476  -8.136  -0.506  0.00  0.00    -0.495 OA
ATOM     15  C   UNL     1       0.205  -9.510  -0.222  0.00  0.00    +0.277 C 
ENDBRANCH   6  14
ENDBRANCH   1   2
BRANCH   1  17
ATOM     16  N   UNL     1       2.321  -3.122   3.283  0.00  0.00    -0.225 N 
ATOM     17  C   UNL     1       3.632  -3.239   3.001  0.00  0.00    +0.170 A 
ATOM     18  N   UNL     1       4.179  -3.873   4.010  0.00  0.00    -0.112 NA
ATOM     19  N   UNL     1       3.252  -4.132   4.866  0.00  0.00    -0.023 NA
ATOM     20  N   UNL     1       2.129  -3.675   4.433  0.00  0.00    -0.044 NA
BRANCH  16  21
ATOM     21  C   UNL     1       1.305  -2.482   2.445  0.00  0.00    +0.175 C 
BRANCH  21  22
ATOM     22  C   UNL     1       1.209  -0.998   2.803  0.00  0.00    +0.183 C 
BRANCH  22  24
ATOM     23  C   UNL     1       0.047   1.022   2.241  0.00  0.00    +0.194 C 
ATOM     24  O   UNL     1       0.217  -0.373   1.986  0.00  0.00    -0.381 OA
ENDBRANCH  22  24
ENDBRANCH  21  22
ENDBRANCH  16  21
ENDBRANCH   1  17
BRANCH   1  25
ATOM     25  N   UNL     1       5.551  -2.011   2.155  0.00  0.00    -0.280 NA
BRANCH  25  26
ATOM     26  C   UNL     1       6.354  -1.660   0.976  0.00  0.00    +0.159 C 
BRANCH  26  27
ATOM     27  C   UNL     1       7.367  -2.746   0.717  0.00  0.00    +0.119 A 
ATOM     28  C   UNL     1       7.386  -3.565  -0.350  0.00  0.00    +0.046 A 
ATOM     29  C   UNL     1       8.498  -4.423  -0.188  0.00  0.00    +0.041 A 
ATOM     30  C   UNL     1       9.093  -4.076   0.968  0.00  0.00    +0.195 A 
ATOM     31  O   UNL     1       8.406  -3.056   1.509  0.00  0.00    -0.467 OA
ENDBRANCH  26  27
ENDBRANCH  25  26
BRANCH  25  32
ATOM     32  C   UNL     1       5.220  -0.815   2.941  0.00  0.00    +0.128 C 
BRANCH  32  33
ATOM     33  C   UNL     1       4.957  -1.211   4.371  0.00  0.00    +0.004 A 
ATOM     34  C   UNL     1       5.842  -1.565   5.336  0.00  0.00    +0.012 A 
ATOM     35  C   UNL     1       5.368  -1.892   6.592  0.00  0.00    +0.008 A 
ATOM     36  C   UNL     1       4.033  -1.851   6.823  0.00  0.00    +0.045 A 
ATOM     37  S   UNL     1       3.400  -1.330   5.237  0.00  0.00    -0.100 S 
ENDBRANCH  32  33
ENDBRANCH  25  32
ENDBRANCH   1  25
TORSDOF 11
