REMARK  Name = ZINC14532045
REMARK  14 active torsions:
REMARK  status: ('A' for Active; 'I' for Inactive)
REMARK    1  A    between atoms: C_1  and  C_2
REMARK    2  A    between atoms: C_4  and  C_11
REMARK    3  A    between atoms: C_5  and  C_10
REMARK    4  A    between atoms: C_7  and  O_8
REMARK    5  A    between atoms: O_8  and  C_9
REMARK    6  A    between atoms: C_11  and  N_73
REMARK    7  A    between atoms: N_19  and  C_27
REMARK    8  A    between atoms: N_22  and  C_23
REMARK    9  A    between atoms: C_23  and  C_24
REMARK   10  A    between atoms: C_24  and  O_25
REMARK   11  A    between atoms: O_25  and  C_26
REMARK   12  A    between atoms: C_27  and  C_28
REMARK   13  A    between atoms: C_32  and  O_34
REMARK   14  A    between atoms: O_34  and  C_35
REMARK                            x       y       z     vdW  Elec       q    Type
REMARK                         _______ _______ _______ _____ _____    ______ ____
ROOT
ATOM      1  C   UNL     1       3.244   3.929  -1.590  0.00  0.00    -0.076 C 
ATOM      2  C   UNL     1       1.729   3.736  -1.696  0.00  0.00    +0.017 C 
ATOM      3  C   UNL     1       1.256   2.820  -0.572  0.00  0.00    +0.112 C 
ATOM      4  C   UNL     1       1.667   3.384   0.785  0.00  0.00    +0.017 C 
ATOM      5  C   UNL     1       3.184   3.589   0.811  0.00  0.00    -0.076 C 
ATOM      6  C   UNL     1      -0.241   2.632  -0.636  0.00  0.00    +0.247 C 
ATOM      7  O   UNL     1      -1.093   3.490  -0.540  0.00  0.00    -0.273 OA
ATOM      8  N   UNL     1      -0.431   1.310  -0.828  0.00  0.00    -0.220 N 
ATOM      9  C   UNL     1       0.732   0.650  -0.892  0.00  0.00    +0.312 C 
ATOM     10  O   UNL     1       0.819  -0.551  -1.060  0.00  0.00    -0.252 OA
ATOM     11  N   UNL     1       1.794   1.466  -0.750  0.00  0.00    -0.269 N 
ATOM     12  N   UNL     1       3.559   4.523  -0.273  0.00  0.00    +0.382 N 
ATOM     13  H   UNL     1       3.023   5.392  -0.163  0.00  0.00    -0.081 HD
ENDROOT
BRANCH  12  14
ATOM     14  C   UNL     1       5.001   4.836  -0.192  0.00  0.00    -0.043 C 
BRANCH  14  18
ATOM     15  C   UNL     1       7.083   4.089   4.295  0.00  0.00    +0.047 C 
ATOM     16  C   UNL     1       6.316   4.970   3.343  0.00  0.00    -0.009 A 
ATOM     17  C   UNL     1       6.023   4.521   2.070  0.00  0.00    +0.009 A 
ATOM     18  C   UNL     1       5.319   5.328   1.196  0.00  0.00    -0.061 A 
ATOM     19  C   UNL     1       4.912   6.589   1.592  0.00  0.00    -0.046 A 
ATOM     20  C   UNL     1       5.198   7.040   2.865  0.00  0.00    +0.049 A 
ATOM     21  C   UNL     1       5.904   6.232   3.744  0.00  0.00    +0.123 A 
ATOM     22  C   UNL     1       4.150   7.469   0.634  0.00  0.00    +0.044 C 
BRANCH  21  23
ATOM     23  O   UNL     1       6.191   6.676   4.997  0.00  0.00    -0.495 OA
ATOM     24  C   UNL     1       5.735   7.985   5.341  0.00  0.00    +0.277 C 
ENDBRANCH  21  23
ENDBRANCH  14  18
ENDBRANCH  12  14
BRANCH  11  25
ATOM     25  C   UNL     1       3.207   1.078  -0.769  0.00  0.00    +0.138 C 
BRANCH  25  26
ATOM     26  C   UNL     1       3.558   0.497  -2.141  0.00  0.00    +0.178 C 
BRANCH  26  27
ATOM     27  O   UNL     1       3.376   1.500  -3.143  0.00  0.00    -0.381 OA
ATOM     28  C   UNL     1       3.678   1.058  -4.468  0.00  0.00    +0.194 C 
ENDBRANCH  26  27
ENDBRANCH  25  26
ENDBRANCH  11  25
BRANCH   8  29
ATOM     29  C   UNL     1      -1.746   0.676  -0.952  0.00  0.00    +0.153 C 
BRANCH  29  30
ATOM     30  C   UNL     1      -2.160   0.658  -2.400  0.00  0.00    -0.026 A 
ATOM     31  C   UNL     1      -2.883   1.714  -2.925  0.00  0.00    +0.005 A 
ATOM     32  C   UNL     1      -3.260   1.703  -4.255  0.00  0.00    +0.004 A 
ATOM     33  C   UNL     1      -2.925   0.631  -5.061  0.00  0.00    +0.045 A 
ATOM     34  C   UNL     1      -2.206  -0.432  -4.535  0.00  0.00    +0.120 A 
ATOM     35  C   UNL     1      -1.824  -0.416  -3.201  0.00  0.00    +0.050 A 
BRANCH  34  36
ATOM     36  O   UNL     1      -1.876  -1.488  -5.324  0.00  0.00    -0.495 OA
ATOM     37  C   UNL     1      -2.302  -1.436  -6.687  0.00  0.00    +0.277 C 
ENDBRANCH  34  36
ENDBRANCH  29  30
ENDBRANCH   8  29
TORSDOF 9
