REMARK  Name = ZINC39684073
REMARK  6 active torsions:
REMARK  status: ('A' for Active; 'I' for Inactive)
REMARK    1  A    between atoms: C_1  and  C_2
REMARK    2  A    between atoms: C_7  and  C_11
REMARK    3  A    between atoms: C_11  and  C_12
REMARK    4  A    between atoms: C_12  and  N_13
REMARK    5  A    between atoms: C_14  and  C_16
REMARK    6  A    between atoms: C_27  and  C_29
REMARK                            x       y       z     vdW  Elec       q    Type
REMARK                         _______ _______ _______ _____ _____    ______ ____
ROOT
ATOM      1  C   UNL     1      -8.680   1.722  -6.216  0.00  0.00    +0.100 C 
ATOM      2  C   UNL     1      -9.909   2.121  -5.369  0.00  0.00    +0.121 C 
ATOM      3  N   UNL     1     -11.075   1.668  -6.164  0.00  0.00    -0.296 N 
ATOM      4  C   UNL     1     -10.652   0.364  -6.728  0.00  0.00    +0.115 C 
ATOM      5  C   UNL     1      -9.171   0.568  -7.106  0.00  0.00    -0.004 C 
ATOM      6  C   UNL     1      -8.373  -0.699  -6.817  0.00  0.00    -0.010 C 
ATOM      7  C   UNL     1      -8.840  -1.816  -7.754  0.00  0.00    -0.082 C 
ATOM      8  N   UNL     1      -8.647  -1.400  -9.149  0.00  0.00    +0.379 N 
ATOM      9  C   UNL     1      -9.490  -0.236  -9.445  0.00  0.00    -0.082 C 
ATOM     10  C   UNL     1      -9.050   0.948  -8.579  0.00  0.00    -0.010 C 
ATOM     11  C   UNL     1     -12.253   2.299  -6.335  0.00  0.00    +0.252 C 
ATOM     12  O   UNL     1     -13.119   1.793  -7.023  0.00  0.00    -0.270 OA
ATOM     13  H   UNL     1      -7.678  -1.159  -9.295  0.00  0.00    -0.086 HD
ATOM     14  H   UNL     1      -8.898  -2.160  -9.763  0.00  0.00    -0.086 HD
ENDROOT
BRANCH  11  15
ATOM     15  C   UNL     1     -12.493   3.603  -5.688  0.00  0.00    +0.107 A 
ATOM     16  C   UNL     1     -12.168   4.789  -6.355  0.00  0.00    +0.138 A 
ATOM     17  C   UNL     1     -12.396   6.007  -5.742  0.00  0.00    +0.039 A 
ATOM     18  C   UNL     1     -12.943   6.054  -4.473  0.00  0.00    +0.006 A 
ATOM     19  C   UNL     1     -13.266   4.887  -3.806  0.00  0.00    +0.039 A 
ATOM     20  C   UNL     1     -13.050   3.661  -4.407  0.00  0.00    +0.138 A 
ATOM     21  F   UNL     1     -13.372   2.521  -3.756  0.00  0.00    -0.205 F 
ATOM     22  F   UNL     1     -11.633   4.745  -7.595  0.00  0.00    -0.205 F 
ENDBRANCH  11  15
BRANCH   1  24
ATOM     23  N   UNL     1      -6.277   1.406  -5.721  0.00  0.00    -0.315 N 
ATOM     24  C   UNL     1      -7.557   1.256  -5.326  0.00  0.00    +0.218 C 
ATOM     25  O   UNL     1      -7.805   0.747  -4.253  0.00  0.00    -0.275 OA
ATOM     26  H   UNL     1      -6.079   1.814  -6.579  0.00  0.00    +0.149 HD
BRANCH  23  27
ATOM     27  C   UNL     1      -5.186   0.953  -4.855  0.00  0.00    +0.109 C 
BRANCH  27  28
ATOM     28  C   UNL     1      -3.845   1.238  -5.534  0.00  0.00    +0.056 C 
BRANCH  28  35
ATOM     29  C   UNL     1       0.667  -1.664  -2.287  0.00  0.00    +0.046 C 
ATOM     30  C   UNL     1      -0.435  -1.695  -3.314  0.00  0.00    -0.027 A 
ATOM     31  C   UNL     1      -0.739  -2.869  -3.967  0.00  0.00    +0.005 A 
ATOM     32  C   UNL     1      -1.752  -2.911  -4.915  0.00  0.00    +0.001 A 
ATOM     33  C   UNL     1      -2.466  -1.785  -5.218  0.00  0.00    +0.010 A 
ATOM     34  C   UNL     1      -2.175  -0.585  -4.569  0.00  0.00    +0.003 A 
ATOM     35  C   UNL     1      -2.722   0.772  -4.644  0.00  0.00    -0.021 A 
ATOM     36  C   UNL     1      -2.033   1.522  -3.769  0.00  0.00    +0.087 A 
ATOM     37  N   UNL     1      -1.089   0.757  -3.140  0.00  0.00    -0.360 N 
ATOM     38  C   UNL     1      -1.153  -0.539  -3.602  0.00  0.00    +0.050 A 
ATOM     39  H   UNL     1      -0.470   1.078  -2.466  0.00  0.00    +0.165 HD
ENDBRANCH  28  35
ENDBRANCH  27  28
ENDBRANCH  23  27
ENDBRANCH   1  24
TORSDOF 5
