REMARK  Name = ZINC44714300
REMARK  8 active torsions:
REMARK  status: ('A' for Active; 'I' for Inactive)
REMARK    1  A    between atoms: C_1  and  C_2
REMARK    2  A    between atoms: C_6  and  C_7
REMARK    3  A    between atoms: C_11  and  C_20
REMARK    4  A    between atoms: N_22  and  C_23
REMARK    5  A    between atoms: C_23  and  C_25
REMARK    6  A    between atoms: C_23  and  C_26
REMARK    7  A    between atoms: C_27  and  C_33
REMARK    8  A    between atoms: C_31  and  C_32
REMARK                            x       y       z     vdW  Elec       q    Type
REMARK                         _______ _______ _______ _____ _____    ______ ____
ROOT
ATOM      1  C   UNL     1       0.042  -0.274   2.559  0.00  0.00    +0.254 C 
ATOM      2  O   UNL     1       0.145   0.914   2.803  0.00  0.00    -0.269 OA
ATOM      3  N   UNL     1      -0.036  -1.165   3.568  0.00  0.00    -0.296 N 
ATOM      4  C   UNL     1      -0.037  -2.644   3.477  0.00  0.00    +0.121 C 
ATOM      5  C   UNL     1       0.823  -3.110   4.673  0.00  0.00    +0.100 C 
ATOM      6  C   UNL     1       0.749  -1.952   5.684  0.00  0.00    -0.004 C 
ATOM      7  C   UNL     1      -0.135  -0.885   5.021  0.00  0.00    +0.115 C 
ATOM      8  C   UNL     1       2.142  -1.388   5.943  0.00  0.00    -0.010 C 
ATOM      9  C   UNL     1       2.050  -0.277   6.994  0.00  0.00    -0.082 C 
ATOM     10  N   UNL     1       1.480  -0.819   8.233  0.00  0.00    +0.379 N 
ATOM     11  C   UNL     1       0.106  -1.276   7.995  0.00  0.00    -0.082 C 
ATOM     12  C   UNL     1       0.116  -2.429   6.987  0.00  0.00    -0.010 C 
ATOM     13  H   UNL     1       2.042  -1.597   8.548  0.00  0.00    -0.086 HD
ATOM     14  H   UNL     1       1.477  -0.102   8.942  0.00  0.00    -0.086 HD
ENDROOT
BRANCH   1  20
ATOM     15  C   UNL     1      -0.009   1.515   0.011  0.00  0.00    +0.045 C 
ATOM     16  C   UNL     1      -0.019   0.008   0.000  0.00  0.00    -0.031 A 
ATOM     17  C   UNL     1      -0.048  -0.714  -1.168  0.00  0.00    +0.011 A 
ATOM     18  C   UNL     1      -0.056  -2.069  -1.105  0.00  0.00    +0.046 A 
ATOM     19  S   UNL     1      -0.025  -2.405   0.540  0.00  0.00    -0.092 S 
ATOM     20  C   UNL     1       0.005  -0.737   1.169  0.00  0.00    +0.077 A 
ENDBRANCH   1  20
BRANCH   5  21
ATOM     21  C   UNL     1       0.251  -4.369   5.271  0.00  0.00    +0.219 C 
ATOM     22  O   UNL     1      -0.929  -4.620   5.142  0.00  0.00    -0.275 OA
ATOM     23  N   UNL     1       1.050  -5.216   5.950  0.00  0.00    -0.308 N 
ATOM     24  H   UNL     1       1.993  -5.015   6.054  0.00  0.00    +0.149 HD
BRANCH  23  25
ATOM     25  C   UNL     1       0.494  -6.440   6.532  0.00  0.00    +0.104 C 
ATOM     26  C   UNL     1      -0.001  -6.152   7.950  0.00  0.00    +0.033 C 
BRANCH  25  27
ATOM     27  C   UNL     1       1.560  -7.504   6.578  0.00  0.00    +0.015 A 
ATOM     28  C   UNL     1       1.441  -8.771   6.119  0.00  0.00    +0.038 A 
ATOM     29  N   UNL     1       2.613  -9.402   6.345  0.00  0.00    -0.281 N 
ATOM     30  H   UNL     1       2.818 -10.323   6.119  0.00  0.00    +0.189 HD
ATOM     31  N   UNL     1       3.480  -8.493   6.964  0.00  0.00    -0.179 NA
ATOM     32  C   UNL     1       2.850  -7.353   7.097  0.00  0.00    +0.065 A 
ATOM     33  C   UNL     1       3.416  -6.098   7.709  0.00  0.00    +0.068 C 
ATOM     34  C   UNL     1       0.220  -9.370   5.471  0.00  0.00    +0.065 C 
ENDBRANCH  25  27
ENDBRANCH  23  25
ENDBRANCH   5  21
TORSDOF 4
