REMARK  Name = ZINC60280364
REMARK  4 active torsions:
REMARK  status: ('A' for Active; 'I' for Inactive)
REMARK    1  A    between atoms: C_1  and  C_2
REMARK    2  A    between atoms: C_2  and  N_3
REMARK    3  A    between atoms: C_5  and  C_11
REMARK    4  A    between atoms: C_7  and  C_8
REMARK                            x       y       z     vdW  Elec       q    Type
REMARK                         _______ _______ _______ _____ _____    ______ ____
ROOT
ATOM      1  N   UNL     1       0.711  -0.489   1.189  0.00  0.00    -0.279 N 
ATOM      2  C   UNL     1       2.066  -0.729   1.256  0.00  0.00    +0.101 C 
ATOM      3  C   UNL     1       2.297  -1.210   2.676  0.00  0.00    +0.174 C 
ATOM      4  N   UNL     1       0.956  -1.183   3.280  0.00  0.00    -0.363 N 
ATOM      5  C   UNL     1       0.125  -0.765   2.392  0.00  0.00    +0.080 C 
ATOM      6  N   UNL     1       2.944  -0.578   0.320  0.00  0.00    -0.388 N 
ATOM      7  H   UNL     1       2.670  -0.260  -0.555  0.00  0.00    +0.157 HD
ATOM      8  H   UNL     1       3.876  -0.782   0.491  0.00  0.00    +0.157 HD
ATOM      9  H   UNL     1       0.737  -1.433   4.191  0.00  0.00    +0.162 HD
ENDROOT
BRANCH   3  10
ATOM     10  C   UNL     1       3.226  -0.275   3.407  0.00  0.00    +0.000 A 
ATOM     11  C   UNL     1       2.713   0.664   4.282  0.00  0.00    +0.009 A 
ATOM     12  C   UNL     1       3.563   1.522   4.952  0.00  0.00    +0.020 A 
ATOM     13  C   UNL     1       4.930   1.441   4.749  0.00  0.00    +0.042 A 
ATOM     14  C   UNL     1       5.444   0.501   3.874  0.00  0.00    +0.040 A 
ATOM     15  C   UNL     1       4.592  -0.360   3.207  0.00  0.00    +0.048 A 
ATOM     16 CL   UNL     1       5.237  -1.545   2.114  0.00  0.00    -0.083 Cl
ATOM     17 CL   UNL     1       5.998   2.519   5.591  0.00  0.00    -0.083 Cl
ENDBRANCH   3  10
BRANCH   5  18
ATOM     18  C   UNL     1      -1.351  -0.600   2.652  0.00  0.00    +0.051 C 
ATOM     19  C   UNL     1      -1.767   0.052   3.971  0.00  0.00    +0.011 C 
ATOM     20  C   UNL     1      -1.971  -1.449   3.763  0.00  0.00    +0.011 C 
ENDBRANCH   5  18
BRANCH   1  22
ATOM     21  C   UNL     1      -0.019   1.526   0.010  0.00  0.00    +0.025 C 
ATOM     22  C   UNL     1       0.002  -0.004   0.002  0.00  0.00    +0.110 C 
ENDBRANCH   1  22
TORSDOF 3
