REMARK  Name = ZINC36104435
REMARK  4 active torsions:
REMARK  status: ('A' for Active; 'I' for Inactive)
REMARK    1  A    between atoms: C_5  and  C_7
REMARK    2  A    between atoms: C_9  and  C_12
REMARK    3  A    between atoms: C_12  and  C_13
REMARK    4  A    between atoms: C_13  and  N_14
REMARK                            x       y       z     vdW  Elec       q    Type
REMARK                         _______ _______ _______ _____ _____    ______ ____
ROOT
ATOM      1  C   UNL     1       1.245  -2.154  -0.021  0.00  0.00    +0.110 A 
ATOM      2  N   UNL     1       0.236  -3.014  -0.022  0.00  0.00    -0.244 NA
ATOM      3  C   UNL     1       0.445  -4.310  -0.037  0.00  0.00    +0.051 A 
ATOM      4  C   UNL     1       1.716  -4.791  -0.051  0.00  0.00    +0.070 A 
ATOM      5  S   UNL     1       2.647  -3.263  -0.049  0.00  0.00    -0.075 S 
ENDROOT
BRANCH   1  10
ATOM      6  C   UNL     1      -0.020   1.382   0.026  0.00  0.00    +0.001 A 
ATOM      7  C   UNL     1       1.167   2.093   0.018  0.00  0.00    +0.001 A 
ATOM      8  C   UNL     1       2.379   1.428  -0.002  0.00  0.00    +0.020 A 
ATOM      9  C   UNL     1       2.412   0.047  -0.015  0.00  0.00    +0.051 A 
ATOM     10  C   UNL     1       1.218  -0.676  -0.007  0.00  0.00    +0.025 A 
ATOM     11  C   UNL     1      -0.002   0.003   0.014  0.00  0.00    +0.012 A 
ATOM     12 CL   UNL     1       3.934  -0.786  -0.041  0.00  0.00    -0.083 Cl
ENDBRANCH   1  10
BRANCH   3  13
ATOM     13  C   UNL     1      -0.723  -5.263  -0.038  0.00  0.00    +0.074 C 
BRANCH  13  14
ATOM     14  C   UNL     1      -1.632  -4.956   1.154  0.00  0.00    +0.112 C 
BRANCH  14  15
ATOM     15  N   UNL     1      -2.767  -5.882   1.153  0.00  0.00    -0.299 N 
ATOM     16  C   UNL     1      -3.705  -5.799   2.117  0.00  0.00    +0.302 C 
ATOM     17  O   UNL     1      -3.564  -5.016   3.037  0.00  0.00    -0.253 OA
ATOM     18  N   UNL     1      -4.800  -6.583   2.061  0.00  0.00    -0.281 N 
ATOM     19  C   UNL     1      -4.937  -7.620   1.026  0.00  0.00    +0.137 C 
ATOM     20  C   UNL     1      -5.308  -8.940   1.712  0.00  0.00    +0.179 C 
ATOM     21  O   UNL     1      -6.444  -8.730   2.554  0.00  0.00    -0.377 OA
ATOM     22  C   UNL     1      -6.218  -7.806   3.621  0.00  0.00    +0.179 C 
ATOM     23  C   UNL     1      -5.891  -6.431   3.037  0.00  0.00    +0.137 C 
ATOM     24  H   UNL     1      -2.843  -6.555   0.459  0.00  0.00    +0.150 HD
ENDBRANCH  14  15
ENDBRANCH  13  14
ENDBRANCH   3  13
TORSDOF 4
