REMARK  Name = ZINC39630888
REMARK  13 active torsions:
REMARK  status: ('A' for Active; 'I' for Inactive)
REMARK    1  A    between atoms: C_1  and  C_2
REMARK    2  A    between atoms: C_2  and  C_3
REMARK    3  A    between atoms: C_2  and  C_4
REMARK    4  A    between atoms: C_2  and  C_33
REMARK    5  A    between atoms: C_4  and  N_5
REMARK    6  A    between atoms: C_6  and  C_8
REMARK    7  A    between atoms: C_19  and  C_21
REMARK    8  A    between atoms: C_24  and  O_31
REMARK    9  A    between atoms: C_25  and  C_27
REMARK   10  A    between atoms: O_31  and  C_32
REMARK   11  A    between atoms: C_33  and  N_34
REMARK   12  A    between atoms: N_34  and  C_35
REMARK   13  A    between atoms: N_34  and  C_36
REMARK                            x       y       z     vdW  Elec       q    Type
REMARK                         _______ _______ _______ _____ _____    ______ ____
ROOT
ATOM      1  C   UNL     1      -2.742   0.127   4.420  0.00  0.00    +0.100 C 
ATOM      2  C   UNL     1      -2.680   1.662   4.256  0.00  0.00    +0.121 C 
ATOM      3  N   UNL     1      -4.093   2.079   4.092  0.00  0.00    -0.296 N 
ATOM      4  C   UNL     1      -4.842   1.222   5.042  0.00  0.00    +0.115 C 
ATOM      5  C   UNL     1      -4.162  -0.157   4.939  0.00  0.00    -0.004 C 
ATOM      6  C   UNL     1      -4.100  -0.819   6.312  0.00  0.00    -0.010 C 
ATOM      7  C   UNL     1      -5.520  -1.145   6.781  0.00  0.00    -0.082 C 
ATOM      8  N   UNL     1      -6.164  -2.041   5.813  0.00  0.00    +0.379 N 
ATOM      9  C   UNL     1      -6.304  -1.362   4.519  0.00  0.00    -0.082 C 
ATOM     10  C   UNL     1      -4.916  -1.045   3.954  0.00  0.00    -0.010 C 
ATOM     11  C   UNL     1      -4.584   3.024   3.267  0.00  0.00    +0.247 C 
ATOM     12  O   UNL     1      -3.852   3.572   2.465  0.00  0.00    -0.270 OA
ATOM     13  H   UNL     1      -5.600  -2.870   5.697  0.00  0.00    -0.086 HD
ATOM     14  H   UNL     1      -7.077  -2.303   6.154  0.00  0.00    -0.086 HD
ENDROOT
BRANCH  11  15
ATOM     15  C   UNL     1      -6.011   3.394   3.336  0.00  0.00    +0.038 A 
ATOM     16  C   UNL     1      -6.750   3.126   4.492  0.00  0.00    +0.016 A 
ATOM     17  C   UNL     1      -8.081   3.474   4.553  0.00  0.00    +0.047 A 
ATOM     18  C   UNL     1      -8.690   4.090   3.466  0.00  0.00    +0.132 A 
ATOM     19  C   UNL     1      -7.960   4.359   2.315  0.00  0.00    +0.097 A 
ATOM     20  C   UNL     1      -6.627   4.019   2.248  0.00  0.00    +0.029 A 
BRANCH  19  21
ATOM     21  C   UNL     1      -8.626   5.027   1.140  0.00  0.00    +0.421 C 
ATOM     22  F   UNL     1      -7.696   5.190   0.107  0.00  0.00    -0.166 F 
ATOM     23  F   UNL     1      -9.686   4.232   0.690  0.00  0.00    -0.166 F 
ATOM     24  F   UNL     1      -9.114   6.278   1.530  0.00  0.00    -0.166 F 
ENDBRANCH  19  21
BRANCH  18  25
ATOM     25  O   UNL     1     -10.002   4.431   3.530  0.00  0.00    -0.495 OA
ATOM     26  C   UNL     1     -10.694   4.125   4.743  0.00  0.00    +0.277 C 
ENDBRANCH  18  25
ENDBRANCH  11  15
BRANCH   1  28
ATOM     27  N   UNL     1      -1.972  -1.780   3.046  0.00  0.00    -0.315 N 
ATOM     28  C   UNL     1      -2.523  -0.551   3.092  0.00  0.00    +0.218 C 
ATOM     29  O   UNL     1      -2.843   0.009   2.065  0.00  0.00    -0.275 OA
ATOM     30  H   UNL     1      -1.716  -2.228   3.868  0.00  0.00    +0.149 HD
BRANCH  27  31
ATOM     31  C   UNL     1      -1.759  -2.440   1.756  0.00  0.00    +0.108 C 
BRANCH  31  33
ATOM     32  C   UNL     1       0.218  -3.643   2.696  0.00  0.00    +0.010 C 
ATOM     33  C   UNL     1      -1.124  -3.813   1.983  0.00  0.00    -0.034 C 
ATOM     34  C   UNL     1      -2.055  -4.668   2.846  0.00  0.00    +0.010 C 
BRANCH  33  35
ATOM     35  C   UNL     1      -0.902  -4.502   0.635  0.00  0.00    -0.072 C 
BRANCH  35  36
ATOM     36  N   UNL     1      -0.287  -5.818   0.853  0.00  0.00    +0.376 N 
ATOM     37  C   UNL     1      -1.337  -6.814   1.105  0.00  0.00    -0.097 C 
ATOM     38  C   UNL     1       0.478  -6.205  -0.339  0.00  0.00    -0.097 C 
ATOM     39  H   UNL     1       0.331  -5.772   1.650  0.00  0.00    -0.083 HD
ENDBRANCH  35  36
ENDBRANCH  33  35
ENDBRANCH  31  33
ENDBRANCH  27  31
ENDBRANCH   1  28
TORSDOF 8
