REMARK  Name = ZINC08681750
REMARK  14 active torsions:
REMARK  status: ('A' for Active; 'I' for Inactive)
REMARK    1  A    between atoms: C_1  and  C_2
REMARK    2  A    between atoms: C_9  and  O_37
REMARK    3  A    between atoms: C_10  and  C_12
REMARK    4  A    between atoms: C_12  and  N_69
REMARK    5  A    between atoms: C_13  and  C_14
REMARK    6  A    between atoms: C_13  and  N_69
REMARK    7  A    between atoms: C_19  and  C_21
REMARK    8  A    between atoms: C_19  and  C_34
REMARK    9  A    between atoms: C_19  and  N_69
REMARK   10  A    between atoms: N_25  and  C_26
REMARK   11  A    between atoms: C_26  and  C_27
REMARK   12  A    between atoms: C_27  and  C_28
REMARK   13  A    between atoms: C_34  and  C_35
REMARK   14  A    between atoms: C_34  and  C_36
REMARK                            x       y       z     vdW  Elec       q    Type
REMARK                         _______ _______ _______ _____ _____    ______ ____
ROOT
ATOM      1  N   UNL     1       4.613   4.617  -1.490  0.00  0.00    +0.394 N 
ATOM      2  H   UNL     1       4.065   5.144  -2.180  0.00  0.00    -0.080 HD
ENDROOT
BRANCH   1   3
ATOM      3  C   UNL     1       3.714   4.164  -0.408  0.00  0.00    -0.036 C 
BRANCH   3  13
ATOM      4  C   UNL     1      -1.828   2.484  -3.448  0.00  0.00    +0.046 C 
ATOM      5  C   UNL     1      -0.775   1.654  -2.758  0.00  0.00    -0.024 A 
ATOM      6  C   UNL     1      -0.900   0.299  -2.705  0.00  0.00    +0.005 A 
ATOM      7  C   UNL     1       0.063  -0.486  -2.077  0.00  0.00    +0.001 A 
ATOM      8  C   UNL     1       1.158   0.081  -1.499  0.00  0.00    +0.010 A 
ATOM      9  C   UNL     1       1.319   1.474  -1.536  0.00  0.00    +0.001 A 
ATOM     10  C   UNL     1       0.341   2.275  -2.173  0.00  0.00    +0.078 A 
ATOM     11  N   UNL     1       0.488   3.604  -2.212  0.00  0.00    -0.213 NA
ATOM     12  C   UNL     1       1.532   4.191  -1.666  0.00  0.00    +0.214 A 
ATOM     13  C   UNL     1       2.534   3.455  -1.021  0.00  0.00    -0.002 A 
ATOM     14  C   UNL     1       2.439   2.098  -0.949  0.00  0.00    +0.017 A 
BRANCH  12  15
ATOM     15  O   UNL     1       1.639   5.541  -1.729  0.00  0.00    -0.492 OA
ATOM     16  H   UNL     1       1.231   6.004  -0.985  0.00  0.00    +0.294 HD
ENDBRANCH  12  15
ENDBRANCH   3  13
ENDBRANCH   1   3
BRANCH   1  17
ATOM     17  C   UNL     1       5.230   3.450  -2.156  0.00  0.00    -0.002 C 
BRANCH  17  18
ATOM     18  C   UNL     1       5.544   3.822  -3.582  0.00  0.00    +0.089 A 
ATOM     19  C   UNL     1       6.747   4.207  -4.048  0.00  0.00    +0.042 A 
ATOM     20  C   UNL     1       6.589   4.457  -5.430  0.00  0.00    +0.041 A 
ATOM     21  C   UNL     1       5.300   4.211  -5.727  0.00  0.00    +0.195 A 
ATOM     22  O   UNL     1       4.674   3.821  -4.605  0.00  0.00    -0.470 OA
ENDBRANCH  17  18
ENDBRANCH   1  17
BRANCH   1  23
ATOM     23  C   UNL     1       5.664   5.497  -0.938  0.00  0.00    +0.006 C 
BRANCH  23  24
ATOM     24  C   UNL     1       6.537   5.983  -2.066  0.00  0.00    +0.138 A 
ATOM     25  N   UNL     1       6.134   6.498  -3.202  0.00  0.00    -0.115 NA
ATOM     26  N   UNL     1       7.177   6.789  -3.900  0.00  0.00    -0.023 NA
ATOM     27  N   UNL     1       8.235   6.473  -3.239  0.00  0.00    -0.044 NA
ATOM     28  N   UNL     1       7.883   5.978  -2.101  0.00  0.00    -0.231 N 
BRANCH  28  29
ATOM     29  C   UNL     1       8.778   5.496  -1.046  0.00  0.00    +0.152 C 
BRANCH  29  30
ATOM     30  C   UNL     1       9.070   4.010  -1.263  0.00  0.00    +0.058 C 
BRANCH  30  31
ATOM     31  C   UNL     1       9.991   3.515  -0.178  0.00  0.00    -0.046 A 
ATOM     32  C   UNL     1      11.361   3.567  -0.358  0.00  0.00    +0.004 A 
ATOM     33  C   UNL     1      12.206   3.118   0.639  0.00  0.00    +0.000 A 
ATOM     34  C   UNL     1      11.682   2.607   1.812  0.00  0.00    +0.000 A 
ATOM     35  C   UNL     1      10.312   2.549   1.989  0.00  0.00    +0.000 A 
ATOM     36  C   UNL     1       9.467   3.004   0.994  0.00  0.00    +0.004 A 
ENDBRANCH  30  31
ENDBRANCH  29  30
ENDBRANCH  28  29
ENDBRANCH  23  24
BRANCH  23  37
ATOM     37  C   UNL     1       5.001   6.694  -0.254  0.00  0.00    -0.024 C 
ATOM     38  C   UNL     1       6.080   7.627   0.301  0.00  0.00    +0.006 C 
ATOM     39  C   UNL     1       4.146   7.453  -1.271  0.00  0.00    +0.006 C 
ENDBRANCH  23  37
ENDBRANCH   1  23
TORSDOF 11
