REMARK  Name = ZINC46538624
REMARK  4 active torsions:
REMARK  status: ('A' for Active; 'I' for Inactive)
REMARK    1  A    between atoms: C_4  and  C_7
REMARK    2  A    between atoms: C_7  and  C_25
REMARK    3  A    between atoms: N_8  and  N_9
REMARK    4  A    between atoms: C_10  and  C_12
REMARK                            x       y       z     vdW  Elec       q    Type
REMARK                         _______ _______ _______ _____ _____    ______ ____
ROOT
ATOM      1  N   UNL     1       4.647   1.297  -0.180  0.00  0.00    -0.202 N 
ATOM      2  C   UNL     1       5.857   1.892  -0.176  0.00  0.00    +0.269 C 
ATOM      3  O   UNL     1       6.867   1.218  -0.253  0.00  0.00    -0.268 OA
ATOM      4  H   UNL     1       3.841   1.837  -0.197  0.00  0.00    +0.178 HD
ENDROOT
BRANCH   2   5
ATOM      5  C   UNL     1       5.955   3.357  -0.079  0.00  0.00    +0.103 A 
ATOM      6  C   UNL     1       7.178   4.000  -0.213  0.00  0.00    +0.031 A 
ATOM      7  C   UNL     1       7.224   5.407  -0.114  0.00  0.00    +0.037 A 
ATOM      8  C   UNL     1       6.068   6.137   0.107  0.00  0.00    +0.030 A 
ATOM      9  N   UNL     1       4.880   5.514   0.243  0.00  0.00    -0.325 N 
ATOM     10  H   UNL     1       4.085   6.045   0.405  0.00  0.00    +0.169 HD
ATOM     11  C   UNL     1       4.764   4.178   0.156  0.00  0.00    +0.261 A 
ATOM     12  O   UNL     1       3.673   3.651   0.277  0.00  0.00    -0.267 OA
ATOM     13  C   UNL     1       6.095   7.642   0.195  0.00  0.00    +0.054 C 
ATOM     14  C   UNL     1       7.479   8.151   0.585  0.00  0.00    +0.014 C 
ATOM     15  C   UNL     1       8.518   7.596  -0.399  0.00  0.00    +0.080 C 
ATOM     16  C   UNL     1       8.522   6.090  -0.245  0.00  0.00    +0.165 C 
ATOM     17  O   UNL     1       9.562   5.465  -0.228  0.00  0.00    -0.292 OA
ENDBRANCH   2   5
BRANCH   1  19
ATOM     18  C   UNL     1       3.385  -0.676  -0.074  0.00  0.00    +0.096 C 
ATOM     19  N   UNL     1       4.554  -0.100  -0.160  0.00  0.00    -0.179 NA
BRANCH  18  23
ATOM     20  C   UNL     1      -0.156   1.665  -0.271  0.00  0.00    +0.000 A 
ATOM     21  C   UNL     1       0.801   1.779  -1.263  0.00  0.00    +0.001 A 
ATOM     22  C   UNL     1       1.953   1.022  -1.205  0.00  0.00    +0.010 A 
ATOM     23  C   UNL     1       2.151   0.140  -0.142  0.00  0.00    +0.002 A 
ATOM     24  C   UNL     1       1.182   0.029   0.855  0.00  0.00    +0.010 A 
ATOM     25  C   UNL     1       0.034   0.792   0.785  0.00  0.00    +0.001 A 
ENDBRANCH  18  23
BRANCH  18  26
ATOM     26  C   UNL     1       3.293  -2.144   0.092  0.00  0.00    +0.002 A 
ATOM     27  C   UNL     1       2.050  -2.777   0.053  0.00  0.00    +0.010 A 
ATOM     28  C   UNL     1       1.971  -4.146   0.208  0.00  0.00    +0.001 A 
ATOM     29  C   UNL     1       3.121  -4.890   0.402  0.00  0.00    +0.000 A 
ATOM     30  C   UNL     1       4.356  -4.269   0.442  0.00  0.00    +0.001 A 
ATOM     31  C   UNL     1       4.449  -2.901   0.282  0.00  0.00    +0.010 A 
ENDBRANCH  18  26
ENDBRANCH   1  19
TORSDOF 4
