REMARK  Name = ZINC23469506
REMARK  14 active torsions:
REMARK  status: ('A' for Active; 'I' for Inactive)
REMARK    1  A    between atoms: C_1  and  C_2
REMARK    2  A    between atoms: C_2  and  C_4
REMARK    3  A    between atoms: C_2  and  O_28
REMARK    4  A    between atoms: C_4  and  N_5
REMARK    5  A    between atoms: N_5  and  C_6
REMARK    6  A    between atoms: C_6  and  C_7
REMARK    7  A    between atoms: C_7  and  N_8
REMARK    8  A    between atoms: N_8  and  C_9
REMARK    9  A    between atoms: C_9  and  C_10
REMARK   10  A    between atoms: C_12  and  O_26
REMARK   11  A    between atoms: C_13  and  O_17
REMARK   12  A    between atoms: O_17  and  C_18
REMARK   13  A    between atoms: C_18  and  C_19
REMARK   14  A    between atoms: O_26  and  C_27
REMARK                            x       y       z     vdW  Elec       q    Type
REMARK                         _______ _______ _______ _____ _____    ______ ____
ROOT
ATOM      1  C   UNL     1       2.953  -6.451   4.818  0.00  0.00    -0.060 A 
ATOM      2  C   UNL     1       4.319  -6.657   4.770  0.00  0.00    +0.051 A 
ATOM      3  C   UNL     1       4.991  -7.115   5.891  0.00  0.00    +0.163 A 
ATOM      4  C   UNL     1       4.288  -7.368   7.065  0.00  0.00    +0.176 A 
ATOM      5  C   UNL     1       2.918  -7.160   7.107  0.00  0.00    +0.063 A 
ATOM      6  C   UNL     1       2.255  -6.697   5.985  0.00  0.00    +0.021 A 
ATOM      7 BR   UNL     1       1.959  -7.502   8.700  0.00  0.00    -0.046 Br
ENDROOT
BRANCH   3   8
ATOM      8  O   UNL     1       6.335  -7.319   5.844  0.00  0.00    -0.491 OA
ATOM      9  C   UNL     1       6.991  -7.039   4.606  0.00  0.00    +0.277 C 
ENDBRANCH   3   8
BRANCH   1  10
ATOM     10  C   UNL     1       2.224  -5.952   3.597  0.00  0.00    -0.047 C 
BRANCH  10  11
ATOM     11  N   UNL     1       2.204  -4.483   3.605  0.00  0.00    +0.381 N 
ATOM     12  H   UNL     1       3.150  -4.134   3.598  0.00  0.00    -0.086 HD
ATOM     13  H   UNL     1       1.731  -4.157   4.435  0.00  0.00    -0.086 HD
BRANCH  11  14
ATOM     14  C   UNL     1       1.493  -3.996   2.415  0.00  0.00    -0.102 C 
BRANCH  14  15
ATOM     15  C   UNL     1       1.472  -2.466   2.424  0.00  0.00    -0.102 C 
BRANCH  15  16
ATOM     16  N   UNL     1       0.762  -1.980   1.234  0.00  0.00    +0.379 N 
ATOM     17  H   UNL     1      -0.185  -2.329   1.241  0.00  0.00    -0.086 HD
ATOM     18  H   UNL     1       1.234  -2.305   0.403  0.00  0.00    -0.086 HD
BRANCH  16  19
ATOM     19  C   UNL     1       0.742  -0.511   1.242  0.00  0.00    -0.051 C 
BRANCH  19  21
ATOM     20  C   UNL     1      -0.019   1.526   0.010  0.00  0.00    +0.035 C 
ATOM     21  C   UNL     1       0.002  -0.004   0.002  0.00  0.00    +0.095 C 
BRANCH  21  22
ATOM     22  O   UNL     1       0.671  -0.465  -1.174  0.00  0.00    -0.394 OA
ATOM     23  H   UNL     1       0.256  -0.181  -1.999  0.00  0.00    +0.210 HD
ENDBRANCH  21  22
ENDBRANCH  19  21
ENDBRANCH  16  19
ENDBRANCH  15  16
ENDBRANCH  14  15
ENDBRANCH  11  14
ENDBRANCH  10  11
ENDBRANCH   1  10
BRANCH   4  24
ATOM     24  O   UNL     1       4.943  -7.819   8.168  0.00  0.00    -0.483 OA
BRANCH  24  25
ATOM     25  C   UNL     1       5.451  -6.833   9.070  0.00  0.00    +0.264 C 
BRANCH  25  26
ATOM     26  C   UNL     1       6.140  -7.515  10.223  0.00  0.00    -0.010 A 
ATOM     27  C   UNL     1       5.422  -7.854  11.355  0.00  0.00    +0.010 A 
ATOM     28  C   UNL     1       6.053  -8.479  12.413  0.00  0.00    +0.039 A 
ATOM     29  C   UNL     1       7.406  -8.767  12.340  0.00  0.00    +0.123 A 
ATOM     30  C   UNL     1       8.124  -8.427  11.206  0.00  0.00    +0.039 A 
ATOM     31  C   UNL     1       7.490  -7.806  10.147  0.00  0.00    +0.010 A 
ATOM     32  F   UNL     1       8.024  -9.378  13.374  0.00  0.00    -0.205 F 
ENDBRANCH  25  26
ENDBRANCH  24  25
ENDBRANCH   4  24
TORSDOF 12
