REMARK  Name = ZINC16025236
REMARK  10 active torsions:
REMARK  status: ('A' for Active; 'I' for Inactive)
REMARK    1  A    between atoms: C_1  and  C_2
REMARK    2  A    between atoms: C_2  and  C_4
REMARK    3  A    between atoms: C_2  and  O_38
REMARK    4  A    between atoms: N_12  and  C_15
REMARK    5  A    between atoms: C_15  and  C_16
REMARK    6  A    between atoms: C_16  and  C_17
REMARK    7  A    between atoms: C_20  and  O_25
REMARK    8  A    between atoms: C_21  and  O_23
REMARK    9  A    between atoms: O_23  and  C_24
REMARK   10  A    between atoms: O_25  and  C_26
REMARK                            x       y       z     vdW  Elec       q    Type
REMARK                         _______ _______ _______ _____ _____    ______ ____
ROOT
ATOM      1  C   UNL     1       0.742  -0.511   1.242  0.00  0.00    +0.096 C 
ATOM      2  C   UNL     1       0.808  -2.053   1.234  0.00  0.00    +0.109 C 
ATOM      3  C   UNL     1       2.214  -2.395   1.801  0.00  0.00    +0.122 C 
ATOM      4  C   UNL     1       2.911  -3.050   0.629  0.00  0.00    +0.228 C 
ATOM      5  O   UNL     1       4.043  -3.482   0.640  0.00  0.00    -0.275 OA
ATOM      6  N   UNL     1       2.083  -3.079  -0.421  0.00  0.00    -0.241 N 
ATOM      7  C   UNL     1       0.861  -2.544  -0.194  0.00  0.00    +0.227 C 
ATOM      8  O   UNL     1      -0.045  -2.465  -0.996  0.00  0.00    -0.275 OA
ATOM      9  C   UNL     1       2.851  -1.032   2.100  0.00  0.00    +0.136 C 
ATOM     10  N   UNL     1       2.161  -0.065   1.215  0.00  0.00    -0.293 NA
ATOM     11  C   UNL     1       2.719  -0.672   3.553  0.00  0.00    +0.003 A 
ATOM     12  C   UNL     1       1.642  -0.497   4.393  0.00  0.00    +0.008 A 
ATOM     13  C   UNL     1       1.845  -0.157   5.718  0.00  0.00    +0.000 A 
ATOM     14  C   UNL     1       3.132   0.007   6.197  0.00  0.00    +0.002 A 
ATOM     15  C   UNL     1       4.214  -0.166   5.359  0.00  0.00    +0.023 A 
ATOM     16  C   UNL     1       4.019  -0.508   4.023  0.00  0.00    +0.039 A 
ATOM     17  N   UNL     1       4.937  -0.733   2.995  0.00  0.00    -0.283 N 
ATOM     18  C   UNL     1       4.331  -1.046   1.833  0.00  0.00    +0.243 C 
ATOM     19  O   UNL     1       4.874  -1.290   0.776  0.00  0.00    -0.273 OA
ATOM     20  H   UNL     1       2.531  -0.092   0.277  0.00  0.00    +0.124 HD
ATOM     21  H   UNL     1       5.898  -0.672   3.105  0.00  0.00    +0.155 HD
ENDROOT
BRANCH   1  23
ATOM     22  C   UNL     1      -1.483  -0.352   0.117  0.00  0.00    +0.039 C 
ATOM     23  C   UNL     1       0.002  -0.004   0.002  0.00  0.00    +0.129 C 
BRANCH  23  24
ATOM     24  O   UNL     1       0.153   1.413  -0.096  0.00  0.00    -0.390 OA
ATOM     25  H   UNL     1      -0.292   1.804  -0.861  0.00  0.00    +0.210 HD
ENDBRANCH  23  24
ENDBRANCH   1  23
BRANCH   6  26
ATOM     26  C   UNL     1       2.464  -3.650  -1.715  0.00  0.00    +0.121 C 
BRANCH  26  27
ATOM     27  C   UNL     1       2.104  -5.137  -1.742  0.00  0.00    +0.054 C 
BRANCH  27  28
ATOM     28  C   UNL     1       2.497  -5.725  -3.073  0.00  0.00    -0.042 A 
ATOM     29  C   UNL     1       1.596  -5.719  -4.122  0.00  0.00    +0.007 A 
ATOM     30  C   UNL     1       1.951  -6.257  -5.345  0.00  0.00    +0.049 A 
ATOM     31  C   UNL     1       3.212  -6.803  -5.522  0.00  0.00    +0.161 A 
ATOM     32  C   UNL     1       4.119  -6.809  -4.466  0.00  0.00    +0.162 A 
ATOM     33  C   UNL     1       3.758  -6.263  -3.245  0.00  0.00    +0.053 A 
BRANCH  32  34
ATOM     34  O   UNL     1       5.357  -7.343  -4.635  0.00  0.00    -0.491 OA
ATOM     35  C   UNL     1       6.236  -7.314  -3.508  0.00  0.00    +0.277 C 
ENDBRANCH  32  34
BRANCH  31  36
ATOM     36  O   UNL     1       3.562  -7.333  -6.724  0.00  0.00    -0.491 OA
ATOM     37  C   UNL     1       2.581  -7.294  -7.762  0.00  0.00    +0.277 C 
ENDBRANCH  31  36
ENDBRANCH  27  28
ENDBRANCH  26  27
ENDBRANCH   6  26
TORSDOF 7
