REMARK  Name = ZINC20744384
REMARK  6 active torsions:
REMARK  status: ('A' for Active; 'I' for Inactive)
REMARK    1  A    between atoms: C_1  and  C_2
REMARK    2  A    between atoms: C_2  and  C_3
REMARK    3  A    between atoms: C_6  and  N_9
REMARK    4  A    between atoms: C_16  and  O_18
REMARK    5  A    between atoms: N_25  and  C_28
REMARK    6  A    between atoms: C_28  and  C_29
REMARK                            x       y       z     vdW  Elec       q    Type
REMARK                         _______ _______ _______ _____ _____    ______ ____
ROOT
ATOM      1  N   UNL     1       2.747  -1.883   4.600  0.00  0.00    -0.214 N 
ATOM      2  C   UNL     1       2.454  -1.577   5.884  0.00  0.00    +0.164 A 
ATOM      3  C   UNL     1       3.378  -2.242   6.683  0.00  0.00    +0.036 A 
ATOM      4  C   UNL     1       4.221  -2.956   5.852  0.00  0.00    +0.142 A 
ATOM      5  N   UNL     1       3.848  -2.754   4.608  0.00  0.00    -0.173 NA
ATOM      6  C   UNL     1       3.350  -2.111   8.180  0.00  0.00    +0.112 C 
ATOM      7  C   UNL     1       1.915  -1.829   8.621  0.00  0.00    +0.121 C 
ATOM      8  C   UNL     1       1.240  -0.854   7.699  0.00  0.00    +0.191 C 
ATOM      9  N   UNL     1       1.494  -0.776   6.427  0.00  0.00    -0.197 NA
ATOM     10  C   UNL     1       4.282  -1.042   8.651  0.00  0.00    -0.006 A 
ATOM     11  C   UNL     1       4.325   0.312   8.398  0.00  0.00    +0.007 A 
ATOM     12  C   UNL     1       5.344   1.036   9.007  0.00  0.00    +0.000 A 
ATOM     13  C   UNL     1       6.269   0.424   9.828  0.00  0.00    +0.002 A 
ATOM     14  C   UNL     1       6.233  -0.937  10.087  0.00  0.00    +0.024 A 
ATOM     15  C   UNL     1       5.215  -1.676   9.482  0.00  0.00    +0.041 A 
ATOM     16  N   UNL     1       4.942  -3.030   9.565  0.00  0.00    -0.261 N 
ATOM     17  C   UNL     1       3.863  -3.375   8.832  0.00  0.00    +0.236 C 
ATOM     18  O   UNL     1       3.394  -4.488   8.717  0.00  0.00    -0.274 OA
ENDROOT
BRANCH   1  22
ATOM     19  C   UNL     1       0.731  -0.503   1.223  0.00  0.00    -0.047 A 
ATOM     20  C   UNL     1       2.098  -0.709   1.175  0.00  0.00    +0.006 A 
ATOM     21  C   UNL     1       2.768  -1.166   2.292  0.00  0.00    +0.028 A 
ATOM     22  C   UNL     1       2.069  -1.419   3.465  0.00  0.00    +0.068 A 
ATOM     23  C   UNL     1       0.697  -1.211   3.510  0.00  0.00    +0.028 A 
ATOM     24  C   UNL     1       0.033  -0.749   2.391  0.00  0.00    +0.006 A 
BRANCH  19  26
ATOM     25  C   UNL     1      -0.019   1.526   0.010  0.00  0.00    +0.009 C 
ATOM     26  C   UNL     1       0.002  -0.004   0.002  0.00  0.00    +0.032 C 
ENDBRANCH  19  26
ENDBRANCH   1  22
BRANCH   8  27
ATOM     27  O   UNL     1       0.321  -0.015   8.219  0.00  0.00    -0.495 OA
ATOM     28  H   UNL     1      -0.074   0.586   7.572  0.00  0.00    +0.293 HD
ENDBRANCH   8  27
BRANCH  16  29
ATOM     29  C   UNL     1       5.732  -3.977  10.356  0.00  0.00    +0.209 C 
BRANCH  29  30
ATOM     30  C   UNL     1       5.165  -4.064  11.749  0.00  0.00    +0.228 C 
ATOM     31  O   UNL     1       4.196  -3.401  12.052  0.00  0.00    -0.274 OA
ATOM     32  N   UNL     1       5.734  -4.880  12.659  0.00  0.00    -0.328 N 
ATOM     33  H   UNL     1       6.509  -5.411  12.417  0.00  0.00    +0.145 HD
ATOM     34  H   UNL     1       5.369  -4.936  13.556  0.00  0.00    +0.145 HD
ENDBRANCH  29  30
ENDBRANCH  16  29
TORSDOF 5
