REMARK  Name = ZINC09413056
REMARK  15 active torsions:
REMARK  status: ('A' for Active; 'I' for Inactive)
REMARK    1  A    between atoms: C_1  and  C_2
REMARK    2  A    between atoms: C_2  and  O_3
REMARK    3  A    between atoms: O_3  and  C_4
REMARK    4  A    between atoms: C_6  and  C_14
REMARK    5  A    between atoms: C_9  and  O_10
REMARK    6  A    between atoms: O_10  and  C_11
REMARK    7  A    between atoms: C_11  and  C_12
REMARK    8  A    between atoms: C_17  and  C_18
REMARK    9  A    between atoms: C_17  and  O_29
REMARK   10  A    between atoms: C_25  and  C_28
REMARK   11  A    between atoms: N_34  and  C_35
REMARK   12  A    between atoms: C_35  and  C_36
REMARK   13  A    between atoms: C_36  and  N_71
REMARK   14  A    between atoms: C_37  and  N_71
REMARK   15  A    between atoms: C_38  and  N_71
REMARK                            x       y       z     vdW  Elec       q    Type
REMARK                         _______ _______ _______ _____ _____    ______ ____
ROOT
ATOM      1  C   UNL     1      -1.741   3.349   7.165  0.00  0.00    +0.144 C 
ATOM      2  C   UNL     1      -1.964   3.032   5.705  0.00  0.00    +0.071 C 
ATOM      3  C   UNL     1      -1.080   2.406   4.846  0.00  0.00    +0.133 C 
ATOM      4  C   UNL     1      -3.247   3.507   5.394  0.00  0.00    +0.249 C 
ATOM      5  O   UNL     1      -3.788   3.441   4.305  0.00  0.00    -0.282 OA
ATOM      6  C   UNL     1      -3.832   4.102   6.625  0.00  0.00    +0.288 C 
ATOM      7  O   UNL     1      -4.937   4.601   6.699  0.00  0.00    -0.266 OA
ATOM      8  N   UNL     1      -2.959   4.011   7.642  0.00  0.00    -0.285 N 
ENDROOT
BRANCH   3   9
ATOM      9  C   UNL     1      -1.500   2.066   3.478  0.00  0.00    +0.017 A 
ATOM     10  C   UNL     1      -0.726   2.466   2.382  0.00  0.00    +0.015 A 
ATOM     11  C   UNL     1      -1.121   2.149   1.103  0.00  0.00    +0.046 A 
ATOM     12  C   UNL     1      -2.297   1.427   0.885  0.00  0.00    +0.124 A 
ATOM     13  C   UNL     1      -3.059   1.025   1.980  0.00  0.00    -0.002 A 
ATOM     14  C   UNL     1      -2.676   1.338   3.261  0.00  0.00    +0.019 A 
ATOM     15  C   UNL     1      -4.249   0.260   1.434  0.00  0.00    +0.083 C 
ATOM     16  C   UNL     1      -3.799  -0.036  -0.017  0.00  0.00    +0.175 C 
ATOM     17  O   UNL     1      -2.864   1.022  -0.283  0.00  0.00    -0.488 OA
ATOM     18  C   UNL     1      -3.113  -1.400  -0.104  0.00  0.00    +0.052 C 
ENDBRANCH   3   9
BRANCH   1  21
ATOM     19  C   UNL     1       1.752   4.609   7.860  0.00  0.00    +0.162 A 
ATOM     20  C   UNL     1       0.663   3.764   7.723  0.00  0.00    +0.055 A 
ATOM     21  C   UNL     1      -0.558   4.270   7.319  0.00  0.00    -0.019 A 
ATOM     22  C   UNL     1      -0.699   5.621   7.061  0.00  0.00    +0.009 A 
ATOM     23  C   UNL     1       0.383   6.470   7.200  0.00  0.00    +0.050 A 
ATOM     24  C   UNL     1       1.611   5.968   7.600  0.00  0.00    +0.162 A 
BRANCH  19  25
ATOM     25  O   UNL     1       2.955   4.111   8.253  0.00  0.00    -0.489 OA
BRANCH  25  27
ATOM     26  C   UNL     1       4.447   2.335   8.931  0.00  0.00    +0.048 C 
ATOM     27  C   UNL     1       3.026   2.706   8.503  0.00  0.00    +0.226 C 
ENDBRANCH  25  27
ENDBRANCH  19  25
BRANCH  24  28
ATOM     28  O   UNL     1       2.677   6.802   7.737  0.00  0.00    -0.484 OA
BRANCH  28  29
ATOM     29  C   UNL     1       2.458   8.186   7.452  0.00  0.00    +0.256 C 
BRANCH  29  30
ATOM     30  C   UNL     1       3.741   8.949   7.657  0.00  0.00    +0.006 C 
ATOM     31  C   UNL     1       4.126   9.834   6.771  0.00  0.00    +0.007 C 
ENDBRANCH  29  30
ENDBRANCH  28  29
ENDBRANCH  24  28
ENDBRANCH   1  21
BRANCH   3  32
ATOM     32  O   UNL     1       0.169   2.107   5.264  0.00  0.00    -0.506 OA
ATOM     33  H   UNL     1       0.670   1.661   4.523  0.00  0.00    +0.292 HD
ENDBRANCH   3  32
BRANCH   8  34
ATOM     34  C   UNL     1      -3.186   4.496   9.005  0.00  0.00    +0.090 C 
BRANCH  34  35
ATOM     35  C   UNL     1      -2.710   5.945   9.118  0.00  0.00    -0.060 C 
BRANCH  35  38
ATOM     36  C   UNL     1      -2.094   5.710  11.447  0.00  0.00    -0.097 C 
ATOM     37  C   UNL     1      -2.717   7.881  10.573  0.00  0.00    -0.097 C 
ATOM     38  N   UNL     1      -2.966   6.426  10.492  0.00  0.00    +0.377 N 
ATOM     39  H   UNL     1      -3.947   6.241  10.733  0.00  0.00    -0.083 HD
ENDBRANCH  35  38
ENDBRANCH  34  35
ENDBRANCH   8  34
TORSDOF 11
