REMARK  Name = ZINC39016564
REMARK  5 active torsions:
REMARK  status: ('A' for Active; 'I' for Inactive)
REMARK    1  A    between atoms: C_1  and  C_2
REMARK    2  A    between atoms: C_7  and  C_8
REMARK    3  A    between atoms: N_14  and  N_15
REMARK    4  A    between atoms: C_16  and  C_17
REMARK    5  A    between atoms: C_22  and  O_23
REMARK                            x       y       z     vdW  Elec       q    Type
REMARK                         _______ _______ _______ _____ _____    ______ ____
ROOT
ATOM      1  C   UNL     1       0.160  -0.109   2.572  0.00  0.00    +0.264 C 
ATOM      2  N   UNL     1      -0.814   0.990   2.662  0.00  0.00    -0.189 NA
ATOM      3  N   UNL     1      -1.598   0.733   3.580  0.00  0.00    -0.219 N 
ATOM      4  C   UNL     1      -1.330  -0.445   4.205  0.00  0.00    +0.174 C 
ATOM      5  S   UNL     1      -2.228  -1.086   5.514  0.00  0.00    -0.015 S 
ATOM      6  N   UNL     1      -0.249  -1.037   3.643  0.00  0.00    -0.172 N 
ATOM      7  H   UNL     1      -2.332   1.314   3.831  0.00  0.00    +0.176 HD
ENDROOT
BRANCH   1  14
ATOM      8  C   UNL     1       1.806   0.818   0.386  0.00  0.00    +0.044 C 
ATOM      9  C   UNL     1       0.862  -0.340   0.181  0.00  0.00    -0.044 A 
ATOM     10  C   UNL     1       0.788  -0.962  -1.052  0.00  0.00    +0.004 A 
ATOM     11  C   UNL     1      -0.077  -2.023  -1.239  0.00  0.00    +0.000 A 
ATOM     12  C   UNL     1      -0.868  -2.463  -0.194  0.00  0.00    +0.000 A 
ATOM     13  C   UNL     1      -0.793  -1.842   1.038  0.00  0.00    +0.008 A 
ATOM     14  C   UNL     1       0.075  -0.783   1.227  0.00  0.00    +0.001 A 
ENDBRANCH   1  14
BRANCH   6  15
ATOM     15  N   UNL     1       0.347  -2.254   3.997  0.00  0.00    -0.183 NA
ATOM     16  C   UNL     1       1.448  -2.631   3.419  0.00  0.00    +0.142 C 
BRANCH  16  17
ATOM     17  C   UNL     1       2.132  -3.856   3.866  0.00  0.00    +0.038 A 
ATOM     18  C   UNL     1       3.320  -4.262   3.251  0.00  0.00    +0.028 A 
ATOM     19  C   UNL     1       3.956  -5.410   3.675  0.00  0.00    +0.020 A 
ATOM     20  C   UNL     1       3.423  -6.164   4.708  0.00  0.00    +0.034 A 
ATOM     21  C   UNL     1       2.248  -5.773   5.324  0.00  0.00    +0.061 A 
ATOM     22  C   UNL     1       1.599  -4.619   4.914  0.00  0.00    +0.139 A 
ATOM     23 BR   UNL     1       1.530  -6.811   6.732  0.00  0.00    -0.046 Br
ATOM     24 BR   UNL     1       5.563  -5.958   2.841  0.00  0.00    -0.050 Br
BRANCH  22  25
ATOM     25  O   UNL     1       0.448  -4.231   5.523  0.00  0.00    -0.505 OA
ATOM     26  H   UNL     1      -0.352  -4.592   5.117  0.00  0.00    +0.292 HD
ENDBRANCH  22  25
ENDBRANCH  16  17
ENDBRANCH   6  15
TORSDOF 4
