REMARK  Name = ZINC13097204
REMARK  11 active torsions:
REMARK  status: ('A' for Active; 'I' for Inactive)
REMARK    1  A    between atoms: C_1  and  C_2
REMARK    2  A    between atoms: C_2  and  N_3
REMARK    3  A    between atoms: N_3  and  C_4
REMARK    4  A    between atoms: C_5  and  N_20
REMARK    5  A    between atoms: N_6  and  C_13
REMARK    6  A    between atoms: C_13  and  C_14
REMARK    7  A    between atoms: C_21  and  C_23
REMARK    8  A    between atoms: C_23  and  N_24
REMARK    9  A    between atoms: N_24  and  C_25
REMARK   10  A    between atoms: C_25  and  C_27
REMARK   11  A    between atoms: C_25  and  C_28
REMARK                            x       y       z     vdW  Elec       q    Type
REMARK                         _______ _______ _______ _____ _____    ______ ____
ROOT
ATOM      1  C   UNL     1       0.125  -0.665   2.412  0.00  0.00    +0.140 A 
ATOM      2  C   UNL     1      -0.874  -1.593   2.627  0.00  0.00    +0.128 A 
ATOM      3  N   UNL     1      -1.404  -1.728   3.889  0.00  0.00    -0.276 N 
ATOM      4  C   UNL     1      -0.955  -0.965   4.901  0.00  0.00    +0.331 A 
ATOM      5  O   UNL     1      -1.437  -1.099   6.010  0.00  0.00    -0.246 OA
ATOM      6  N   UNL     1       0.017  -0.056   4.711  0.00  0.00    -0.273 N 
ATOM      7  H   UNL     1       0.324   0.483   5.457  0.00  0.00    +0.173 HD
ATOM      8  C   UNL     1       0.575   0.113   3.495  0.00  0.00    +0.277 A 
ATOM      9  O   UNL     1       1.459   0.936   3.334  0.00  0.00    -0.266 OA
ENDROOT
BRANCH   1  10
ATOM     10  N   UNL     1       0.689  -0.502   1.129  0.00  0.00    -0.263 N 
ATOM     11  C   UNL     1       1.983  -0.822   0.915  0.00  0.00    +0.234 C 
ATOM     12  O   UNL     1       2.634  -1.339   1.799  0.00  0.00    -0.274 OA
BRANCH  10  14
ATOM     13  C   UNL     1      -0.119   1.543   0.059  0.00  0.00    +0.025 C 
ATOM     14  C   UNL     1      -0.129   0.013   0.029  0.00  0.00    +0.110 C 
ENDBRANCH  10  14
BRANCH  11  15
ATOM     15  C   UNL     1       2.619  -0.536  -0.420  0.00  0.00    +0.178 C 
BRANCH  15  16
ATOM     16  N   UNL     1       4.021  -0.973  -0.399  0.00  0.00    -0.302 NA
ATOM     17  H   UNL     1       4.525  -0.536   0.358  0.00  0.00    +0.123 HD
BRANCH  16  18
ATOM     18  C   UNL     1       4.675  -0.709  -1.688  0.00  0.00    +0.083 C 
ATOM     19  C   UNL     1       5.193   0.730  -1.712  0.00  0.00    +0.029 C 
BRANCH  18  20
ATOM     20  C   UNL     1       5.829  -1.661  -1.870  0.00  0.00    -0.012 A 
ATOM     21  C   UNL     1       6.378  -2.300  -0.773  0.00  0.00    +0.008 A 
ATOM     22  C   UNL     1       7.436  -3.173  -0.939  0.00  0.00    +0.020 A 
ATOM     23  C   UNL     1       7.946  -3.409  -2.204  0.00  0.00    +0.042 A 
ATOM     24  C   UNL     1       7.397  -2.771  -3.301  0.00  0.00    +0.040 A 
ATOM     25  C   UNL     1       6.335  -1.901  -3.135  0.00  0.00    +0.047 A 
ATOM     26 CL   UNL     1       5.641  -1.105  -4.512  0.00  0.00    -0.083 Cl
ATOM     27 CL   UNL     1       9.276  -4.506  -2.412  0.00  0.00    -0.083 Cl
ENDBRANCH  18  20
ENDBRANCH  16  18
ENDBRANCH  15  16
ENDBRANCH  11  15
ENDBRANCH   1  10
BRANCH   2  28
ATOM     28  N   UNL     1      -1.333  -2.373   1.593  0.00  0.00    -0.343 N 
ATOM     29  H   UNL     1      -1.003  -2.227   0.692  0.00  0.00    +0.144 HD
ATOM     30  H   UNL     1      -1.987  -3.068   1.763  0.00  0.00    +0.144 HD
ENDBRANCH   2  28
BRANCH   3  31
ATOM     31  C   UNL     1      -2.464  -2.709   4.131  0.00  0.00    +0.163 C 
BRANCH  31  32
ATOM     32  C   UNL     1      -1.849  -4.029   4.521  0.00  0.00    -0.028 A 
ATOM     33  C   UNL     1      -1.525  -4.955   3.547  0.00  0.00    +0.005 A 
ATOM     34  C   UNL     1      -0.961  -6.165   3.905  0.00  0.00    +0.000 A 
ATOM     35  C   UNL     1      -0.719  -6.449   5.236  0.00  0.00    +0.000 A 
ATOM     36  C   UNL     1      -1.041  -5.522   6.210  0.00  0.00    +0.000 A 
ATOM     37  C   UNL     1      -1.602  -4.310   5.852  0.00  0.00    +0.005 A 
ENDBRANCH  31  32
ENDBRANCH   3  31
TORSDOF 9
