REMARK  Name = ZINC57415823
REMARK  11 active torsions:
REMARK  status: ('A' for Active; 'I' for Inactive)
REMARK    1  A    between atoms: C_1  and  C_2
REMARK    2  A    between atoms: C_2  and  O_3
REMARK    3  A    between atoms: O_3  and  C_4
REMARK    4  A    between atoms: C_9  and  C_10
REMARK    5  A    between atoms: C_12  and  C_31
REMARK    6  A    between atoms: C_13  and  C_18
REMARK    7  A    between atoms: C_18  and  N_19
REMARK    8  A    between atoms: C_22  and  N_25
REMARK    9  A    between atoms: C_31  and  O_33
REMARK   10  A    between atoms: O_33  and  C_34
REMARK   11  A    between atoms: C_34  and  C_35
REMARK                            x       y       z     vdW  Elec       q    Type
REMARK                         _______ _______ _______ _____ _____    ______ ____
ROOT
ATOM      1  C   UNL     1      -3.935  -1.844   0.054  0.00  0.00    +0.147 C 
ATOM      2  C   UNL     1      -4.083  -1.156  -1.288  0.00  0.00    +0.079 C 
ATOM      3  C   UNL     1      -5.304  -1.161  -1.865  0.00  0.00    +0.038 C 
ATOM      4  N   UNL     1      -6.368  -1.765  -1.259  0.00  0.00    -0.271 N 
ATOM      5  C   UNL     1      -6.293  -2.387  -0.075  0.00  0.00    +0.304 C 
ATOM      6  O   UNL     1      -7.296  -2.897   0.385  0.00  0.00    -0.252 OA
ATOM      7  N   UNL     1      -5.143  -2.466   0.621  0.00  0.00    -0.288 N 
ATOM      8  H   UNL     1      -7.226  -1.743  -1.711  0.00  0.00    +0.156 HD
ATOM      9  H   UNL     1      -5.112  -2.923   1.477  0.00  0.00    +0.151 HD
ENDROOT
BRANCH   1  15
ATOM     10  C   UNL     1      -1.539  -2.580  -0.024  0.00  0.00    +0.126 A 
ATOM     11  C   UNL     1      -0.574  -3.569  -0.149  0.00  0.00    +0.046 A 
ATOM     12  C   UNL     1      -0.954  -4.883  -0.340  0.00  0.00    +0.004 A 
ATOM     13  C   UNL     1      -2.295  -5.214  -0.408  0.00  0.00    +0.001 A 
ATOM     14  C   UNL     1      -3.258  -4.230  -0.284  0.00  0.00    +0.009 A 
ATOM     15  C   UNL     1      -2.884  -2.915  -0.087  0.00  0.00    +0.019 A 
BRANCH  10  16
ATOM     16  O   UNL     1      -1.168  -1.287   0.165  0.00  0.00    -0.492 OA
BRANCH  16  18
ATOM     17  C   UNL     1       0.458   0.473   0.483  0.00  0.00    +0.048 C 
ATOM     18  C   UNL     1       0.234  -1.009   0.174  0.00  0.00    +0.225 C 
ENDBRANCH  16  18
ENDBRANCH  10  16
ENDBRANCH   1  15
BRANCH   2  19
ATOM     19  C   UNL     1      -2.980  -0.529  -1.914  0.00  0.00    +0.339 C 
ATOM     20  O   UNL     1      -2.625   0.578  -1.556  0.00  0.00    -0.245 OA
BRANCH  19  21
ATOM     21  O   UNL     1      -2.321  -1.160  -2.909  0.00  0.00    -0.462 OA
BRANCH  21  22
ATOM     22  C   UNL     1      -1.171  -0.503  -3.444  0.00  0.00    +0.229 C 
ATOM     23  C   UNL     1      -0.629  -1.306  -4.628  0.00  0.00    +0.048 C 
ENDBRANCH  21  22
ENDBRANCH  19  21
ENDBRANCH   2  19
BRANCH   3  24
ATOM     24  C   UNL     1      -5.495  -0.487  -3.199  0.00  0.00    +0.135 C 
BRANCH  24  25
ATOM     25  N   UNL     1      -5.876  -1.489  -4.204  0.00  0.00    -0.297 NA
ATOM     26  C   UNL     1      -4.782  -2.439  -4.440  0.00  0.00    +0.083 C 
ATOM     27  C   UNL     1      -5.262  -3.549  -5.378  0.00  0.00    +0.000 C 
ATOM     28  C   UNL     1      -5.720  -2.929  -6.702  0.00  0.00    -0.066 C 
ATOM     29  C   UNL     1      -6.826  -1.908  -6.422  0.00  0.00    +0.000 C 
ATOM     30  C   UNL     1      -6.301  -0.846  -5.454  0.00  0.00    +0.083 C 
BRANCH  28  31
ATOM     31  N   UNL     1      -6.237  -3.983  -7.585  0.00  0.00    +0.382 N 
ATOM     32  C   UNL     1      -5.179  -4.970  -7.837  0.00  0.00    -0.078 C 
ATOM     33  C   UNL     1      -5.735  -6.112  -8.690  0.00  0.00    -0.019 C 
ATOM     34  C   UNL     1      -6.239  -5.549 -10.022  0.00  0.00    -0.004 C 
ATOM     35  C   UNL     1      -7.288  -4.468  -9.744  0.00  0.00    -0.019 C 
ATOM     36  C   UNL     1      -6.674  -3.387  -8.852  0.00  0.00    -0.078 C 
ATOM     37  H   UNL     1      -7.019  -4.439  -7.140  0.00  0.00    -0.081 HD
ENDBRANCH  28  31
ENDBRANCH  24  25
ENDBRANCH   3  24
TORSDOF 9
