REMARK  Name = ZINC08918179
REMARK  13 active torsions:
REMARK  status: ('A' for Active; 'I' for Inactive)
REMARK    1  A    between atoms: C_1  and  C_2
REMARK    2  A    between atoms: C_2  and  C_4
REMARK    3  A    between atoms: C_2  and  C_5
REMARK    4  A    between atoms: C_5  and  C_7
REMARK    5  A    between atoms: C_5  and  N_19
REMARK    6  A    between atoms: N_9  and  C_10
REMARK    7  A    between atoms: C_10  and  C_12
REMARK    8  A    between atoms: C_10  and  C_13
REMARK    9  A    between atoms: C_20  and  C_22
REMARK   10  A    between atoms: C_28  and  C_30
REMARK   11  A    between atoms: C_30  and  C_32
REMARK   12  A    between atoms: C_30  and  N_73
REMARK   13  A    between atoms: C_32  and  C_33
REMARK                            x       y       z     vdW  Elec       q    Type
REMARK                         _______ _______ _______ _____ _____    ______ ____
ROOT
ATOM      1  N   UNL     1      -8.396   3.987  -1.625  0.00  0.00    -0.304 N 
ATOM      2  C   UNL     1      -8.176   2.739  -1.165  0.00  0.00    +0.217 C 
ATOM      3  O   UNL     1      -8.661   1.787  -1.738  0.00  0.00    -0.275 OA
ATOM      4  H   UNL     1      -8.008   4.748  -1.166  0.00  0.00    +0.149 HD
ENDROOT
BRANCH   2   5
ATOM      5  C   UNL     1      -7.327   2.528   0.062  0.00  0.00    +0.078 C 
ATOM      6  C   UNL     1      -7.237   1.031   0.367  0.00  0.00    +0.032 C 
ATOM      7  C   UNL     1      -6.402   0.822   1.635  0.00  0.00    +0.108 C 
ATOM      8  N   UNL     1      -5.101   1.481   1.458  0.00  0.00    -0.303 N 
ATOM      9  C   UNL     1      -5.074   2.901   1.079  0.00  0.00    +0.108 C 
ATOM     10  C   UNL     1      -5.923   3.085  -0.187  0.00  0.00    +0.032 C 
ATOM     11  C   UNL     1      -3.954   0.798   1.645  0.00  0.00    +0.201 C 
ATOM     12  O   UNL     1      -3.990  -0.372   1.962  0.00  0.00    -0.277 OA
BRANCH  11  13
ATOM     13  C   UNL     1      -2.627   1.489   1.460  0.00  0.00    +0.017 C 
BRANCH  13  16
ATOM     14  H   UNL     1      -1.509  -0.207   1.794  0.00  0.00    -0.089 HD
ATOM     15  H   UNL     1      -0.692   1.208   2.103  0.00  0.00    -0.089 HD
ATOM     16  N   UNL     1      -1.589   0.732   2.181  0.00  0.00    +0.386 N 
ATOM     17  H   UNL     1      -1.847   0.665   3.172  0.00  0.00    -0.089 HD
ENDBRANCH  13  16
BRANCH  13  18
ATOM     18  C   UNL     1      -2.295   1.563  -0.032  0.00  0.00    +0.028 C 
BRANCH  18  19
ATOM     19  C   UNL     1      -1.031   2.361  -0.226  0.00  0.00    -0.048 A 
ATOM     20  C   UNL     1       0.196   1.723  -0.221  0.00  0.00    +0.003 A 
ATOM     21  C   UNL     1       1.355   2.454  -0.404  0.00  0.00    +0.000 A 
ATOM     22  C   UNL     1       1.288   3.822  -0.587  0.00  0.00    +0.000 A 
ATOM     23  C   UNL     1       0.062   4.460  -0.587  0.00  0.00    +0.000 A 
ATOM     24  C   UNL     1      -1.097   3.730  -0.404  0.00  0.00    +0.003 A 
ENDBRANCH  18  19
ENDBRANCH  13  18
ENDBRANCH  11  13
ENDBRANCH   2   5
BRANCH   1  25
ATOM     25  C   UNL     1      -9.222   4.193  -2.818  0.00  0.00    +0.161 C 
BRANCH  25  26
ATOM     26  C   UNL     1      -8.840   5.494  -3.475  0.00  0.00    +0.234 C 
ATOM     27  O   UNL     1      -8.364   6.391  -2.812  0.00  0.00    -0.274 OA
ATOM     28  N   UNL     1      -9.027   5.661  -4.799  0.00  0.00    -0.307 N 
ATOM     29  H   UNL     1      -9.473   4.972  -5.316  0.00  0.00    +0.149 HD
BRANCH  28  30
ATOM     30  C   UNL     1      -8.556   6.882  -5.457  0.00  0.00    +0.100 C 
ATOM     31  C   UNL     1      -7.082   6.723  -5.834  0.00  0.00    +0.033 C 
BRANCH  30  32
ATOM     32  C   UNL     1      -9.369   7.127  -6.702  0.00  0.00    -0.027 A 
ATOM     33  C   UNL     1      -9.722   6.067  -7.517  0.00  0.00    +0.005 A 
ATOM     34  C   UNL     1     -10.471   6.292  -8.656  0.00  0.00    +0.000 A 
ATOM     35  C   UNL     1     -10.860   7.576  -8.987  0.00  0.00    +0.000 A 
ATOM     36  C   UNL     1     -10.503   8.637  -8.174  0.00  0.00    +0.000 A 
ATOM     37  C   UNL     1      -9.757   8.412  -7.032  0.00  0.00    +0.005 A 
ENDBRANCH  30  32
ENDBRANCH  28  30
ENDBRANCH  25  26
BRANCH  25  39
ATOM     38  C   UNL     1     -11.566   4.327  -3.671  0.00  0.00    +0.009 C 
ATOM     39  C   UNL     1     -10.697   4.238  -2.415  0.00  0.00    +0.012 C 
ATOM     40  C   UNL     1     -10.948   5.464  -1.534  0.00  0.00    +0.009 C 
ENDBRANCH  25  39
ENDBRANCH   1  25
TORSDOF 10
