REMARK  Name = ZINC12497834
REMARK  8 active torsions:
REMARK  status: ('A' for Active; 'I' for Inactive)
REMARK    1  A    between atoms: C_1  and  C_2
REMARK    2  A    between atoms: C_2  and  C_4
REMARK    3  A    between atoms: C_2  and  O_22
REMARK    4  A    between atoms: N_6  and  C_7
REMARK    5  A    between atoms: C_7  and  N_9
REMARK    6  A    between atoms: N_9  and  C_10
REMARK    7  A    between atoms: C_11  and  C_19
REMARK    8  A    between atoms: O_22  and  C_23
REMARK                            x       y       z     vdW  Elec       q    Type
REMARK                         _______ _______ _______ _____ _____    ______ ____
ROOT
ATOM      1  C   UNL     1      -1.717   2.194   5.956  0.00  0.00    +0.141 C 
ATOM      2  S   UNL     1      -2.523   3.638   5.515  0.00  0.00    -0.018 S 
ENDROOT
BRANCH   1   5
ATOM      3  C   UNL     1      -2.677   2.306   8.080  0.00  0.00    +0.259 C 
ATOM      4  O   UNL     1      -3.249   3.329   7.768  0.00  0.00    -0.271 OA
ATOM      5  N   UNL     1      -1.879   1.681   7.192  0.00  0.00    -0.265 N 
ATOM      6  H   UNL     1      -1.422   0.863   7.441  0.00  0.00    +0.157 HD
BRANCH   3   8
ATOM      7  C   UNL     1      -1.527   1.778  10.213  0.00  0.00    +0.062 C 
ATOM      8  C   UNL     1      -2.859   1.733   9.462  0.00  0.00    +0.256 C 
BRANCH   8   9
ATOM      9  O   UNL     1      -3.832   2.502  10.172  0.00  0.00    -0.478 OA
BRANCH   9  10
ATOM     10  C   UNL     1      -4.497   1.877  11.180  0.00  0.00    +0.140 A 
ATOM     11  C   UNL     1      -4.142   0.589  11.553  0.00  0.00    +0.048 A 
ATOM     12  C   UNL     1      -4.816  -0.043  12.580  0.00  0.00    +0.023 A 
ATOM     13  C   UNL     1      -5.851   0.604  13.230  0.00  0.00    +0.043 A 
ATOM     14  C   UNL     1      -6.212   1.886  12.857  0.00  0.00    +0.043 A 
ATOM     15  C   UNL     1      -5.537   2.524  11.833  0.00  0.00    +0.084 A 
ATOM     16 CL   UNL     1      -5.989   4.133  11.364  0.00  0.00    -0.080 Cl
ATOM     17 CL   UNL     1      -6.700  -0.196  14.517  0.00  0.00    -0.083 Cl
ENDBRANCH   9  10
ENDBRANCH   8   9
ENDBRANCH   3   8
ENDBRANCH   1   5
BRANCH   1  18
ATOM     18  N   UNL     1      -0.919   1.569   5.067  0.00  0.00    -0.291 N 
ATOM     19  H   UNL     1      -0.462   0.751   5.317  0.00  0.00    +0.154 HD
BRANCH  18  20
ATOM     20  C   UNL     1      -0.752   2.096   3.796  0.00  0.00    +0.084 A 
ATOM     21  C   UNL     1       0.020   1.603   2.753  0.00  0.00    +0.068 A 
ATOM     22  C   UNL     1       0.026   2.352   1.510  0.00  0.00    -0.023 A 
ATOM     23  C   UNL     1      -0.740   3.467   1.506  0.00  0.00    -0.004 A 
ATOM     24  S   UNL     1      -1.455   3.530   3.124  0.00  0.00    -0.077 S 
ATOM     25  C   UNL     1      -0.929   4.430   0.374  0.00  0.00    +0.043 C 
ATOM     26  C   UNL     1       0.167   4.171  -0.669  0.00  0.00    +0.005 C 
ATOM     27  C   UNL     1       0.241   2.667  -0.945  0.00  0.00    +0.005 C 
ATOM     28  C   UNL     1       0.817   1.943   0.274  0.00  0.00    +0.037 C 
BRANCH  21  29
ATOM     29  C   UNL     1       0.802   0.373   2.901  0.00  0.00    +0.244 C 
ATOM     30  O   UNL     1       0.305  -0.702   2.622  0.00  0.00    -0.270 OA
ATOM     31  N   UNL     1       2.073   0.432   3.347  0.00  0.00    -0.325 N 
ATOM     32  H   UNL     1       2.470   1.288   3.570  0.00  0.00    +0.145 HD
ATOM     33  H   UNL     1       2.591  -0.383   3.446  0.00  0.00    +0.145 HD
ENDBRANCH  21  29
ENDBRANCH  18  20
ENDBRANCH   1  18
TORSDOF 7
