REMARK  Name = ZINC58144030
REMARK  10 active torsions:
REMARK  status: ('A' for Active; 'I' for Inactive)
REMARK    1  A    between atoms: C_1  and  C_2
REMARK    2  A    between atoms: C_5  and  C_33
REMARK    3  A    between atoms: N_8  and  C_10
REMARK    4  A    between atoms: C_10  and  C_11
REMARK    5  A    between atoms: C_16  and  C_17
REMARK    6  A    between atoms: C_17  and  N_18
REMARK    7  A    between atoms: C_19  and  C_21
REMARK    8  A    between atoms: C_21  and  N_22
REMARK    9  A    between atoms: C_25  and  C_29
REMARK   10  A    between atoms: C_25  and  C_30
REMARK                            x       y       z     vdW  Elec       q    Type
REMARK                         _______ _______ _______ _____ _____    ______ ____
ROOT
ATOM      1  C   UNL     1       2.126   0.235   3.241  0.00  0.00    +0.139 C 
ENDROOT
BRANCH   1   7
ATOM      2  C   UNL     1       2.525  -2.034   2.264  0.00  0.00    -0.059 A 
ATOM      3  C   UNL     1       3.350  -2.976   1.679  0.00  0.00    +0.002 A 
ATOM      4  C   UNL     1       4.680  -2.680   1.445  0.00  0.00    +0.000 A 
ATOM      5  C   UNL     1       5.184  -1.441   1.795  0.00  0.00    +0.000 A 
ATOM      6  C   UNL     1       4.359  -0.499   2.379  0.00  0.00    +0.005 A 
ATOM      7  C   UNL     1       3.028  -0.794   2.609  0.00  0.00    -0.029 A 
BRANCH   2   8
ATOM      8  C   UNL     1       1.075  -2.357   2.519  0.00  0.00    -0.043 C 
BRANCH   8  14
ATOM      9  C   UNL     1       2.254  -5.717   5.878  0.00  0.00    +0.005 C 
ATOM     10  C   UNL     1       1.510  -4.403   5.635  0.00  0.00    -0.031 C 
ATOM     11  C   UNL     1       0.034  -4.575   6.005  0.00  0.00    +0.003 C 
ATOM     12  C   UNL     1      -0.717  -3.280   5.685  0.00  0.00    -0.031 C 
ATOM     13  C   UNL     1      -0.526  -2.938   4.205  0.00  0.00    -0.075 C 
ATOM     14  N   UNL     1       0.903  -2.760   3.921  0.00  0.00    +0.383 N 
ATOM     15  C   UNL     1       1.619  -4.019   4.158  0.00  0.00    -0.075 C 
ATOM     16  C   UNL     1      -2.207  -3.466   5.979  0.00  0.00    +0.005 C 
ATOM     17  H   UNL     1       1.278  -2.043   4.524  0.00  0.00    -0.081 HD
ENDBRANCH   8  14
ENDBRANCH   2   8
ENDBRANCH   1   7
BRANCH   1  18
ATOM     18  N   UNL     1       2.001  -0.039   4.675  0.00  0.00    -0.310 N 
ATOM     19  C   UNL     1       1.155   0.690   5.429  0.00  0.00    +0.231 C 
ATOM     20  O   UNL     1       0.498   1.574   4.921  0.00  0.00    -0.274 OA
ATOM     21  H   UNL     1       2.526  -0.746   5.081  0.00  0.00    +0.149 HD
BRANCH  19  22
ATOM     22  C   UNL     1       1.026   0.407   6.904  0.00  0.00    +0.213 C 
BRANCH  22  23
ATOM     23  N   UNL     1       0.052   1.328   7.494  0.00  0.00    -0.215 N 
ATOM     24  C   UNL     1       0.364   2.535   8.006  0.00  0.00    +0.247 C 
ATOM     25  O   UNL     1       1.463   3.044   8.062  0.00  0.00    -0.273 OA
ATOM     26  C   UNL     1      -0.944   3.124   8.495  0.00  0.00    +0.113 C 
ATOM     27  N   UNL     1      -1.935   2.083   8.172  0.00  0.00    -0.285 N 
ATOM     28  C   UNL     1      -1.259   1.078   7.587  0.00  0.00    +0.310 C 
ATOM     29  O   UNL     1      -1.781   0.055   7.189  0.00  0.00    -0.252 OA
ATOM     30  C   UNL     1      -0.892   3.369  10.005  0.00  0.00    +0.042 C 
ATOM     31  H   UNL     1      -2.888   2.117   8.345  0.00  0.00    +0.151 HD
BRANCH  26  32
ATOM     32  C   UNL     1      -1.262   4.421   7.749  0.00  0.00    +0.021 C 
ATOM     33  C   UNL     1      -1.088   5.736   8.511  0.00  0.00    +0.006 C 
ATOM     34  C   UNL     1      -2.492   5.212   8.200  0.00  0.00    +0.006 C 
ENDBRANCH  26  32
ENDBRANCH  22  23
ENDBRANCH  19  22
ENDBRANCH   1  18
TORSDOF 7
