REMARK  Name = ZINC13625602
REMARK  8 active torsions:
REMARK  status: ('A' for Active; 'I' for Inactive)
REMARK    1  A    between atoms: C_1  and  O_2
REMARK    2  A    between atoms: O_2  and  C_3
REMARK    3  A    between atoms: C_6  and  C_11
REMARK    4  A    between atoms: C_8  and  O_9
REMARK    5  A    between atoms: O_9  and  C_10
REMARK    6  A    between atoms: C_11  and  C_12
REMARK    7  A    between atoms: C_12  and  N_13
REMARK    8  A    between atoms: C_16  and  C_23
REMARK                            x       y       z     vdW  Elec       q    Type
REMARK                         _______ _______ _______ _____ _____    ______ ____
ROOT
ATOM      1  N   UNL     1      -6.747  -3.541  -1.396  0.00  0.00    -0.260 N 
ATOM      2  C   UNL     1      -6.797  -4.888  -1.391  0.00  0.00    +0.262 A 
ATOM      3  O   UNL     1      -5.767  -5.540  -1.394  0.00  0.00    -0.267 OA
ATOM      4  C   UNL     1      -8.045  -5.536  -1.382  0.00  0.00    +0.073 A 
ATOM      5  C   UNL     1      -9.182  -4.783  -1.379  0.00  0.00    +0.260 A 
ATOM      6  N   UNL     1      -9.086  -3.415  -1.383  0.00  0.00    -0.275 N 
ATOM      7  H   UNL     1      -9.892  -2.875  -1.380  0.00  0.00    +0.173 HD
ATOM      8  C   UNL     1      -7.880  -2.816  -1.387  0.00  0.00    +0.332 A 
ATOM      9  O   UNL     1      -7.815  -1.602  -1.386  0.00  0.00    -0.246 OA
ATOM     10  O   UNL     1     -10.393  -5.380  -1.371  0.00  0.00    -0.267 OA
ENDROOT
BRANCH   4  11
ATOM     11  C   UNL     1      -8.125  -7.041  -1.378  0.00  0.00    +0.018 C 
ATOM     12  C   UNL     1      -7.551  -7.583  -2.665  0.00  0.00    +0.011 A 
ATOM     13  C   UNL     1      -6.737  -8.662  -2.710  0.00  0.00    -0.022 A 
ATOM     14  C   UNL     1      -6.389  -8.879  -4.096  0.00  0.00    +0.004 A 
ATOM     15  C   UNL     1      -5.589  -9.829  -4.739  0.00  0.00    +0.030 A 
ATOM     16  C   UNL     1      -5.481  -9.729  -6.105  0.00  0.00    +0.042 A 
ATOM     17  C   UNL     1      -6.130  -8.737  -6.824  0.00  0.00    +0.022 A 
ATOM     18  C   UNL     1      -6.927  -7.785  -6.213  0.00  0.00    +0.027 A 
ATOM     19  C   UNL     1      -7.055  -7.862  -4.828  0.00  0.00    +0.047 A 
ATOM     20  N   UNL     1      -7.747  -7.099  -3.930  0.00  0.00    -0.359 N 
ATOM     21  H   UNL     1      -8.296  -6.332  -4.155  0.00  0.00    +0.166 HD
ATOM     22 CL   UNL     1      -4.501 -10.881  -6.957  0.00  0.00    -0.084 Cl
ATOM     23  C   UNL     1      -6.324  -9.437  -1.483  0.00  0.00    +0.018 C 
ATOM     24  C   UNL     1      -7.264  -9.038  -0.337  0.00  0.00    -0.076 C 
ATOM     25  N   UNL     1      -7.344  -7.573  -0.250  0.00  0.00    +0.388 N 
ATOM     26  H   UNL     1      -6.412  -7.187  -0.277  0.00  0.00    -0.084 HD
ATOM     27  H   UNL     1      -7.788  -7.311   0.617  0.00  0.00    -0.084 HD
ENDBRANCH   4  11
BRANCH   1  28
ATOM     28  C   UNL     1      -5.449  -2.862  -1.404  0.00  0.00    +0.134 C 
BRANCH  28  29
ATOM     29  C   UNL     1      -4.987  -2.627   0.035  0.00  0.00    +0.057 C 
BRANCH  29  33
ATOM     30  C   UNL     1      -1.201  -0.638   0.010  0.00  0.00    +0.161 A 
ATOM     31  C   UNL     1      -2.374   0.099   0.019  0.00  0.00    +0.049 A 
ATOM     32  C   UNL     1      -3.596  -0.546   0.027  0.00  0.00    +0.007 A 
ATOM     33  C   UNL     1      -3.652  -1.928   0.026  0.00  0.00    -0.042 A 
ATOM     34  C   UNL     1      -2.485  -2.669   0.017  0.00  0.00    +0.053 A 
ATOM     35  C   UNL     1      -1.257  -2.028   0.003  0.00  0.00    +0.162 A 
BRANCH  30  37
ATOM     36  C   UNL     1      -0.017   1.425   0.010  0.00  0.00    +0.277 C 
ATOM     37  O   UNL     1       0.002  -0.004   0.002  0.00  0.00    -0.491 OA
ENDBRANCH  30  37
BRANCH  35  38
ATOM     38  O   UNL     1      -0.108  -2.756  -0.012  0.00  0.00    -0.491 OA
ATOM     39  C   UNL     1      -0.242  -4.179  -0.018  0.00  0.00    +0.277 C 
ENDBRANCH  35  38
ENDBRANCH  29  33
ENDBRANCH  28  29
ENDBRANCH   1  28
TORSDOF 6
