REMARK  Name = ZINC63641393
REMARK  16 active torsions:
REMARK  status: ('A' for Active; 'I' for Inactive)
REMARK    1  A    between atoms: C_1  and  C_2
REMARK    2  A    between atoms: C_2  and  O_3
REMARK    3  A    between atoms: O_3  and  C_4
REMARK    4  A    between atoms: C_4  and  C_6
REMARK    5  A    between atoms: C_8  and  C_37
REMARK    6  A    between atoms: N_11  and  C_12
REMARK    7  A    between atoms: C_12  and  C_14
REMARK    8  A    between atoms: C_14  and  S_15
REMARK    9  A    between atoms: S_15  and  C_16
REMARK   10  A    between atoms: C_20  and  C_26
REMARK   11  A    between atoms: N_22  and  C_23
REMARK   12  A    between atoms: C_23  and  C_24
REMARK   13  A    between atoms: C_26  and  S_27
REMARK   14  A    between atoms: S_27  and  C_28
REMARK   15  A    between atoms: C_30  and  C_35
REMARK   16  A    between atoms: C_32  and  C_34
REMARK                            x       y       z     vdW  Elec       q    Type
REMARK                         _______ _______ _______ _____ _____    ______ ____
ROOT
ATOM      1  C   UNL     1       0.250 -10.853   5.705  0.00  0.00    +0.259 C 
ATOM      2  N   UNL     1      -1.202 -10.871   5.484  0.00  0.00    -0.160 NA
ATOM      3  N   UNL     1      -1.816 -10.917   6.554  0.00  0.00    -0.170 NA
ATOM      4  C   UNL     1      -0.893 -10.940   7.696  0.00  0.00    +0.210 C 
ATOM      5  N   UNL     1       0.413 -10.501   7.138  0.00  0.00    -0.243 NA
ENDROOT
BRANCH   1   6
ATOM      6  S   UNL     1       1.034  -9.600   4.654  0.00  0.00    -0.108 S 
BRANCH   6   7
ATOM      7  C   UNL     1       0.193  -8.058   5.106  0.00  0.00    +0.170 C 
BRANCH   7   8
ATOM      8  C   UNL     1       0.757  -6.921   4.294  0.00  0.00    +0.248 C 
ATOM      9  O   UNL     1       1.642  -7.130   3.488  0.00  0.00    -0.273 OA
BRANCH   8  14
ATOM     10  C   UNL     1       1.516  -2.381   2.500  0.00  0.00    +0.206 C 
ATOM     11  C   UNL     1       2.183  -3.708   2.165  0.00  0.00    +0.043 C 
ATOM     12  N   UNL     1       1.766  -4.722   2.805  0.00  0.00    -0.232 NA
ATOM     13  C   UNL     1       0.784  -4.684   3.745  0.00  0.00    +0.181 C 
ATOM     14  N   UNL     1       0.287  -5.686   4.460  0.00  0.00    -0.154 NA
ATOM     15  S   UNL     1       0.326  -2.953   3.785  0.00  0.00    -0.068 S 
ATOM     16  C   UNL     1       3.277  -3.812   1.133  0.00  0.00    +0.062 C 
BRANCH  10  17
ATOM     17  C   UNL     1       0.801  -1.808   1.304  0.00  0.00    +0.326 C 
ATOM     18  O   UNL     1       0.324  -2.546   0.475  0.00  0.00    -0.249 OA
BRANCH  17  19
ATOM     19  O   UNL     1       0.693  -0.477   1.160  0.00  0.00    -0.464 OA
BRANCH  19  21
ATOM     20  C   UNL     1      -0.019   1.526   0.010  0.00  0.00    +0.048 C 
ATOM     21  C   UNL     1       0.002  -0.004   0.002  0.00  0.00    +0.229 C 
ENDBRANCH  19  21
ENDBRANCH  17  19
ENDBRANCH  10  17
ENDBRANCH   8  14
ENDBRANCH   7   8
ENDBRANCH   6   7
ENDBRANCH   1   6
BRANCH   5  22
ATOM     22  C   UNL     1       1.524 -11.248   7.742  0.00  0.00    +0.116 C 
BRANCH  22  23
ATOM     23  C   UNL     1       2.830 -10.745   7.183  0.00  0.00    -0.019 C 
ATOM     24  C   UNL     1       3.771 -10.327   7.994  0.00  0.00    +0.005 C 
ENDBRANCH  22  23
ENDBRANCH   5  22
BRANCH   4  25
ATOM     25  C   UNL     1      -1.366  -9.972   8.782  0.00  0.00    +0.122 C 
BRANCH  25  26
ATOM     26  S   UNL     1      -1.470  -8.296   8.095  0.00  0.00    -0.083 S 
BRANCH  26  27
ATOM     27  C   UNL     1      -2.020  -7.313   9.449  0.00  0.00    +0.189 A 
ATOM     28  N   UNL     1      -2.238  -7.891  10.622  0.00  0.00    -0.227 NA
ATOM     29  C   UNL     1      -2.651  -7.181  11.659  0.00  0.00    +0.043 A 
ATOM     30  C   UNL     1      -2.854  -5.818  11.508  0.00  0.00    +0.046 A 
ATOM     31  C   UNL     1      -2.617  -5.246  10.268  0.00  0.00    +0.043 A 
ATOM     32  N   UNL     1      -2.200  -6.011   9.273  0.00  0.00    -0.227 NA
ATOM     33  C   UNL     1      -2.825  -3.768  10.058  0.00  0.00    +0.066 C 
ATOM     34  C   UNL     1      -2.897  -7.846  12.989  0.00  0.00    +0.066 C 
ENDBRANCH  26  27
ENDBRANCH  25  26
ENDBRANCH   4  25
TORSDOF 12
