REMARK  Name = ZINC67455251
REMARK  8 active torsions:
REMARK  status: ('A' for Active; 'I' for Inactive)
REMARK    1  A    between atoms: C_6  and  C_11
REMARK    2  A    between atoms: C_11  and  C_13
REMARK    3  A    between atoms: C_11  and  O_31
REMARK    4  A    between atoms: C_13  and  N_14
REMARK    5  A    between atoms: N_17  and  C_18
REMARK    6  A    between atoms: C_18  and  C_19
REMARK    7  A    between atoms: C_19  and  C_21
REMARK    8  A    between atoms: C_19  and  N_26
REMARK                            x       y       z     vdW  Elec       q    Type
REMARK                         _______ _______ _______ _____ _____    ______ ____
ROOT
ATOM      1  N   UNL     1       6.638  -3.868   1.344  0.00  0.00    -0.297 N 
ATOM      2  C   UNL     1       7.109  -4.465   2.457  0.00  0.00    +0.300 C 
ATOM      3  O   UNL     1       6.378  -4.632   3.414  0.00  0.00    -0.253 OA
ATOM      4  N   UNL     1       8.391  -4.878   2.508  0.00  0.00    -0.301 N 
ATOM      5  H   UNL     1       7.221  -3.736   0.581  0.00  0.00    +0.150 HD
ATOM      6  H   UNL     1       8.974  -4.746   1.745  0.00  0.00    +0.150 HD
ENDROOT
BRANCH   1   7
ATOM      7  C   UNL     1       5.244  -3.419   1.288  0.00  0.00    +0.141 C 
BRANCH   7   8
ATOM      8  C   UNL     1       4.969  -2.780  -0.074  0.00  0.00    +0.162 C 
BRANCH   8  14
ATOM      9  C   UNL     1      -0.488   0.672   0.059  0.00  0.00    +0.001 A 
ATOM     10  C   UNL     1       0.598   1.519   0.271  0.00  0.00    +0.001 A 
ATOM     11  C   UNL     1       1.870   1.035   0.290  0.00  0.00    +0.008 A 
ATOM     12  C   UNL     1       2.095  -0.338   0.093  0.00  0.00    -0.018 A 
ATOM     13  C   UNL     1       3.394  -0.874   0.106  0.00  0.00    +0.014 A 
ATOM     14  C   UNL     1       3.574  -2.209  -0.088  0.00  0.00    -0.017 A 
ATOM     15  C   UNL     1       2.488  -3.056  -0.300  0.00  0.00    +0.007 A 
ATOM     16  C   UNL     1       1.216  -2.572  -0.319  0.00  0.00    +0.009 A 
ATOM     17  C   UNL     1       0.991  -1.199  -0.123  0.00  0.00    -0.018 A 
ATOM     18  C   UNL     1      -0.308  -0.663  -0.136  0.00  0.00    +0.008 A 
ENDBRANCH   8  14
BRANCH   8  19
ATOM     19  O   UNL     1       5.088  -3.770  -1.098  0.00  0.00    -0.386 OA
ATOM     20  H   UNL     1       4.475  -4.512  -1.001  0.00  0.00    +0.210 HD
ENDBRANCH   8  19
ENDBRANCH   7   8
ENDBRANCH   1   7
BRANCH   4  21
ATOM     21  C   UNL     1       8.903  -5.528   3.717  0.00  0.00    +0.098 C 
BRANCH  21  22
ATOM     22  C   UNL     1      10.332  -6.014   3.468  0.00  0.00    +0.016 C 
BRANCH  22  23
ATOM     23  N   UNL     1      10.893  -6.547   4.717  0.00  0.00    +0.387 N 
ATOM     24  C   UNL     1      12.284  -7.019   4.494  0.00  0.00    -0.078 C 
ATOM     25  C   UNL     1      12.896  -7.001   5.917  0.00  0.00    -0.020 C 
ATOM     26  C   UNL     1      12.266  -5.739   6.550  0.00  0.00    -0.020 C 
ATOM     27  C   UNL     1      10.989  -5.474   5.731  0.00  0.00    -0.078 C 
ATOM     28  H   UNL     1      10.319  -7.302   5.063  0.00  0.00    -0.081 HD
ENDBRANCH  22  23
BRANCH  22  29
ATOM     29  C   UNL     1      10.319  -7.099   2.422  0.00  0.00    +0.093 A 
ATOM     30  C   UNL     1      10.623  -6.940   1.121  0.00  0.00    +0.043 A 
ATOM     31  C   UNL     1      10.479  -8.207   0.510  0.00  0.00    +0.041 A 
ATOM     32  C   UNL     1      10.096  -9.063   1.473  0.00  0.00    +0.195 A 
ATOM     33  O   UNL     1      10.005  -8.388   2.630  0.00  0.00    -0.469 OA
ENDBRANCH  22  29
ENDBRANCH  21  22
ENDBRANCH   4  21
TORSDOF 8
