REMARK  Name = ZINC00850727
REMARK  9 active torsions:
REMARK  status: ('A' for Active; 'I' for Inactive)
REMARK    1  A    between atoms: C_1  and  C_2
REMARK    2  A    between atoms: C_2  and  C_3
REMARK    3  A    between atoms: C_2  and  C_4
REMARK    4  A    between atoms: C_4  and  N_5
REMARK    5  A    between atoms: C_6  and  N_14
REMARK    6  A    between atoms: C_8  and  C_12
REMARK    7  A    between atoms: C_8  and  C_13
REMARK    8  A    between atoms: N_14  and  O_24
REMARK    9  A    between atoms: N_17  and  C_18
REMARK                            x       y       z     vdW  Elec       q    Type
REMARK                         _______ _______ _______ _____ _____    ______ ____
ROOT
ATOM      1  N   UNL     1      -4.754   3.096  -0.134  0.00  0.00    -0.145 N 
ATOM      2  C   UNL     1      -3.938   2.714   0.869  0.00  0.00    +0.331 C 
ATOM      3  O   UNL     1      -4.306   1.872   1.665  0.00  0.00    -0.250 OA
ATOM      4  N   UNL     1      -2.715   3.265   0.989  0.00  0.00    -0.268 N 
ATOM      5  H   UNL     1      -2.448   3.987   0.398  0.00  0.00    +0.156 HD
ENDROOT
BRANCH   1   7
ATOM      6  N   UNL     1      -6.454   2.370  -1.609  0.00  0.00    -0.297 N 
ATOM      7  C   UNL     1      -6.114   2.556  -0.218  0.00  0.00    +0.209 C 
ATOM      8  C   UNL     1      -7.073   3.511   0.522  0.00  0.00    +0.054 C 
ATOM      9  S   UNL     1      -8.230   3.952  -0.830  0.00  0.00    -0.093 S 
ATOM     10  C   UNL     1      -7.511   2.994  -2.148  0.00  0.00    +0.111 C 
ATOM     11  S   UNL     1      -8.057   2.892  -3.767  0.00  0.00    -0.028 S 
ATOM     12  C   UNL     1      -7.801   2.791   1.659  0.00  0.00    +0.026 C 
ATOM     13  C   UNL     1      -6.332   4.746   1.039  0.00  0.00    +0.026 C 
BRANCH   6  14
ATOM     14  C   UNL     1      -5.633   1.488  -2.442  0.00  0.00    +0.111 C 
BRANCH  14  16
ATOM     15  C   UNL     1      -7.504  -0.123  -2.824  0.00  0.00    +0.009 C 
ATOM     16  C   UNL     1      -6.092   0.040  -2.259  0.00  0.00    +0.000 C 
ATOM     17  C   UNL     1      -5.135  -0.896  -2.999  0.00  0.00    +0.009 C 
ENDBRANCH  14  16
ENDBRANCH   6  14
ENDBRANCH   1   7
BRANCH   4  18
ATOM     18  C   UNL     1      -1.829   2.797   1.966  0.00  0.00    +0.035 A 
ATOM     19  C   UNL     1      -0.465   2.756   1.707  0.00  0.00    +0.023 A 
ATOM     20  C   UNL     1       0.406   2.288   2.671  0.00  0.00    +0.002 A 
ATOM     21  C   UNL     1      -0.078   1.871   3.898  0.00  0.00    +0.000 A 
ATOM     22  C   UNL     1      -1.434   1.916   4.161  0.00  0.00    +0.002 A 
ATOM     23  C   UNL     1      -2.311   2.378   3.199  0.00  0.00    +0.023 A 
ENDBRANCH   4  18
BRANCH   1  24
ATOM     24  O   UNL     1      -4.298   4.019  -1.105  0.00  0.00    -0.290 OA
ATOM     25  H   UNL     1      -4.930   4.185  -1.818  0.00  0.00    +0.242 HD
ENDBRANCH   1  24
TORSDOF 5
