REMARK  Name = ZINC62257736
REMARK  7 active torsions:
REMARK  status: ('A' for Active; 'I' for Inactive)
REMARK    1  A    between atoms: C_3  and  N_19
REMARK    2  A    between atoms: C_6  and  C_7
REMARK    3  A    between atoms: C_7  and  N_8
REMARK    4  A    between atoms: N_8  and  C_9
REMARK    5  A    between atoms: N_13  and  C_15
REMARK    6  A    between atoms: C_15  and  C_16
REMARK    7  A    between atoms: C_22  and  C_24
REMARK                            x       y       z     vdW  Elec       q    Type
REMARK                         _______ _______ _______ _____ _____    ______ ____
ROOT
ATOM      1  C   UNL     1      -1.294  -0.774   0.011  0.00  0.00    +0.116 C 
ENDROOT
BRANCH   1   7
ATOM      2  C   UNL     1      -0.017   1.379   0.010  0.00  0.00    +0.007 A 
ATOM      3  C   UNL     1       1.169   2.087   0.002  0.00  0.00    +0.028 A 
ATOM      4  C   UNL     1       2.381   1.409  -0.013  0.00  0.00    +0.065 A 
ATOM      5  C   UNL     1       2.396   0.021  -0.021  0.00  0.00    +0.028 A 
ATOM      6  C   UNL     1       1.207  -0.682  -0.013  0.00  0.00    +0.007 A 
ATOM      7  C   UNL     1       0.002  -0.004   0.002  0.00  0.00    -0.033 A 
BRANCH   4   8
ATOM      8  N   UNL     1       3.586   2.125  -0.021  0.00  0.00    -0.239 N 
ATOM      9  C   UNL     1       4.828   1.592  -0.042  0.00  0.00    +0.115 A 
ATOM     10  C   UNL     1       5.715   2.614  -0.044  0.00  0.00    +0.054 A 
ATOM     11  C   UNL     1       4.992   3.811  -0.024  0.00  0.00    +0.166 A 
ATOM     12  N   UNL     1       3.716   3.520  -0.016  0.00  0.00    -0.162 NA
BRANCH  11  13
ATOM     13  C   UNL     1       5.581   5.199  -0.019  0.00  0.00    +0.436 C 
ATOM     14  F   UNL     1       5.747   5.640  -1.336  0.00  0.00    -0.164 F 
ATOM     15  F   UNL     1       4.720   6.068   0.659  0.00  0.00    -0.164 F 
ATOM     16  F   UNL     1       6.823   5.176   0.625  0.00  0.00    -0.164 F 
ENDBRANCH  11  13
ENDBRANCH   4   8
ENDBRANCH   1   7
BRANCH   1  17
ATOM     17  N   UNL     1      -1.728  -1.016  -1.371  0.00  0.00    -0.311 NA
ATOM     18  H   UNL     1      -1.810  -0.150  -1.882  0.00  0.00    +0.122 HD
BRANCH  17  19
ATOM     19  C   UNL     1      -2.991  -1.766  -1.402  0.00  0.00    +0.037 C 
ATOM     20  C   UNL     1      -4.167  -0.793  -1.278  0.00  0.00    +0.015 C 
ATOM     21  C   UNL     1      -5.479  -1.575  -1.390  0.00  0.00    -0.017 C 
ATOM     22  C   UNL     1      -5.497  -2.342  -2.714  0.00  0.00    -0.078 C 
ATOM     23  N   UNL     1      -4.364  -3.275  -2.760  0.00  0.00    +0.386 N 
ATOM     24  C   UNL     1      -3.102  -2.526  -2.725  0.00  0.00    -0.059 C 
ATOM     25  H   UNL     1      -4.408  -3.895  -1.965  0.00  0.00    -0.081 HD
BRANCH  23  26
ATOM     26  C   UNL     1      -4.431  -4.063  -3.997  0.00  0.00    +0.018 C 
BRANCH  26  27
ATOM     27  C   UNL     1      -5.662  -4.932  -3.974  0.00  0.00    +0.194 C 
ATOM     28  O   UNL     1      -6.410  -4.897  -3.020  0.00  0.00    -0.278 OA
ATOM     29  N   UNL     1      -5.931  -5.747  -5.012  0.00  0.00    -0.331 N 
ATOM     30  H   UNL     1      -5.333  -5.775  -5.775  0.00  0.00    +0.145 HD
ATOM     31  H   UNL     1      -6.724  -6.307  -4.997  0.00  0.00    +0.145 HD
ENDBRANCH  26  27
ENDBRANCH  23  26
ENDBRANCH  17  19
ENDBRANCH   1  17
TORSDOF 7
