REMARK  Name = ZINC15547645
REMARK  8 active torsions:
REMARK  status: ('A' for Active; 'I' for Inactive)
REMARK    1  A    between atoms: C_1  and  C_2
REMARK    2  A    between atoms: C_11  and  C_12
REMARK    3  A    between atoms: C_11  and  N_49
REMARK    4  A    between atoms: N_14  and  C_15
REMARK    5  A    between atoms: C_15  and  C_16
REMARK    6  A    between atoms: C_16  and  C_17
REMARK    7  A    between atoms: C_20  and  S_23
REMARK    8  A    between atoms: S_23  and  N_26
REMARK                            x       y       z     vdW  Elec       q    Type
REMARK                         _______ _______ _______ _____ _____    ______ ____
ROOT
ATOM      1  C   UNL     1       0.750   4.275   0.684  0.00  0.00    +0.196 C 
ATOM      2  O   UNL     1       0.278   3.739   1.664  0.00  0.00    -0.278 OA
ATOM      3  N   UNL     1       0.678   5.614   0.548  0.00  0.00    -0.317 N 
ATOM      4  H   UNL     1       1.056   6.043  -0.235  0.00  0.00    +0.149 HD
ENDROOT
BRANCH   1   5
ATOM      5  C   UNL     1       1.418   3.444  -0.381  0.00  0.00    +0.019 C 
BRANCH   5  15
ATOM      6  C   UNL     1       3.515   2.198   1.170  0.00  0.00    -0.008 C 
ATOM      7  C   UNL     1       2.041   1.801   1.284  0.00  0.00    -0.039 C 
ATOM      8  C   UNL     1       1.935   0.321   1.638  0.00  0.00    -0.051 A 
ATOM      9  C   UNL     1       2.754  -0.316   2.567  0.00  0.00    +0.010 A 
ATOM     10  C   UNL     1       2.593  -1.637   2.818  0.00  0.00    +0.045 A 
ATOM     11  S   UNL     1       1.241  -2.057   1.728  0.00  0.00    -0.101 S 
ATOM     12  C   UNL     1       0.994  -0.451   1.026  0.00  0.00    -0.010 A 
ATOM     13  C   UNL     1       0.002  -0.004   0.002  0.00  0.00    +0.024 C 
ATOM     14  C   UNL     1      -0.019   1.534   0.011  0.00  0.00    -0.072 C 
ATOM     15  N   UNL     1       1.385   2.012  -0.027  0.00  0.00    +0.390 N 
ATOM     16  H   UNL     1       1.896   1.480  -0.742  0.00  0.00    -0.080 HD
ENDBRANCH   5  15
ENDBRANCH   1   5
BRANCH   3  17
ATOM     17  C   UNL     1       0.029   6.422   1.584  0.00  0.00    +0.109 C 
BRANCH  17  18
ATOM     18  C   UNL     1       0.082   7.898   1.187  0.00  0.00    +0.054 C 
BRANCH  18  19
ATOM     19  C   UNL     1      -0.585   8.729   2.253  0.00  0.00    -0.046 A 
ATOM     20  C   UNL     1      -1.938   9.001   2.171  0.00  0.00    +0.005 A 
ATOM     21  C   UNL     1      -2.552   9.759   3.150  0.00  0.00    +0.029 A 
ATOM     22  C   UNL     1      -1.810  10.254   4.207  0.00  0.00    +0.105 A 
ATOM     23  C   UNL     1      -0.457   9.986   4.286  0.00  0.00    +0.029 A 
ATOM     24  C   UNL     1       0.156   9.225   3.309  0.00  0.00    +0.005 A 
BRANCH  22  25
ATOM     25  S   UNL     1      -2.591  11.224   5.453  0.00  0.00    +0.056 S 
ATOM     26  O   UNL     1      -3.968  10.873   5.438  0.00  0.00    -0.153 OA
ATOM     27  O   UNL     1      -1.789  11.109   6.620  0.00  0.00    -0.153 OA
BRANCH  25  28
ATOM     28  N   UNL     1      -2.501  12.806   4.970  0.00  0.00    -0.204 NA
ATOM     29  H   UNL     1      -2.071  13.033   4.131  0.00  0.00    +0.144 HD
ATOM     30  H   UNL     1      -2.879  13.505   5.527  0.00  0.00    +0.144 HD
ENDBRANCH  25  28
ENDBRANCH  22  25
ENDBRANCH  18  19
ENDBRANCH  17  18
ENDBRANCH   3  17
TORSDOF 7
