REMARK  Name = ZINC05594052
REMARK  6 active torsions:
REMARK  status: ('A' for Active; 'I' for Inactive)
REMARK    1  A    between atoms: C_9  and  C_11
REMARK    2  A    between atoms: C_11  and  N_12
REMARK    3  A    between atoms: N_12  and  C_13
REMARK    4  A    between atoms: C_16  and  C_19
REMARK    5  A    between atoms: C_22  and  C_25
REMARK    6  A    between atoms: C_28  and  N_31
REMARK                            x       y       z     vdW  Elec       q    Type
REMARK                         _______ _______ _______ _____ _____    ______ ____
ROOT
ATOM      1  C   UNL     1      -2.798  -1.862   1.648  0.00  0.00    +0.027 A 
ATOM      2  C   UNL     1      -3.490  -2.454   0.597  0.00  0.00    +0.023 A 
ATOM      3  C   UNL     1      -4.597  -3.232   0.851  0.00  0.00    +0.011 A 
ATOM      4  C   UNL     1      -5.031  -3.419   2.166  0.00  0.00    -0.000 A 
ATOM      5  C   UNL     1      -4.337  -2.818   3.219  0.00  0.00    +0.011 A 
ATOM      6  C   UNL     1      -3.228  -2.045   2.959  0.00  0.00    +0.023 A 
ENDROOT
BRANCH   4   7
ATOM      7  C   UNL     1      -6.220  -4.247   2.441  0.00  0.00    +0.091 C 
ATOM      8  N   UNL     1      -6.715  -4.497   3.608  0.00  0.00    -0.088 NA
ATOM      9  O   UNL     1      -7.866  -5.316   3.552  0.00  0.00    -0.385 OA
ATOM     10  C   UNL     1      -7.882  -5.956   2.260  0.00  0.00    +0.240 C 
ATOM     11  C   UNL     1      -7.069  -4.957   1.403  0.00  0.00    +0.111 C 
BRANCH  10  12
ATOM     12  C   UNL     1      -9.291  -6.089   1.741  0.00  0.00    -0.004 A 
ATOM     13  C   UNL     1     -10.238  -5.135   2.060  0.00  0.00    +0.009 A 
ATOM     14  C   UNL     1     -11.529  -5.255   1.581  0.00  0.00    +0.033 A 
ATOM     15  C   UNL     1     -11.875  -6.335   0.790  0.00  0.00    +0.126 A 
ATOM     16  C   UNL     1     -10.929  -7.292   0.474  0.00  0.00    +0.033 A 
ATOM     17  C   UNL     1      -9.637  -7.169   0.951  0.00  0.00    +0.009 A 
BRANCH  15  18
ATOM     18  N   UNL     1     -13.259  -6.466   0.280  0.00  0.00    +0.056 N 
ATOM     19  O   UNL     1     -13.563  -7.417  -0.416  0.00  0.00    -0.126 OA
ATOM     20  O   UNL     1     -14.092  -5.622   0.558  0.00  0.00    -0.126 OA
ENDBRANCH  15  18
ENDBRANCH  10  12
ENDBRANCH   4   7
BRANCH   1  21
ATOM     21  N   UNL     1      -1.675  -1.079   1.388  0.00  0.00    -0.337 N 
ATOM     22  H   UNL     1      -1.194  -0.662   2.120  0.00  0.00    +0.147 HD
BRANCH  21  23
ATOM     23  C   UNL     1      -1.221  -0.884   0.009  0.00  0.00    +0.175 C 
BRANCH  23  32
ATOM     24  C   UNL     1       4.006   2.112  -0.026  0.00  0.00    +0.002 A 
ATOM     25  C   UNL     1       3.163   3.215  -0.012  0.00  0.00    +0.002 A 
ATOM     26  C   UNL     1       1.807   3.055   0.001  0.00  0.00    +0.030 A 
ATOM     27  C   UNL     1       1.257   1.771  -0.000  0.00  0.00    +0.089 A 
ATOM     28  C   UNL     1       2.109   0.654  -0.015  0.00  0.00    +0.066 A 
ATOM     29  C   UNL     1       3.486   0.836  -0.027  0.00  0.00    +0.028 A 
ATOM     30  N   UNL     1       1.286  -0.454  -0.013  0.00  0.00    -0.341 N 
ATOM     31  H   UNL     1       1.579  -1.410  -0.021  0.00  0.00    +0.167 HD
ATOM     32  C   UNL     1       0.002  -0.004   0.002  0.00  0.00    +0.125 A 
ATOM     33  N   UNL     1      -0.016   1.297   0.009  0.00  0.00    -0.231 NA
ENDBRANCH  23  32
ENDBRANCH  21  23
ENDBRANCH   1  21
TORSDOF 6
