REMARK  Name = ZINC19795163
REMARK  8 active torsions:
REMARK  status: ('A' for Active; 'I' for Inactive)
REMARK    1  A    between atoms: C_1  and  O_2
REMARK    2  A    between atoms: O_2  and  C_3
REMARK    3  A    between atoms: C_7  and  C_9
REMARK    4  A    between atoms: C_9  and  N_10
REMARK    5  A    between atoms: C_21  and  N_25
REMARK    6  A    between atoms: N_25  and  C_26
REMARK    7  A    between atoms: C_26  and  C_27
REMARK    8  A    between atoms: C_27  and  C_28
REMARK                            x       y       z     vdW  Elec       q    Type
REMARK                         _______ _______ _______ _____ _____    ______ ____
ROOT
ATOM      1  N   UNL     1      -1.246   5.533   4.915  0.00  0.00    -0.294 N 
ATOM      2  C   UNL     1      -1.014   4.525   5.795  0.00  0.00    +0.203 A 
ATOM      3  N   UNL     1      -0.146   4.657   6.762  0.00  0.00    -0.230 NA
ATOM      4  C   UNL     1       0.531   5.791   6.922  0.00  0.00    +0.116 A 
ATOM      5  C   UNL     1       0.356   6.890   6.066  0.00  0.00    +0.076 A 
ATOM      6  C   UNL     1      -0.599   6.710   5.013  0.00  0.00    +0.263 A 
ATOM      7  O   UNL     1      -0.821   7.607   4.218  0.00  0.00    -0.267 OA
ATOM      8  C   UNL     1       1.169   8.068   6.363  0.00  0.00    -0.023 A 
ATOM      9  C   UNL     1       2.002   7.987   7.422  0.00  0.00    -0.006 A 
ATOM     10  S   UNL     1       1.755   6.358   8.076  0.00  0.00    -0.073 S 
ATOM     11  C   UNL     1       2.933   9.046   7.929  0.00  0.00    +0.027 C 
ATOM     12  C   UNL     1       3.077  10.123   6.844  0.00  0.00    -0.067 C 
ATOM     13  C   UNL     1       1.682  10.499   6.336  0.00  0.00    -0.011 C 
ATOM     14  C   UNL     1       1.094   9.343   5.527  0.00  0.00    +0.035 C 
ENDROOT
BRANCH  12  15
ATOM     15  N   UNL     1       3.732  11.309   7.412  0.00  0.00    +0.381 N 
ATOM     16  H   UNL     1       3.449  12.198   6.829  0.00  0.00    -0.086 HD
ATOM     17  H   UNL     1       3.413  11.439   8.457  0.00  0.00    -0.086 HD
BRANCH  15  18
ATOM     18  C   UNL     1       5.194  11.171   7.379  0.00  0.00    -0.077 C 
BRANCH  18  19
ATOM     19  C   UNL     1       5.839  12.423   7.977  0.00  0.00    +0.019 C 
BRANCH  19  20
ATOM     20  C   UNL     1       7.338  12.280   7.943  0.00  0.00    -0.014 A 
ATOM     21  C   UNL     1       8.014  11.810   9.053  0.00  0.00    +0.006 A 
ATOM     22  C   UNL     1       9.389  11.674   9.021  0.00  0.00    +0.000 A 
ATOM     23  C   UNL     1      10.092  12.019   7.881  0.00  0.00    +0.003 A 
ATOM     24  C   UNL     1       9.419  12.494   6.771  0.00  0.00    +0.038 A 
ATOM     25  C   UNL     1       8.041  12.625   6.801  0.00  0.00    +0.126 A 
ATOM     26  F   UNL     1       7.383  13.091   5.717  0.00  0.00    -0.205 F 
ENDBRANCH  19  20
ENDBRANCH  18  19
ENDBRANCH  15  18
ENDBRANCH  12  15
BRANCH   1  27
ATOM     27  C   UNL     1      -2.223   5.338   3.842  0.00  0.00    +0.161 C 
BRANCH  27  32
ATOM     28  C   UNL     1      -0.787   2.892   1.346  0.00  0.00    +0.120 A 
ATOM     29  C   UNL     1      -0.253   3.751   0.396  0.00  0.00    +0.045 A 
ATOM     30  C   UNL     1      -0.368   5.117   0.561  0.00  0.00    +0.004 A 
ATOM     31  C   UNL     1      -1.003   5.630   1.677  0.00  0.00    +0.005 A 
ATOM     32  C   UNL     1      -1.531   4.776   2.627  0.00  0.00    -0.024 A 
ATOM     33  C   UNL     1      -1.425   3.409   2.465  0.00  0.00    +0.051 A 
BRANCH  28  35
ATOM     34  C   UNL     1      -0.013   1.086   0.008  0.00  0.00    +0.277 C 
ATOM     35  O   UNL     1      -0.682   1.547   1.184  0.00  0.00    -0.495 OA
ENDBRANCH  28  35
ENDBRANCH  27  32
ENDBRANCH   1  27
TORSDOF 7
