REMARK  Name = ZINC14656320
REMARK  11 active torsions:
REMARK  status: ('A' for Active; 'I' for Inactive)
REMARK    1  A    between atoms: C_1  and  C_2
REMARK    2  A    between atoms: C_2  and  C_3
REMARK    3  A    between atoms: C_3  and  C_4
REMARK    4  A    between atoms: C_4  and  N_5
REMARK    5  A    between atoms: C_6  and  N_30
REMARK    6  A    between atoms: C_7  and  N_14
REMARK    7  A    between atoms: N_14  and  C_15
REMARK    8  A    between atoms: C_16  and  C_18
REMARK    9  A    between atoms: C_18  and  C_20
REMARK   10  A    between atoms: C_18  and  O_21
REMARK   11  A    between atoms: O_21  and  C_22
REMARK                            x       y       z     vdW  Elec       q    Type
REMARK                         _______ _______ _______ _____ _____    ______ ____
ROOT
ATOM      1  N   UNL     1      -4.697  -2.707   0.965  0.00  0.00    -0.280 N 
ATOM      2  C   UNL     1      -3.478  -2.174   1.318  0.00  0.00    +0.127 A 
ATOM      3  C   UNL     1      -3.289  -0.810   1.232  0.00  0.00    +0.139 A 
ATOM      4  C   UNL     1      -4.348  -0.005   0.773  0.00  0.00    +0.277 A 
ATOM      5  O   UNL     1      -4.207   1.203   0.683  0.00  0.00    -0.266 OA
ATOM      6  N   UNL     1      -5.520  -0.577   0.435  0.00  0.00    -0.273 N 
ATOM      7  H   UNL     1      -6.274  -0.006   0.109  0.00  0.00    +0.173 HD
ATOM      8  C   UNL     1      -5.688  -1.908   0.530  0.00  0.00    +0.331 A 
ATOM      9  O   UNL     1      -6.756  -2.399   0.219  0.00  0.00    -0.246 OA
ENDROOT
BRANCH   3  10
ATOM     10  N   UNL     1      -2.053  -0.233   1.592  0.00  0.00    -0.264 N 
ATOM     11  C   UNL     1      -0.852  -0.525   0.806  0.00  0.00    +0.138 C 
ATOM     12  C   UNL     1      -1.977   0.587   2.661  0.00  0.00    +0.260 C 
ATOM     13  O   UNL     1      -0.940   1.166   2.909  0.00  0.00    -0.271 OA
BRANCH  12  14
ATOM     14  C   UNL     1      -3.181   0.785   3.546  0.00  0.00    +0.256 C 
ATOM     15  C   UNL     1      -3.455  -0.501   4.329  0.00  0.00    +0.062 C 
BRANCH  14  16
ATOM     16  O   UNL     1      -2.930   1.855   4.459  0.00  0.00    -0.478 OA
BRANCH  16  17
ATOM     17  C   UNL     1      -4.013   2.505   4.962  0.00  0.00    +0.140 A 
ATOM     18  C   UNL     1      -5.285   2.185   4.511  0.00  0.00    +0.048 A 
ATOM     19  C   UNL     1      -6.385   2.843   5.025  0.00  0.00    +0.023 A 
ATOM     20  C   UNL     1      -6.219   3.828   5.984  0.00  0.00    +0.043 A 
ATOM     21  C   UNL     1      -4.951   4.152   6.432  0.00  0.00    +0.043 A 
ATOM     22  C   UNL     1      -3.847   3.492   5.923  0.00  0.00    +0.084 A 
ATOM     23 CL   UNL     1      -2.256   3.900   6.484  0.00  0.00    -0.080 Cl
ATOM     24 CL   UNL     1      -7.603   4.657   6.624  0.00  0.00    -0.083 Cl
ENDBRANCH  16  17
ENDBRANCH  14  16
ENDBRANCH  12  14
ENDBRANCH   3  10
BRANCH   2  25
ATOM     25  N   UNL     1      -2.463  -2.991   1.756  0.00  0.00    -0.343 N 
ATOM     26  H   UNL     1      -1.634  -2.604   2.078  0.00  0.00    +0.144 HD
ATOM     27  H   UNL     1      -2.576  -3.954   1.744  0.00  0.00    +0.144 HD
ENDBRANCH   2  25
BRANCH   1  28
ATOM     28  C   UNL     1      -4.913  -4.153   1.057  0.00  0.00    +0.128 C 
BRANCH  28  29
ATOM     29  C   UNL     1      -4.521  -4.812  -0.266  0.00  0.00    +0.021 C 
BRANCH  29  31
ATOM     30  C   UNL     1      -4.354  -6.982  -1.494  0.00  0.00    +0.004 C 
ATOM     31  C   UNL     1      -4.747  -6.322  -0.170  0.00  0.00    -0.002 C 
ENDBRANCH  29  31
ENDBRANCH  28  29
ENDBRANCH   1  28
TORSDOF 8
