REMARK  Name = ZINC09319425
REMARK  10 active torsions:
REMARK  status: ('A' for Active; 'I' for Inactive)
REMARK    1  A    between atoms: C_1  and  C_2
REMARK    2  A    between atoms: C_2  and  O_3
REMARK    3  A    between atoms: O_3  and  C_4
REMARK    4  A    between atoms: C_7  and  C_10
REMARK    5  A    between atoms: C_12  and  C_28
REMARK    6  A    between atoms: C_13  and  C_18
REMARK    7  A    between atoms: C_18  and  S_19
REMARK    8  A    between atoms: S_19  and  C_22
REMARK    9  A    between atoms: C_28  and  O_30
REMARK   10  A    between atoms: O_30  and  C_31
REMARK                            x       y       z     vdW  Elec       q    Type
REMARK                         _______ _______ _______ _____ _____    ______ ____
ROOT
ATOM      1  C   UNL     1       1.245  -6.238  -1.992  0.00  0.00    +0.144 C 
ATOM      2  C   UNL     1       2.373  -6.738  -1.112  0.00  0.00    +0.080 C 
ATOM      3  C   UNL     1       2.046  -7.462  -0.021  0.00  0.00    +0.045 C 
ATOM      4  N   UNL     1       0.742  -7.734   0.279  0.00  0.00    -0.271 N 
ATOM      5  C   UNL     1      -0.293  -7.318  -0.461  0.00  0.00    +0.304 C 
ATOM      6  O   UNL     1      -1.421  -7.610  -0.113  0.00  0.00    -0.252 OA
ATOM      7  N   UNL     1      -0.126  -6.586  -1.580  0.00  0.00    -0.288 N 
ATOM      8  H   UNL     1       0.554  -8.259   1.074  0.00  0.00    +0.156 HD
ATOM      9  H   UNL     1      -0.889  -6.295  -2.102  0.00  0.00    +0.151 HD
ENDROOT
BRANCH   1  13
ATOM     10  C   UNL     1       1.520  -1.978  -2.193  0.00  0.00    +0.121 A 
ATOM     11  C   UNL     1       0.880  -2.584  -1.121  0.00  0.00    +0.046 A 
ATOM     12  C   UNL     1       0.788  -3.961  -1.061  0.00  0.00    +0.009 A 
ATOM     13  C   UNL     1       1.342  -4.736  -2.063  0.00  0.00    -0.022 A 
ATOM     14  C   UNL     1       1.985  -4.136  -3.130  0.00  0.00    +0.009 A 
ATOM     15  C   UNL     1       2.075  -2.759  -3.197  0.00  0.00    +0.046 A 
BRANCH  10  16
ATOM     16  O   UNL     1       1.607  -0.624  -2.257  0.00  0.00    -0.492 OA
BRANCH  16  18
ATOM     17  C   UNL     1       1.210   1.613  -1.433  0.00  0.00    +0.048 C 
ATOM     18  C   UNL     1       1.013   0.116  -1.189  0.00  0.00    +0.225 C 
ENDBRANCH  16  18
ENDBRANCH  10  16
ENDBRANCH   1  13
BRANCH   2  19
ATOM     19  C   UNL     1       3.723  -6.456  -1.423  0.00  0.00    +0.339 C 
ATOM     20  O   UNL     1       4.617  -6.981  -0.785  0.00  0.00    -0.245 OA
BRANCH  19  21
ATOM     21  O   UNL     1       4.021  -5.604  -2.427  0.00  0.00    -0.465 OA
ATOM     22  C   UNL     1       5.406  -5.365  -2.686  0.00  0.00    +0.280 C 
ENDBRANCH  19  21
ENDBRANCH   2  19
BRANCH   3  23
ATOM     23  C   UNL     1       3.137  -7.979   0.881  0.00  0.00    +0.223 C 
BRANCH  23  24
ATOM     24  S   UNL     1       3.466  -9.721   0.495  0.00  0.00    +0.008 S 
ATOM     25  O   UNL     1       2.352 -10.523   0.861  0.00  0.00    -0.169 OA
ATOM     26  O   UNL     1       4.047  -9.834  -0.797  0.00  0.00    -0.169 OA
BRANCH  24  27
ATOM     27  C   UNL     1       4.747 -10.197   1.607  0.00  0.00    +0.127 A 
ATOM     28  C   UNL     1       4.645 -10.716   2.854  0.00  0.00    +0.036 A 
ATOM     29  C   UNL     1       5.799 -11.023   3.550  0.00  0.00    +0.025 A 
ATOM     30  C   UNL     1       7.001 -10.784   2.968  0.00  0.00    +0.057 A 
ATOM     31  S   UNL     1       6.517 -10.114   1.385  0.00  0.00    -0.063 S 
ATOM     32 BR   UNL     1       8.737 -11.083   3.654  0.00  0.00    -0.043 Br
ENDBRANCH  24  27
ENDBRANCH  23  24
ENDBRANCH   3  23
TORSDOF 8
