REMARK  Name = ZINC13368481
REMARK  7 active torsions:
REMARK  status: ('A' for Active; 'I' for Inactive)
REMARK    1  A    between atoms: C_1  and  C_2
REMARK    2  A    between atoms: C_7  and  O_30
REMARK    3  A    between atoms: C_9  and  O_29
REMARK    4  A    between atoms: C_11  and  O_28
REMARK    5  A    between atoms: C_18  and  O_26
REMARK    6  A    between atoms: C_20  and  O_25
REMARK    7  A    between atoms: O_26  and  C_27
REMARK                            x       y       z     vdW  Elec       q    Type
REMARK                         _______ _______ _______ _____ _____    ______ ____
ROOT
ATOM      1  C   UNL     1      -0.013   1.086   0.008  0.00  0.00    +0.052 C 
ATOM      2  C   UNL     1      -0.726   1.577   1.262  0.00  0.00    +0.177 C 
ATOM      3  C   UNL     1      -0.017   1.092   2.530  0.00  0.00    +0.071 C 
ATOM      4  C   UNL     1       0.601  -0.261   2.339  0.00  0.00    -0.025 C 
ATOM      5  C   UNL     1       1.893  -0.449   2.373  0.00  0.00    +0.002 C 
ATOM      6  C   UNL     1       2.887   0.669   2.488  0.00  0.00    +0.168 C 
ATOM      7  C   UNL     1       3.233   0.936   3.956  0.00  0.00    +0.175 C 
ATOM      8  C   UNL     1       4.129   2.173   4.046  0.00  0.00    +0.149 C 
ATOM      9  C   UNL     1       3.725   3.073   5.213  0.00  0.00    +0.061 C 
ATOM     10  C   UNL     1       3.051   4.311   4.660  0.00  0.00    -0.024 C 
ATOM     11  C   UNL     1       2.054   4.194   3.815  0.00  0.00    +0.005 C 
ATOM     12  C   UNL     1       1.272   5.307   3.265  0.00  0.00    -0.004 A 
ATOM     13  C   UNL     1       1.425   6.608   3.747  0.00  0.00    +0.054 A 
ATOM     14  C   UNL     1       0.620   7.621   3.253  0.00  0.00    +0.124 A 
ATOM     15  C   UNL     1      -0.338   7.353   2.284  0.00  0.00    +0.091 A 
ATOM     16  C   UNL     1      -0.482   6.075   1.770  0.00  0.00    +0.135 A 
ATOM     17  C   UNL     1       0.347   5.042   2.239  0.00  0.00    +0.108 A 
ATOM     18  C   UNL     1       0.312   3.695   1.673  0.00  0.00    +0.344 C 
ATOM     19  O   UNL     1       1.407   3.184   1.458  0.00  0.00    -0.245 OA
ATOM     20  O   UNL     1      -0.775   3.029   1.301  0.00  0.00    -0.458 OA
ENDROOT
BRANCH  16  21
ATOM     21  O   UNL     1      -1.411   5.826   0.816  0.00  0.00    -0.506 OA
ATOM     22  H   UNL     1      -2.273   5.563   1.167  0.00  0.00    +0.292 HD
ENDBRANCH  16  21
BRANCH  14  23
ATOM     23  O   UNL     1       0.764   8.888   3.717  0.00  0.00    -0.495 OA
ATOM     24  C   UNL     1      -0.100   9.883   3.164  0.00  0.00    +0.277 C 
ENDBRANCH  14  23
BRANCH   8  25
ATOM     25  O   UNL     1       5.489   1.760   4.213  0.00  0.00    -0.389 OA
ATOM     26  H   UNL     1       6.117   2.493   4.278  0.00  0.00    +0.210 HD
ENDBRANCH   8  25
BRANCH   7  27
ATOM     27  O   UNL     1       2.038   1.121   4.709  0.00  0.00    -0.386 OA
ATOM     28  H   UNL     1       1.442   0.359   4.694  0.00  0.00    +0.210 HD
ENDBRANCH   7  27
BRANCH   6  29
ATOM     29  O   UNL     1       4.088   0.308   1.796  0.00  0.00    -0.385 OA
ATOM     30  H   UNL     1       3.962   0.133   0.853  0.00  0.00    +0.210 HD
ENDBRANCH   6  29
TORSDOF 5
