REMARK  Name = ZINC08589869
REMARK  9 active torsions:
REMARK  status: ('A' for Active; 'I' for Inactive)
REMARK    1  A    between atoms: C_1  and  C_2
REMARK    2  A    between atoms: C_3  and  C_14
REMARK    3  A    between atoms: C_4  and  O_13
REMARK    4  A    between atoms: N_5  and  C_7
REMARK    5  A    between atoms: C_14  and  C_15
REMARK    6  A    between atoms: C_14  and  C_23
REMARK    7  A    between atoms: C_20  and  O_21
REMARK    8  A    between atoms: C_24  and  C_35
REMARK    9  A    between atoms: N_26  and  C_29
REMARK                            x       y       z     vdW  Elec       q    Type
REMARK                         _______ _______ _______ _____ _____    ______ ____
ROOT
ATOM      1  C   UNL     1      -0.026  -0.362  -2.434  0.00  0.00    +0.096 C 
ENDROOT
BRANCH   1   2
ATOM      2  C   UNL     1       1.293  -0.679  -3.088  0.00  0.00    +0.051 A 
ATOM      3  C   UNL     1       2.101   0.202  -3.710  0.00  0.00    +0.039 A 
ATOM      4  N   UNL     1       3.199  -0.468  -4.171  0.00  0.00    -0.294 N 
ATOM      5  N   UNL     1       3.067  -1.817  -3.819  0.00  0.00    -0.219 N 
ATOM      6  C   UNL     1       1.904  -1.954  -3.150  0.00  0.00    +0.276 A 
ATOM      7  O   UNL     1       1.458  -2.988  -2.686  0.00  0.00    -0.266 OA
ATOM      8  C   UNL     1       1.837   1.677  -3.872  0.00  0.00    +0.065 C 
ATOM      9  H   UNL     1       3.942  -0.076  -4.657  0.00  0.00    +0.187 HD
BRANCH   5  10
ATOM     10  C   UNL     1       3.979  -2.838  -4.106  0.00  0.00    +0.067 A 
ATOM     11  C   UNL     1       3.716  -4.140  -3.700  0.00  0.00    +0.028 A 
ATOM     12  C   UNL     1       4.619  -5.146  -3.985  0.00  0.00    +0.002 A 
ATOM     13  C   UNL     1       5.784  -4.857  -4.672  0.00  0.00    +0.000 A 
ATOM     14  C   UNL     1       6.048  -3.562  -5.077  0.00  0.00    +0.002 A 
ATOM     15  C   UNL     1       5.147  -2.553  -4.801  0.00  0.00    +0.028 A 
ENDBRANCH   5  10
ENDBRANCH   1   2
BRANCH   1  16
ATOM     16  C   UNL     1      -1.142  -1.008  -3.213  0.00  0.00    +0.008 A 
ATOM     17  C   UNL     1      -1.245  -2.385  -3.261  0.00  0.00    +0.028 A 
ATOM     18  C   UNL     1      -2.269  -2.979  -3.977  0.00  0.00    +0.041 A 
ATOM     19  C   UNL     1      -3.192  -2.196  -4.646  0.00  0.00    +0.023 A 
ATOM     20  C   UNL     1      -3.093  -0.819  -4.601  0.00  0.00    +0.047 A 
ATOM     21  C   UNL     1      -2.070  -0.222  -3.879  0.00  0.00    +0.121 A 
ATOM     22 CL   UNL     1      -2.395  -4.710  -4.035  0.00  0.00    -0.084 Cl
BRANCH  21  23
ATOM     23  O   UNL     1      -1.974   1.133  -3.829  0.00  0.00    -0.506 OA
ATOM     24  H   UNL     1      -1.437   1.516  -4.536  0.00  0.00    +0.292 HD
ENDBRANCH  21  23
ENDBRANCH   1  16
BRANCH   1  27
ATOM     25  C   UNL     1       2.465  -0.463  -0.482  0.00  0.00    +0.068 C 
ATOM     26  C   UNL     1       1.071  -0.935  -0.159  0.00  0.00    +0.068 A 
ATOM     27  C   UNL     1      -0.028  -0.890  -1.022  0.00  0.00    +0.049 A 
ATOM     28  C   UNL     1      -1.099  -1.406  -0.362  0.00  0.00    +0.220 A 
ATOM     29  N   UNL     1      -0.679  -1.765   0.880  0.00  0.00    -0.200 N 
ATOM     30  N   UNL     1       0.686  -1.462   0.975  0.00  0.00    -0.168 NA
BRANCH  29  31
ATOM     31  C   UNL     1      -1.469  -2.339   1.885  0.00  0.00    +0.069 A 
ATOM     32  C   UNL     1      -2.802  -1.973   2.017  0.00  0.00    +0.028 A 
ATOM     33  C   UNL     1      -3.578  -2.541   3.008  0.00  0.00    +0.002 A 
ATOM     34  C   UNL     1      -3.029  -3.473   3.869  0.00  0.00    +0.000 A 
ATOM     35  C   UNL     1      -1.702  -3.840   3.741  0.00  0.00    +0.002 A 
ATOM     36  C   UNL     1      -0.922  -3.280   2.748  0.00  0.00    +0.028 A 
ENDBRANCH  29  31
BRANCH  28  37
ATOM     37  O   UNL     1      -2.357  -1.539  -0.854  0.00  0.00    -0.492 OA
ATOM     38  H   UNL     1      -2.545  -2.414  -1.222  0.00  0.00    +0.294 HD
ENDBRANCH  28  37
ENDBRANCH   1  27
TORSDOF 7
