REMARK  Name = ZINC49686644
REMARK  9 active torsions:
REMARK  status: ('A' for Active; 'I' for Inactive)
REMARK    1  A    between atoms: C_1  and  C_2
REMARK    2  A    between atoms: C_4  and  C_30
REMARK    3  A    between atoms: C_6  and  N_8
REMARK    4  A    between atoms: C_9  and  C_29
REMARK    5  A    between atoms: C_11  and  C_14
REMARK    6  A    between atoms: C_12  and  C_13
REMARK    7  A    between atoms: C_24  and  C_26
REMARK    8  A    between atoms: C_26  and  C_27
REMARK    9  A    between atoms: C_26  and  C_28
REMARK                            x       y       z     vdW  Elec       q    Type
REMARK                         _______ _______ _______ _____ _____    ______ ____
ROOT
ATOM      1  C   UNL     1       1.442  -3.834   5.519  0.00  0.00    +0.026 C 
ATOM      2  C   UNL     1       1.273  -5.012   6.219  0.00  0.00    +0.079 C 
ATOM      3  C   UNL     1       0.377  -6.094   5.727  0.00  0.00    +0.132 C 
ATOM      4  N   UNL     1       0.191  -6.351   4.459  0.00  0.00    -0.385 N 
ATOM      5  N   UNL     1      -0.252  -6.816   6.764  0.00  0.00    -0.154 N 
ATOM      6  C   UNL     1       0.356  -6.811   8.001  0.00  0.00    +0.181 C 
ATOM      7  N   UNL     1       1.414  -6.133   8.368  0.00  0.00    -0.152 NA
ATOM      8  C   UNL     1       1.978  -5.269   7.497  0.00  0.00    +0.273 C 
ATOM      9  O   UNL     1       3.034  -4.714   7.755  0.00  0.00    -0.268 OA
ATOM     10  S   UNL     1      -0.673  -7.922   8.925  0.00  0.00    -0.038 S 
ATOM     11  C   UNL     1      -1.886  -8.233   7.648  0.00  0.00    +0.102 C 
ATOM     12  N   UNL     1      -1.420  -7.539   6.650  0.00  0.00    -0.169 NA
ATOM     13  H   UNL     1       0.711  -5.882   3.787  0.00  0.00    +0.157 HD
ATOM     14  H   UNL     1      -0.468  -7.011   4.189  0.00  0.00    +0.157 HD
ENDROOT
BRANCH   1  18
ATOM     15  N   UNL     1      -0.132  -2.734   2.486  0.00  0.00    -0.317 N 
ATOM     16  C   UNL     1      -1.134  -3.522   2.982  0.00  0.00    +0.022 A 
ATOM     17  C   UNL     1      -0.742  -4.051   4.152  0.00  0.00    +0.031 A 
ATOM     18  C   UNL     1       0.617  -3.548   4.402  0.00  0.00    -0.003 A 
ATOM     19  C   UNL     1       0.927  -2.742   3.320  0.00  0.00    +0.028 A 
ATOM     20  C   UNL     1       2.222  -1.999   3.112  0.00  0.00    +0.064 C 
ATOM     21  C   UNL     1      -2.467  -3.759   2.320  0.00  0.00    +0.064 C 
BRANCH  15  27
ATOM     22  C   UNL     1      -0.199   1.567   0.102  0.00  0.00    +0.044 C 
ATOM     23  C   UNL     1      -0.230   0.060   0.095  0.00  0.00    -0.048 A 
ATOM     24  C   UNL     1      -0.322  -0.623  -1.103  0.00  0.00    +0.006 A 
ATOM     25  C   UNL     1      -0.350  -2.006  -1.113  0.00  0.00    -0.048 A 
ATOM     26  C   UNL     1      -0.287  -2.708   0.074  0.00  0.00    +0.029 A 
ATOM     27  C   UNL     1      -0.195  -2.025   1.279  0.00  0.00    +0.047 A 
ATOM     28  C   UNL     1      -0.161  -0.637   1.286  0.00  0.00    +0.029 A 
ATOM     29  C   UNL     1      -0.450  -2.747  -2.422  0.00  0.00    +0.044 C 
ENDBRANCH  15  27
ENDBRANCH   1  18
BRANCH  11  30
ATOM     30  C   UNL     1      -3.129  -9.083   7.712  0.00  0.00    +0.040 C 
ATOM     31  C   UNL     1      -4.280  -8.260   8.292  0.00  0.00    +0.014 C 
ATOM     32  C   UNL     1      -3.497  -9.553   6.303  0.00  0.00    +0.014 C 
ENDBRANCH  11  30
TORSDOF 3
