REMARK  Name = ZINC03225924
REMARK  3 active torsions:
REMARK  status: ('A' for Active; 'I' for Inactive)
REMARK    1  A    between atoms: C_3  and  C_9
REMARK    2  A    between atoms: C_15  and  S_22
REMARK    3  A    between atoms: S_22  and  N_25
REMARK                            x       y       z     vdW  Elec       q    Type
REMARK                         _______ _______ _______ _____ _____    ______ ____
ROOT
ATOM      1  C   UNL     1      -0.715  -5.036   0.793  0.00  0.00    +0.192 C 
ATOM      2  N   UNL     1       0.129  -4.173  -0.029  0.00  0.00    -0.322 N 
ATOM      3  C   UNL     1       0.054  -2.782  -0.006  0.00  0.00    +0.057 A 
ATOM      4  C   UNL     1       0.535  -2.065  -1.100  0.00  0.00    +0.047 A 
ATOM      5  C   UNL     1       0.502  -0.685  -1.095  0.00  0.00    +0.069 A 
ATOM      6  C   UNL     1       0.002  -0.004   0.002  0.00  0.00    +0.125 A 
ATOM      7  C   UNL     1      -0.484  -0.710   1.087  0.00  0.00    +0.060 A 
ATOM      8  C   UNL     1      -0.465  -2.089   1.079  0.00  0.00    +0.128 A 
ATOM      9  S   UNL     1      -1.120  -2.987   2.454  0.00  0.00    +0.062 S 
ATOM     10  O   UNL     1      -0.431  -2.535   3.611  0.00  0.00    -0.153 OA
ATOM     11  O   UNL     1      -2.536  -2.949   2.337  0.00  0.00    -0.153 OA
ATOM     12  N   UNL     1      -0.651  -4.566   2.192  0.00  0.00    -0.166 NA
ATOM     13 CL   UNL     1       1.096   0.200  -2.465  0.00  0.00    -0.081 Cl
ATOM     14  H   UNL     1       0.774  -4.589  -0.622  0.00  0.00    +0.148 HD
ATOM     15  H   UNL     1      -0.355  -5.142   2.915  0.00  0.00    +0.150 HD
ENDROOT
BRANCH   1  18
ATOM     16  C   UNL     1      -3.705  -4.564  -1.463  0.00  0.00    +0.020 A 
ATOM     17  C   UNL     1      -2.400  -4.626  -1.011  0.00  0.00    +0.010 A 
ATOM     18  C   UNL     1      -2.138  -4.968   0.302  0.00  0.00    +0.007 A 
ATOM     19  C   UNL     1      -3.182  -5.254   1.164  0.00  0.00    +0.049 A 
ATOM     20  C   UNL     1      -4.488  -5.187   0.715  0.00  0.00    +0.040 A 
ATOM     21  C   UNL     1      -4.750  -4.845  -0.600  0.00  0.00    +0.042 A 
ATOM     22 CL   UNL     1      -6.388  -4.767  -1.167  0.00  0.00    -0.083 Cl
ATOM     23 CL   UNL     1      -2.852  -5.691   2.812  0.00  0.00    -0.083 Cl
ENDBRANCH   1  18
BRANCH   6  24
ATOM     24  S   UNL     1      -0.022   1.758   0.012  0.00  0.00    +0.057 S 
ATOM     25  O   UNL     1      -0.590   2.163  -1.226  0.00  0.00    -0.153 OA
ATOM     26  O   UNL     1      -0.566   2.150   1.264  0.00  0.00    -0.153 OA
BRANCH  24  27
ATOM     27  N   UNL     1       1.553   2.269  -0.001  0.00  0.00    -0.203 NA
ATOM     28  H   UNL     1       2.274   1.619  -0.011  0.00  0.00    +0.144 HD
ATOM     29  H   UNL     1       1.755   3.218   0.003  0.00  0.00    +0.144 HD
ENDBRANCH  24  27
ENDBRANCH   6  24
TORSDOF 3
