REMARK  Name = ZINC36384660
REMARK  6 active torsions:
REMARK  status: ('A' for Active; 'I' for Inactive)
REMARK    1  A    between atoms: C_10  and  C_14
REMARK    2  A    between atoms: C_14  and  N_15
REMARK    3  A    between atoms: N_18  and  C_21
REMARK    4  A    between atoms: C_21  and  N_23
REMARK    5  A    between atoms: N_23  and  C_24
REMARK    6  A    between atoms: C_24  and  C_25
REMARK                            x       y       z     vdW  Elec       q    Type
REMARK                         _______ _______ _______ _____ _____    ______ ____
ROOT
ATOM      1  N   UNL     1      -0.020  -6.555   2.835  0.00  0.00    +0.386 N 
ATOM      2  C   UNL     1       0.358  -6.760   1.431  0.00  0.00    -0.059 C 
ATOM      3  C   UNL     1      -0.732  -7.572   0.724  0.00  0.00    +0.088 C 
ATOM      4  N   UNL     1      -0.953  -8.814   1.480  0.00  0.00    -0.316 N 
ATOM      5  C   UNL     1      -1.178  -8.711   2.930  0.00  0.00    +0.088 C 
ATOM      6  C   UNL     1      -0.067  -7.845   3.534  0.00  0.00    -0.059 C 
ATOM      7  H   UNL     1      -0.928  -6.118   2.876  0.00  0.00    -0.081 HD
ENDROOT
BRANCH   4   8
ATOM      8  C   UNL     1      -0.951 -10.011   0.862  0.00  0.00    +0.133 C 
ATOM      9  S   UNL     1      -1.078 -11.450   1.782  0.00  0.00    -0.019 S 
BRANCH   8  10
ATOM     10  N   UNL     1      -0.849 -10.077  -0.480  0.00  0.00    -0.324 N 
ATOM     11  H   UNL     1      -0.704  -9.268  -0.996  0.00  0.00    +0.148 HD
BRANCH  10  12
ATOM     12  C   UNL     1      -0.956 -11.370  -1.161  0.00  0.00    +0.134 C 
BRANCH  12  13
ATOM     13  C   UNL     1      -0.806 -11.166  -2.670  0.00  0.00    +0.135 C 
ATOM     14  C   UNL     1      -1.038 -12.504  -3.404  0.00  0.00    +0.035 C 
ATOM     15  C   UNL     1       0.034 -12.453  -4.527  0.00  0.00    +0.031 C 
ATOM     16  C   UNL     1       1.180 -11.699  -3.806  0.00  0.00    +0.160 C 
ATOM     17  O   UNL     1       0.524 -10.729  -2.971  0.00  0.00    -0.375 OA
ENDBRANCH  12  13
ENDBRANCH  10  12
ENDBRANCH   8  10
ENDBRANCH   4   8
BRANCH   1  18
ATOM     18  C   UNL     1       0.970  -5.684   3.485  0.00  0.00    -0.003 C 
BRANCH  18  28
ATOM     19  C   UNL     1       0.007   1.523   0.014  0.00  0.00    +0.005 C 
ATOM     20  C   UNL     1       1.441   2.060   0.008  0.00  0.00    +0.005 C 
ATOM     21  C   UNL     1       2.082   1.764   1.371  0.00  0.00    +0.043 C 
ATOM     22  C   UNL     1       1.813   0.333   1.721  0.00  0.00    -0.004 A 
ATOM     23  C   UNL     1       0.912  -0.497   1.146  0.00  0.00    -0.023 A 
ATOM     24  C   UNL     1       0.846  -1.848   1.672  0.00  0.00    +0.075 A 
ATOM     25  C   UNL     1      -0.047  -2.943   1.223  0.00  0.00    +0.282 A 
ATOM     26  O   UNL     1      -0.853  -2.795   0.318  0.00  0.00    -0.265 OA
ATOM     27  N   UNL     1       0.088  -4.116   1.879  0.00  0.00    -0.197 NA
ATOM     28  C   UNL     1       0.933  -4.319   2.848  0.00  0.00    +0.095 A 
ATOM     29  N   UNL     1       1.782  -3.370   3.317  0.00  0.00    -0.339 N 
ATOM     30  C   UNL     1       1.728  -2.150   2.725  0.00  0.00    +0.092 A 
ATOM     31  S   UNL     1       2.604  -0.642   2.976  0.00  0.00    -0.075 S 
ATOM     32  C   UNL     1       0.024  -0.006   0.005  0.00  0.00    +0.037 C 
ATOM     33  H   UNL     1       2.400  -3.556   4.041  0.00  0.00    +0.167 HD
ENDBRANCH  18  28
ENDBRANCH   1  18
TORSDOF 6
