REMARK  Name = ZINC67210209
REMARK  10 active torsions:
REMARK  status: ('A' for Active; 'I' for Inactive)
REMARK    1  A    between atoms: C_1  and  C_2
REMARK    2  A    between atoms: C_2  and  C_4
REMARK    3  A    between atoms: C_2  and  C_24
REMARK    4  A    between atoms: C_4  and  N_5
REMARK    5  A    between atoms: C_6  and  C_8
REMARK    6  A    between atoms: C_8  and  C_9
REMARK    7  A    between atoms: C_9  and  C_10
REMARK    8  A    between atoms: C_10  and  C_11
REMARK    9  A    between atoms: C_11  and  C_12
REMARK   10  A    between atoms: C_24  and  N_25
REMARK                            x       y       z     vdW  Elec       q    Type
REMARK                         _______ _______ _______ _____ _____    ______ ____
ROOT
ATOM      1  N   UNL     1      -0.261  -0.195  -2.436  0.00  0.00    -0.315 N 
ATOM      2  C   UNL     1       0.129  -0.459  -3.699  0.00  0.00    +0.213 C 
ATOM      3  O   UNL     1       1.224  -0.934  -3.909  0.00  0.00    -0.276 OA
ATOM      4  H   UNL     1      -1.137   0.185  -2.268  0.00  0.00    +0.149 HD
ENDROOT
BRANCH   1   5
ATOM      5  C   UNL     1       0.640  -0.483  -1.317  0.00  0.00    +0.105 C 
BRANCH   5   7
ATOM      6  C   UNL     1      -0.256   1.420   0.032  0.00  0.00    +0.007 C 
ATOM      7  C   UNL     1      -0.040  -0.094  -0.002  0.00  0.00    -0.014 C 
BRANCH   7   8
ATOM      8  C   UNL     1       0.848  -0.509   1.173  0.00  0.00    -0.074 C 
BRANCH   8   9
ATOM      9  N   UNL     1       0.145  -0.242   2.435  0.00  0.00    +0.380 N 
ATOM     10  C   UNL     1       1.052  -0.495   3.561  0.00  0.00    -0.079 C 
ATOM     11  C   UNL     1       0.351  -0.142   4.875  0.00  0.00    -0.019 C 
ATOM     12  C   UNL     1      -0.905  -1.004   5.025  0.00  0.00    -0.004 C 
ATOM     13  C   UNL     1      -1.810  -0.787   3.809  0.00  0.00    -0.019 C 
ATOM     14  C   UNL     1      -1.029  -1.117   2.534  0.00  0.00    -0.079 C 
ATOM     15  H   UNL     1      -0.153   0.722   2.456  0.00  0.00    -0.082 HD
ENDBRANCH   8   9
ENDBRANCH   7   8
ENDBRANCH   5   7
ENDBRANCH   1   5
BRANCH   2  16
ATOM     16  C   UNL     1      -0.798  -0.162  -4.850  0.00  0.00    +0.096 C 
BRANCH  16  17
ATOM     17  C   UNL     1      -0.118  -0.551  -6.165  0.00  0.00    +0.009 C 
BRANCH  17  18
ATOM     18  C   UNL     1      -1.058  -0.250  -7.333  0.00  0.00    +0.002 C 
BRANCH  18  19
ATOM     19  C   UNL     1      -0.379  -0.639  -8.648  0.00  0.00    +0.016 C 
BRANCH  19  20
ATOM     20  C   UNL     1      -1.319  -0.338  -9.817  0.00  0.00    +0.069 C 
ATOM     21  C   UNL     1      -0.674  -0.678 -11.136  0.00  0.00    +0.108 C 
ATOM     22  C   UNL     1      -0.835  -2.209 -11.389  0.00  0.00    +0.105 C 
ATOM     23  C   UNL     1      -2.340  -2.466 -11.381  0.00  0.00    +0.093 C 
ATOM     24  S   UNL     1      -2.763  -1.501  -9.832  0.00  0.00    -0.154 S 
ATOM     25  N   UNL     1      -0.055  -2.328 -12.600  0.00  0.00    -0.294 N 
ATOM     26  C   UNL     1       0.939  -1.396 -12.487  0.00  0.00    +0.300 C 
ATOM     27  O   UNL     1       1.925  -1.374 -13.197  0.00  0.00    -0.253 OA
ATOM     28  N   UNL     1       0.706  -0.508 -11.483  0.00  0.00    -0.294 N 
ATOM     29  H   UNL     1      -0.204  -2.941 -13.337  0.00  0.00    +0.151 HD
ATOM     30  H   UNL     1       1.341   0.112 -11.092  0.00  0.00    +0.151 HD
ENDBRANCH  19  20
ENDBRANCH  18  19
ENDBRANCH  17  18
ENDBRANCH  16  17
ENDBRANCH   2  16
TORSDOF 9
