REMARK  Name = ZINC15276101
REMARK  12 active torsions:
REMARK  status: ('A' for Active; 'I' for Inactive)
REMARK    1  A    between atoms: C_1  and  C_2
REMARK    2  A    between atoms: C_2  and  C_3
REMARK    3  A    between atoms: C_2  and  C_4
REMARK    4  A    between atoms: C_4  and  C_5
REMARK    5  A    between atoms: C_5  and  C_34
REMARK    6  A    between atoms: C_10  and  C_12
REMARK    7  A    between atoms: C_16  and  O_19
REMARK    8  A    between atoms: C_17  and  O_18
REMARK    9  A    between atoms: O_19  and  C_20
REMARK   10  A    between atoms: N_23  and  C_26
REMARK   11  A    between atoms: C_31  and  O_32
REMARK   12  A    between atoms: O_32  and  C_33
REMARK                            x       y       z     vdW  Elec       q    Type
REMARK                         _______ _______ _______ _____ _____    ______ ____
ROOT
ATOM      1  C   UNL     1       2.540   2.066   0.216  0.00  0.00    +0.048 C 
ATOM      2  C   UNL     1       1.368   2.255  -0.677  0.00  0.00    +0.086 C 
ATOM      3  C   UNL     1       0.754   3.577  -0.067  0.00  0.00    +0.077 C 
ATOM      4  C   UNL     1       2.018   4.404  -0.051  0.00  0.00    -0.023 C 
ATOM      5  C   UNL     1      -0.379   3.718  -1.007  0.00  0.00    +0.229 C 
ATOM      6  O   UNL     1      -0.845   4.746  -1.449  0.00  0.00    -0.275 OA
ATOM      7  N   UNL     1      -0.789   2.437  -1.278  0.00  0.00    -0.206 N 
ATOM      8  C   UNL     1       0.138   1.498  -0.898  0.00  0.00    +0.229 C 
ATOM      9  O   UNL     1      -0.027   0.303  -0.778  0.00  0.00    -0.275 OA
ATOM     10  N   UNL     1       3.012   3.439   0.506  0.00  0.00    +0.396 N 
ATOM     11  H   UNL     1       3.928   3.592   0.067  0.00  0.00    -0.083 HD
ATOM     12  H   UNL     1       3.094   3.572   1.521  0.00  0.00    -0.083 HD
ENDROOT
BRANCH   4  13
ATOM     13  C   UNL     1       1.861   5.605   0.845  0.00  0.00    -0.015 A 
ATOM     14  C   UNL     1       0.829   5.651   1.765  0.00  0.00    +0.006 A 
ATOM     15  C   UNL     1       0.686   6.748   2.593  0.00  0.00    +0.004 A 
ATOM     16  C   UNL     1       1.568   7.810   2.497  0.00  0.00    +0.049 A 
ATOM     17  C   UNL     1       2.600   7.772   1.575  0.00  0.00    +0.161 A 
ATOM     18  C   UNL     1       2.747   6.665   0.745  0.00  0.00    +0.160 A 
BRANCH  18  19
ATOM     19  O   UNL     1       3.759   6.623  -0.163  0.00  0.00    -0.503 OA
ATOM     20  H   UNL     1       3.553   7.060  -1.001  0.00  0.00    +0.292 HD
ENDBRANCH  18  19
BRANCH  17  21
ATOM     21  O   UNL     1       3.467   8.816   1.479  0.00  0.00    -0.491 OA
ATOM     22  C   UNL     1       3.255   9.918   2.362  0.00  0.00    +0.277 C 
ENDBRANCH  17  21
ENDBRANCH   4  13
BRANCH   7  23
ATOM     23  C   UNL     1      -2.019   2.120  -1.874  0.00  0.00    +0.085 A 
ATOM     24  C   UNL     1      -3.138   1.899  -1.084  0.00  0.00    +0.027 A 
ATOM     25  C   UNL     1      -4.349   1.588  -1.672  0.00  0.00    +0.002 A 
ATOM     26  C   UNL     1      -4.449   1.496  -3.049  0.00  0.00    +0.004 A 
ATOM     27  C   UNL     1      -3.339   1.714  -3.842  0.00  0.00    +0.047 A 
ATOM     28  C   UNL     1      -2.122   2.032  -3.260  0.00  0.00    +0.142 A 
BRANCH  28  29
ATOM     29  O   UNL     1      -1.030   2.252  -4.039  0.00  0.00    -0.493 OA
ATOM     30  C   UNL     1      -1.210   2.145  -5.453  0.00  0.00    +0.277 C 
ENDBRANCH  28  29
ENDBRANCH   7  23
BRANCH   1  31
ATOM     31  C   UNL     1       2.124   1.373   1.488  0.00  0.00    +0.346 C 
ATOM     32  O   UNL     1       1.143   0.669   1.499  0.00  0.00    -0.248 OA
ATOM     33  O   UNL     1       2.845   1.537   2.608  0.00  0.00    -0.248 OA
ENDBRANCH   1  31
BRANCH   1  34
ATOM     34  C   UNL     1       3.632   1.266  -0.497  0.00  0.00    +0.002 C 
BRANCH  34  36
ATOM     35  C   UNL     1       5.785   0.039  -0.181  0.00  0.00    +0.007 C 
ATOM     36  C   UNL     1       4.771   0.974   0.481  0.00  0.00    -0.018 C 
ATOM     37  C   UNL     1       5.461   2.283   0.868  0.00  0.00    +0.007 C 
ENDBRANCH  34  36
ENDBRANCH   1  34
TORSDOF 8
