REMARK  Name = ZINC59006489
REMARK  6 active torsions:
REMARK  status: ('A' for Active; 'I' for Inactive)
REMARK    1  A    between atoms: C_7  and  C_11
REMARK    2  A    between atoms: N_12  and  N_13
REMARK    3  A    between atoms: C_16  and  S_19
REMARK    4  A    between atoms: S_19  and  C_20
REMARK    5  A    between atoms: C_20  and  C_21
REMARK    6  A    between atoms: N_23  and  C_24
REMARK                            x       y       z     vdW  Elec       q    Type
REMARK                         _______ _______ _______ _____ _____    ______ ____
ROOT
ATOM      1  N   UNL     1      -1.468  -4.164  -0.074  0.00  0.00    -0.205 N 
ATOM      2  C   UNL     1      -2.835  -3.963  -0.049  0.00  0.00    +0.232 A 
ATOM      3  N   UNL     1      -3.447  -2.797  -0.033  0.00  0.00    -0.186 NA
ATOM      4  C   UNL     1      -4.771  -2.984  -0.009  0.00  0.00    +0.211 A 
ATOM      5  N   UNL     1      -5.020  -4.272  -0.010  0.00  0.00    -0.144 NA
ATOM      6  N   UNL     1      -3.779  -4.929  -0.041  0.00  0.00    -0.245 N 
ATOM      7  H   UNL     1      -1.111  -5.065  -0.089  0.00  0.00    +0.177 HD
ATOM      8  H   UNL     1      -3.630  -5.887  -0.053  0.00  0.00    +0.192 HD
ENDROOT
BRANCH   1  10
ATOM      9  C   UNL     1       0.686  -3.253  -0.103  0.00  0.00    +0.140 C 
ATOM     10  N   UNL     1      -0.599  -3.065  -0.079  0.00  0.00    -0.187 NA
BRANCH   9  17
ATOM     11  C   UNL     1      -0.019   1.367  -0.048  0.00  0.00    +0.001 A 
ATOM     12  C   UNL     1       1.167   2.088  -0.061  0.00  0.00    +0.002 A 
ATOM     13  C   UNL     1       2.382   1.439  -0.088  0.00  0.00    +0.026 A 
ATOM     14  C   UNL     1       2.423   0.048  -0.102  0.00  0.00    +0.047 A 
ATOM     15  C   UNL     1       1.219  -0.675  -0.088  0.00  0.00    +0.008 A 
ATOM     16  C   UNL     1       0.000   0.001  -0.061  0.00  0.00    +0.010 A 
ATOM     17  C   UNL     1       1.599  -2.098  -0.108  0.00  0.00    +0.020 A 
ATOM     18  C   UNL     1       2.958  -2.137  -0.132  0.00  0.00    +0.093 A 
ATOM     19  N   UNL     1       3.454  -0.866  -0.129  0.00  0.00    -0.360 N 
ATOM     20  H   UNL     1       4.397  -0.639  -0.142  0.00  0.00    +0.165 HD
ENDBRANCH   9  17
ENDBRANCH   1  10
BRANCH   4  21
ATOM     21  S   UNL     1      -5.984  -1.707   0.019  0.00  0.00    -0.075 S 
BRANCH  21  22
ATOM     22  C   UNL     1      -7.562  -2.601   0.044  0.00  0.00    +0.173 C 
BRANCH  22  23
ATOM     23  C   UNL     1      -8.700  -1.613   0.070  0.00  0.00    +0.228 C 
ATOM     24  O   UNL     1      -8.468  -0.422   0.071  0.00  0.00    -0.275 OA
ATOM     25  N   UNL     1      -9.974  -2.052   0.091  0.00  0.00    -0.283 N 
ATOM     26  H   UNL     1     -10.161  -3.001   0.025  0.00  0.00    +0.155 HD
BRANCH  25  27
ATOM     27  C   UNL     1     -11.028  -1.137   0.209  0.00  0.00    +0.069 A 
ATOM     28  C   UNL     1     -10.932   0.115  -0.382  0.00  0.00    +0.027 A 
ATOM     29  C   UNL     1     -11.973   1.016  -0.265  0.00  0.00    +0.022 A 
ATOM     30  C   UNL     1     -13.112   0.672   0.442  0.00  0.00    +0.044 A 
ATOM     31  C   UNL     1     -13.212  -0.575   1.033  0.00  0.00    +0.060 A 
ATOM     32  C   UNL     1     -12.175  -1.483   0.914  0.00  0.00    +0.146 A 
ATOM     33  F   UNL     1     -12.275  -2.703   1.486  0.00  0.00    -0.203 F 
ATOM     34 CL   UNL     1     -14.417   1.807   0.587  0.00  0.00    -0.083 Cl
ENDBRANCH  25  27
ENDBRANCH  22  23
ENDBRANCH  21  22
ENDBRANCH   4  21
TORSDOF 6
