REMARK  Name = ZINC06177888
REMARK  13 active torsions:
REMARK  status: ('A' for Active; 'I' for Inactive)
REMARK    1  A    between atoms: C_1  and  C_2
REMARK    2  A    between atoms: C_4  and  C_38
REMARK    3  A    between atoms: C_9  and  C_14
REMARK    4  A    between atoms: C_14  and  C_16
REMARK    5  A    between atoms: C_14  and  N_68
REMARK    6  A    between atoms: N_20  and  C_21
REMARK    7  A    between atoms: C_21  and  C_22
REMARK    8  A    between atoms: C_21  and  C_23
REMARK    9  A    between atoms: C_21  and  C_24
REMARK   10  A    between atoms: C_25  and  C_26
REMARK   11  A    between atoms: C_25  and  N_68
REMARK   12  A    between atoms: C_32  and  C_33
REMARK   13  A    between atoms: C_32  and  N_68
REMARK                            x       y       z     vdW  Elec       q    Type
REMARK                         _______ _______ _______ _____ _____    ______ ____
ROOT
ATOM      1  C   UNL     1      -1.754  -0.181  -2.508  0.00  0.00    +0.040 C 
ENDROOT
BRANCH   1  10
ATOM      2  C   UNL     1       1.067   6.560  -1.020  0.00  0.00    +0.044 C 
ATOM      3  C   UNL     1       1.253   5.100  -1.346  0.00  0.00    -0.050 A 
ATOM      4  C   UNL     1       2.534   4.580  -1.470  0.00  0.00    +0.008 A 
ATOM      5  C   UNL     1       2.727   3.248  -1.766  0.00  0.00    -0.026 A 
ATOM      6  C   UNL     1       1.628   2.415  -1.946  0.00  0.00    +0.052 A 
ATOM      7  C   UNL     1       0.330   2.946  -1.821  0.00  0.00    -0.001 A 
ATOM      8  C   UNL     1       0.158   4.301  -1.518  0.00  0.00    +0.013 A 
ATOM      9  C   UNL     1      -0.820   2.062  -2.017  0.00  0.00    +0.017 A 
ATOM     10  C   UNL     1      -0.593   0.756  -2.305  0.00  0.00    +0.011 A 
ATOM     11  C   UNL     1       0.729   0.274  -2.419  0.00  0.00    +0.251 A 
ATOM     12  O   UNL     1       0.911  -0.902  -2.683  0.00  0.00    -0.268 OA
ATOM     13  N   UNL     1       1.792   1.079  -2.245  0.00  0.00    -0.322 N 
ATOM     14  H   UNL     1       2.686   0.715  -2.331  0.00  0.00    +0.169 HD
ATOM     15  C   UNL     1       4.123   2.697  -1.897  0.00  0.00    +0.046 C 
ENDBRANCH   1  10
BRANCH   1  16
ATOM     16  C   UNL     1      -1.776  -0.651  -3.940  0.00  0.00    +0.143 A 
ATOM     17  N   UNL     1      -0.903  -1.439  -4.518  0.00  0.00    -0.115 NA
ATOM     18  N   UNL     1      -1.267  -1.607  -5.743  0.00  0.00    -0.023 NA
ATOM     19  N   UNL     1      -2.350  -0.946  -5.960  0.00  0.00    -0.043 NA
ATOM     20  N   UNL     1      -2.699  -0.347  -4.872  0.00  0.00    -0.225 N 
BRANCH  20  21
ATOM     21  C   UNL     1      -3.875   0.505  -4.686  0.00  0.00    +0.059 C 
ATOM     22  C   UNL     1      -3.432   1.887  -4.200  0.00  0.00    +0.036 C 
ATOM     23  C   UNL     1      -4.619   0.646  -6.015  0.00  0.00    +0.036 C 
ATOM     24  C   UNL     1      -4.804  -0.127  -3.647  0.00  0.00    +0.036 C 
ENDBRANCH  20  21
ENDBRANCH   1  16
BRANCH   1  25
ATOM     25  N   UNL     1      -1.587  -1.351  -1.621  0.00  0.00    +0.397 N 
ATOM     26  H   UNL     1      -0.684  -1.797  -1.824  0.00  0.00    -0.079 HD
BRANCH  25  27
ATOM     27  C   UNL     1      -2.670  -2.328  -1.862  0.00  0.00    -0.039 C 
BRANCH  27  28
ATOM     28  C   UNL     1      -2.248  -3.664  -1.306  0.00  0.00    -0.046 A 
ATOM     29  C   UNL     1      -1.499  -4.540  -2.077  0.00  0.00    +0.005 A 
ATOM     30  C   UNL     1      -1.130  -5.756  -1.523  0.00  0.00    +0.020 A 
ATOM     31  C   UNL     1      -1.527  -6.056  -0.233  0.00  0.00    +0.111 A 
ATOM     32  N   UNL     1      -2.244  -5.201   0.469  0.00  0.00    -0.263 NA
ATOM     33  C   UNL     1      -2.609  -4.033  -0.025  0.00  0.00    +0.112 A 
ENDBRANCH  27  28
ENDBRANCH  25  27
BRANCH  25  34
ATOM     34  C   UNL     1      -1.601  -0.920  -0.207  0.00  0.00    -0.001 C 
BRANCH  34  35
ATOM     35  C   UNL     1      -2.900  -0.230   0.121  0.00  0.00    +0.089 A 
ATOM     36  C   UNL     1      -4.005  -0.824   0.609  0.00  0.00    +0.042 A 
ATOM     37  C   UNL     1      -4.978   0.190   0.768  0.00  0.00    +0.041 A 
ATOM     38  C   UNL     1      -4.410   1.341   0.368  0.00  0.00    +0.195 A 
ATOM     39  O   UNL     1      -3.152   1.081  -0.023  0.00  0.00    -0.470 OA
ENDBRANCH  34  35
ENDBRANCH  25  34
ENDBRANCH   1  25
TORSDOF 8
