REMARK  Name = ZINC36156612
REMARK  13 active torsions:
REMARK  status: ('A' for Active; 'I' for Inactive)
REMARK    1  A    between atoms: C_1  and  C_2
REMARK    2  A    between atoms: C_2  and  C_3
REMARK    3  A    between atoms: C_2  and  C_4
REMARK    4  A    between atoms: C_4  and  O_5
REMARK    5  A    between atoms: O_5  and  C_6
REMARK    6  A    between atoms: C_6  and  C_7
REMARK    7  A    between atoms: C_7  and  C_9
REMARK    8  A    between atoms: C_7  and  O_33
REMARK    9  A    between atoms: C_9  and  N_10
REMARK   10  A    between atoms: N_10  and  C_11
REMARK   11  A    between atoms: N_10  and  C_17
REMARK   12  A    between atoms: C_11  and  C_12
REMARK   13  A    between atoms: C_17  and  C_18
REMARK                            x       y       z     vdW  Elec       q    Type
REMARK                         _______ _______ _______ _____ _____    ______ ____
ROOT
ATOM      1  N   UNL     1      -3.578  -5.863  -0.257  0.00  0.00    +0.391 N 
ATOM      2  H   UNL     1      -2.913  -6.064  -0.989  0.00  0.00    -0.080 HD
ENDROOT
BRANCH   1   3
ATOM      3  C   UNL     1      -3.950  -4.443  -0.309  0.00  0.00    -0.044 C 
BRANCH   3   4
ATOM      4  C   UNL     1      -2.687  -3.582  -0.239  0.00  0.00    +0.124 C 
BRANCH   4   5
ATOM      5  O   UNL     1      -1.892  -3.807  -1.405  0.00  0.00    -0.391 OA
ATOM      6  H   UNL     1      -2.340  -3.591  -2.234  0.00  0.00    +0.210 HD
ENDBRANCH   4   5
BRANCH   4   7
ATOM      7  C   UNL     1      -3.080  -2.105  -0.168  0.00  0.00    +0.189 C 
BRANCH   7   8
ATOM      8  O   UNL     1      -1.908  -1.308   0.015  0.00  0.00    -0.377 OA
BRANCH   8   9
ATOM      9  C   UNL     1      -2.165   0.095   0.095  0.00  0.00    +0.163 C 
BRANCH   9  11
ATOM     10  C   UNL     1      -1.106   2.353   0.249  0.00  0.00    +0.009 C 
ATOM     11  C   UNL     1      -0.846   0.845   0.288  0.00  0.00    +0.009 C 
ATOM     12  C   UNL     1      -0.238   0.468   1.641  0.00  0.00    +0.009 C 
ENDBRANCH   9  11
ENDBRANCH   8   9
ENDBRANCH   7   8
ENDBRANCH   4   7
ENDBRANCH   3   4
ENDBRANCH   1   3
BRANCH   1  13
ATOM     13  C   UNL     1      -2.974  -6.164   1.048  0.00  0.00    -0.002 C 
BRANCH  13  14
ATOM     14  C   UNL     1      -2.475  -7.586   1.055  0.00  0.00    +0.089 A 
ATOM     15  C   UNL     1      -1.284  -8.004   0.591  0.00  0.00    +0.042 A 
ATOM     16  C   UNL     1      -1.232  -9.402   0.794  0.00  0.00    +0.041 A 
ATOM     17  C   UNL     1      -2.395  -9.755   1.370  0.00  0.00    +0.195 A 
ATOM     18  O   UNL     1      -3.142  -8.650   1.531  0.00  0.00    -0.470 OA
ENDBRANCH  13  14
ENDBRANCH   1  13
BRANCH   1  19
ATOM     19  C   UNL     1      -4.777  -6.691  -0.444  0.00  0.00    -0.003 C 
BRANCH  19  20
ATOM     20  C   UNL     1      -5.298  -6.510  -1.846  0.00  0.00    +0.094 A 
ATOM     21  N   UNL     1      -6.476  -7.087  -2.199  0.00  0.00    -0.312 N 
ATOM     22  H   UNL     1      -6.965  -7.607  -1.543  0.00  0.00    +0.170 HD
ATOM     23  C   UNL     1      -6.978  -6.950  -3.440  0.00  0.00    +0.260 A 
ATOM     24  O   UNL     1      -8.037  -7.474  -3.741  0.00  0.00    -0.267 OA
ATOM     25  C   UNL     1      -6.247  -6.179  -4.402  0.00  0.00    +0.075 A 
ATOM     26  C   UNL     1      -6.594  -5.899  -5.795  0.00  0.00    -0.023 A 
ATOM     27  C   UNL     1      -5.731  -5.138  -6.500  0.00  0.00    -0.004 A 
ATOM     28  S   UNL     1      -4.423  -4.755  -5.365  0.00  0.00    -0.073 S 
ATOM     29  C   UNL     1      -5.042  -5.622  -3.945  0.00  0.00    +0.116 A 
ATOM     30  N   UNL     1      -4.612  -5.797  -2.699  0.00  0.00    -0.229 NA
ATOM     31  C   UNL     1      -5.854  -4.712  -7.931  0.00  0.00    +0.043 C 
ATOM     32  C   UNL     1      -6.931  -5.578  -8.602  0.00  0.00    +0.005 C 
ATOM     33  C   UNL     1      -8.167  -5.612  -7.697  0.00  0.00    +0.005 C 
ATOM     34  C   UNL     1      -7.869  -6.433  -6.442  0.00  0.00    +0.037 C 
ENDBRANCH  19  20
ENDBRANCH   1  19
TORSDOF 11
