REMARK  Name = ZINC09693602
REMARK  8 active torsions:
REMARK  status: ('A' for Active; 'I' for Inactive)
REMARK    1  A    between atoms: C_1  and  O_2
REMARK    2  A    between atoms: O_2  and  C_3
REMARK    3  A    between atoms: C_6  and  N_9
REMARK    4  A    between atoms: C_15  and  C_23
REMARK    5  A    between atoms: C_17  and  C_21
REMARK    6  A    between atoms: C_25  and  O_31
REMARK    7  A    between atoms: C_26  and  O_30
REMARK    8  A    between atoms: O_31  and  C_32
REMARK                            x       y       z     vdW  Elec       q    Type
REMARK                         _______ _______ _______ _____ _____    ______ ____
ROOT
ATOM      1  N   UNL     1       5.633   4.975  -1.132  0.00  0.00    -0.304 N 
ATOM      2  C   UNL     1       4.591   4.729  -0.141  0.00  0.00    +0.222 C 
ATOM      3  N   UNL     1       4.153   3.334  -0.110  0.00  0.00    -0.248 N 
ATOM      4  C   UNL     1       3.781   2.837   1.093  0.00  0.00    +0.222 C 
ATOM      5  O   UNL     1       3.836   3.545   2.076  0.00  0.00    -0.275 OA
ATOM      6  C   UNL     1       3.302   1.417   1.228  0.00  0.00    +0.110 C 
ATOM      7  C   UNL     1       2.490   1.046  -0.016  0.00  0.00    +0.071 C 
ATOM      8  C   UNL     1       3.272   1.436  -1.241  0.00  0.00    +0.065 C 
ATOM      9  C   UNL     1       4.064   2.551  -1.236  0.00  0.00    +0.087 C 
ATOM     10  S   UNL     1       4.946   2.947  -2.712  0.00  0.00    -0.090 S 
ATOM     11  C   UNL     1       5.122   4.737  -2.493  0.00  0.00    +0.182 C 
ENDROOT
BRANCH   7  12
ATOM     12  C   UNL     1       1.175   1.783   0.000  0.00  0.00    -0.034 A 
ATOM     13  C   UNL     1      -0.013   1.076   0.008  0.00  0.00    +0.053 A 
ATOM     14  C   UNL     1      -1.222   1.752   0.017  0.00  0.00    +0.163 A 
ATOM     15  C   UNL     1      -1.238   3.143   0.031  0.00  0.00    +0.173 A 
ATOM     16  C   UNL     1      -0.043   3.847   0.023  0.00  0.00    +0.063 A 
ATOM     17  C   UNL     1       1.161   3.165   0.007  0.00  0.00    +0.023 A 
ATOM     18 BR   UNL     1      -0.059   5.738   0.034  0.00  0.00    -0.046 Br
BRANCH  15  19
ATOM     19  O   UNL     1      -2.422   3.812   0.047  0.00  0.00    -0.503 OA
ATOM     20  H   UNL     1      -2.773   4.010  -0.832  0.00  0.00    +0.292 HD
ENDBRANCH  15  19
BRANCH  14  21
ATOM     21  O   UNL     1      -2.391   1.057   0.019  0.00  0.00    -0.491 OA
ATOM     22  C   UNL     1      -2.298  -0.369   0.010  0.00  0.00    +0.277 C 
ENDBRANCH  14  21
ENDBRANCH   7  12
BRANCH   1  26
ATOM     23  C   UNL     1       7.164   8.834  -0.763  0.00  0.00    +0.120 A 
ATOM     24  C   UNL     1       7.659   7.982  -1.740  0.00  0.00    +0.047 A 
ATOM     25  C   UNL     1       7.152   6.703  -1.862  0.00  0.00    +0.027 A 
ATOM     26  C   UNL     1       6.147   6.271  -1.008  0.00  0.00    +0.032 A 
ATOM     27  C   UNL     1       5.648   7.126  -0.035  0.00  0.00    +0.027 A 
ATOM     28  C   UNL     1       6.160   8.402   0.091  0.00  0.00    +0.047 A 
BRANCH  23  30
ATOM     29  C   UNL     1       7.108  10.916   0.385  0.00  0.00    +0.277 C 
ATOM     30  O   UNL     1       7.664  10.093  -0.643  0.00  0.00    -0.495 OA
ENDBRANCH  23  30
ENDBRANCH   1  26
BRANCH   8  31
ATOM     31  C   UNL     1       3.186   0.633  -2.424  0.00  0.00    +0.098 C 
ATOM     32  N   UNL     1       3.118  -0.005  -3.361  0.00  0.00    -0.191 NA
ENDBRANCH   8  31
TORSDOF 6
