REMARK  Name = ZINC01081848
REMARK  9 active torsions:
REMARK  status: ('A' for Active; 'I' for Inactive)
REMARK    1  A    between atoms: C_1  and  C_2
REMARK    2  A    between atoms: C_4  and  N_9
REMARK    3  A    between atoms: N_9  and  C_10
REMARK    4  A    between atoms: C_10  and  C_11
REMARK    5  A    between atoms: N_13  and  N_14
REMARK    6  A    between atoms: C_15  and  C_16
REMARK    7  A    between atoms: C_20  and  C_23
REMARK    8  A    between atoms: C_21  and  O_22
REMARK    9  A    between atoms: C_23  and  C_24
REMARK                            x       y       z     vdW  Elec       q    Type
REMARK                         _______ _______ _______ _____ _____    ______ ____
ROOT
ATOM      1  C   UNL     1       4.982  -3.994  -0.067  0.00  0.00    +0.249 C 
ATOM      2  O   UNL     1       3.944  -4.621  -0.061  0.00  0.00    -0.272 OA
ATOM      3  N   UNL     1       4.955  -2.646  -0.060  0.00  0.00    -0.206 N 
ATOM      4  H   UNL     1       5.786  -2.144  -0.065  0.00  0.00    +0.177 HD
ENDROOT
BRANCH   3   5
ATOM      5  N   UNL     1       3.728  -1.970  -0.044  0.00  0.00    -0.188 NA
ATOM      6  C   UNL     1       3.702  -0.672  -0.037  0.00  0.00    +0.142 C 
BRANCH   6   7
ATOM      7  C   UNL     1       2.412   0.039  -0.021  0.00  0.00    +0.036 A 
ATOM      8  C   UNL     1       2.379   1.435  -0.013  0.00  0.00    +0.013 A 
ATOM      9  C   UNL     1       1.168   2.094   0.002  0.00  0.00    +0.001 A 
ATOM     10  C   UNL     1      -0.017   1.378   0.010  0.00  0.00    +0.007 A 
ATOM     11  C   UNL     1       0.002  -0.004   0.002  0.00  0.00    -0.002 A 
ATOM     12  C   UNL     1       1.210  -0.682  -0.014  0.00  0.00    +0.129 A 
BRANCH  12  13
ATOM     13  O   UNL     1       1.229  -2.040  -0.021  0.00  0.00    -0.506 OA
ATOM     14  H   UNL     1       1.226  -2.429  -0.907  0.00  0.00    +0.292 HD
ENDBRANCH  12  13
BRANCH  11  15
ATOM     15  C   UNL     1      -1.293  -0.774   0.010  0.00  0.00    +0.065 C 
BRANCH  15  16
ATOM     16  C   UNL     1      -1.648  -1.145   1.427  0.00  0.00    -0.030 C 
ATOM     17  C   UNL     1      -2.814  -0.807   1.920  0.00  0.00    +0.004 C 
ENDBRANCH  15  16
ENDBRANCH  11  15
ENDBRANCH   6   7
ENDBRANCH   3   5
BRANCH   1  18
ATOM     18  C   UNL     1       6.302  -4.721  -0.084  0.00  0.00    +0.199 C 
BRANCH  18  19
ATOM     19  N   UNL     1       6.063  -6.166  -0.089  0.00  0.00    -0.335 N 
ATOM     20  H   UNL     1       5.156  -6.508  -0.083  0.00  0.00    +0.147 HD
BRANCH  19  24
ATOM     21  C   UNL     1       7.745 -10.784  -0.130  0.00  0.00    +0.045 C 
ATOM     22  C   UNL     1       7.988  -9.297  -0.124  0.00  0.00    -0.036 A 
ATOM     23  C   UNL     1       6.918  -8.423  -0.110  0.00  0.00    +0.027 A 
ATOM     24  C   UNL     1       7.143  -7.053  -0.104  0.00  0.00    +0.028 A 
ATOM     25  C   UNL     1       8.444  -6.565  -0.120  0.00  0.00    +0.024 A 
ATOM     26  C   UNL     1       9.509  -7.443  -0.128  0.00  0.00    +0.016 A 
ATOM     27  C   UNL     1       9.282  -8.808  -0.134  0.00  0.00    +0.016 A 
ATOM     28  I   UNL     1      10.901 -10.137  -0.157  0.00  0.00    -0.044 I 
ENDBRANCH  19  24
ENDBRANCH  18  19
ENDBRANCH   1  18
TORSDOF 8
