REMARK  Name = ZINC35418817
REMARK  8 active torsions:
REMARK  status: ('A' for Active; 'I' for Inactive)
REMARK    1  A    between atoms: C_1  and  C_2
REMARK    2  A    between atoms: C_2  and  C_3
REMARK    3  A    between atoms: C_3  and  C_4
REMARK    4  A    between atoms: C_4  and  S_5
REMARK    5  A    between atoms: S_5  and  C_6
REMARK    6  A    between atoms: C_13  and  C_27
REMARK    7  A    between atoms: C_21  and  C_25
REMARK    8  A    between atoms: C_21  and  C_26
REMARK                            x       y       z     vdW  Elec       q    Type
REMARK                         _______ _______ _______ _____ _____    ______ ____
ROOT
ATOM      1  C   UNL     1       1.900  -4.711  -3.913  0.00  0.00    +0.171 A 
ATOM      2  N   UNL     1       1.404  -4.841  -2.700  0.00  0.00    -0.208 NA
ATOM      3  C   UNL     1       1.226  -6.050  -2.150  0.00  0.00    +0.131 A 
ATOM      4  C   UNL     1       1.567  -7.186  -2.863  0.00  0.00    +0.065 A 
ATOM      5  C   UNL     1       2.094  -7.040  -4.152  0.00  0.00    +0.258 A 
ATOM      6  O   UNL     1       2.406  -8.020  -4.809  0.00  0.00    -0.267 OA
ATOM      7  N   UNL     1       2.246  -5.799  -4.657  0.00  0.00    -0.302 N 
ATOM      8  C   UNL     1       1.386  -8.568  -2.292  0.00  0.00    +0.070 C 
ATOM      9  C   UNL     1       0.378  -8.526  -1.144  0.00  0.00    +0.087 C 
ATOM     10  C   UNL     1       0.809  -7.422  -0.164  0.00  0.00    +0.083 C 
ATOM     11  N   UNL     1       0.702  -6.140  -0.872  0.00  0.00    -0.325 N 
ATOM     12  C   UNL     1      -0.106  -7.454   1.058  0.00  0.00    +0.029 C 
ATOM     13  C   UNL     1       0.078  -8.778   1.803  0.00  0.00    -0.027 C 
ATOM     14  C   UNL     1      -0.350  -9.940   0.903  0.00  0.00    +0.081 C 
ATOM     15  C   UNL     1       0.370  -9.846  -0.410  0.00  0.00    +0.140 C 
ATOM     16  O   UNL     1       0.959 -10.805  -0.848  0.00  0.00    -0.297 OA
ATOM     17  C   UNL     1       1.549  -8.946   2.187  0.00  0.00    +0.011 C 
ATOM     18  C   UNL     1      -0.780  -8.772   3.070  0.00  0.00    +0.011 C 
ATOM     19  H   UNL     1       0.276  -5.376  -0.454  0.00  0.00    +0.148 HD
ATOM     20  H   UNL     1       2.606  -5.680  -5.550  0.00  0.00    +0.171 HD
ENDROOT
BRANCH   8  21
ATOM     21  C   UNL     1       2.708  -9.075  -1.778  0.00  0.00    -0.039 A 
ATOM     22  C   UNL     1       3.115 -10.363  -2.069  0.00  0.00    +0.004 A 
ATOM     23  C   UNL     1       4.329 -10.828  -1.598  0.00  0.00    +0.000 A 
ATOM     24  C   UNL     1       5.135 -10.004  -0.835  0.00  0.00    +0.000 A 
ATOM     25  C   UNL     1       4.729  -8.716  -0.544  0.00  0.00    +0.000 A 
ATOM     26  C   UNL     1       3.517  -8.249  -1.020  0.00  0.00    +0.004 A 
ENDBRANCH   8  21
BRANCH   1  27
ATOM     27  S   UNL     1       2.114  -3.098  -4.590  0.00  0.00    -0.088 S 
BRANCH  27  28
ATOM     28  C   UNL     1       1.535  -1.990  -3.276  0.00  0.00    +0.077 C 
BRANCH  28  29
ATOM     29  C   UNL     1       1.667  -0.538  -3.738  0.00  0.00    +0.011 C 
BRANCH  29  31
ATOM     30  C   UNL     1       1.311   1.849  -3.091  0.00  0.00    +0.004 C 
ATOM     31  C   UNL     1       1.178   0.397  -2.629  0.00  0.00    -0.003 C 
ENDBRANCH  29  31
ENDBRANCH  28  29
ENDBRANCH  27  28
ENDBRANCH   1  27
TORSDOF 5
