REMARK  Name = ZINC25126411
REMARK  7 active torsions:
REMARK  status: ('A' for Active; 'I' for Inactive)
REMARK    1  A    between atoms: C_1  and  C_2
REMARK    2  A    between atoms: C_5  and  N_8
REMARK    3  A    between atoms: C_13  and  C_15
REMARK    4  A    between atoms: N_17  and  C_18
REMARK    5  A    between atoms: C_18  and  C_19
REMARK    6  A    between atoms: C_19  and  C_21
REMARK    7  A    between atoms: C_19  and  N_22
REMARK                            x       y       z     vdW  Elec       q    Type
REMARK                         _______ _______ _______ _____ _____    ______ ____
ROOT
ATOM      1  C   UNL     1       0.297  -6.535  -2.487  0.00  0.00    +0.278 C 
ATOM      2  O   UNL     1      -0.101  -7.674  -2.336  0.00  0.00    -0.267 OA
ATOM      3  N   UNL     1       0.365  -6.003  -3.724  0.00  0.00    -0.311 N 
ATOM      4  H   UNL     1       0.751  -5.123  -3.853  0.00  0.00    +0.149 HD
ENDROOT
BRANCH   1  10
ATOM      5  N   UNL     1       1.425  -3.713  -0.358  0.00  0.00    -0.158 N 
ATOM      6  C   UNL     1       1.746  -4.296   0.814  0.00  0.00    +0.256 C 
ATOM      7  O   UNL     1       2.058  -3.618   1.769  0.00  0.00    -0.272 OA
ATOM      8  C   UNL     1       1.714  -5.802   0.927  0.00  0.00    +0.201 C 
ATOM      9  N   UNL     1       0.734  -6.313  -0.044  0.00  0.00    -0.315 N 
ATOM     10  C   UNL     1       0.706  -5.736  -1.318  0.00  0.00    +0.200 C 
ATOM     11  N   UNL     1       1.039  -4.484  -1.460  0.00  0.00    -0.152 NA
ATOM     12  H   UNL     1       0.124  -7.029   0.193  0.00  0.00    +0.148 HD
BRANCH   5  17
ATOM     13  C   UNL     1       1.615   1.938  -0.821  0.00  0.00    +0.044 C 
ATOM     14  C   UNL     1       1.565   0.437  -0.699  0.00  0.00    -0.050 A 
ATOM     15  C   UNL     1       0.451  -0.254  -1.139  0.00  0.00    +0.005 A 
ATOM     16  C   UNL     1       0.401  -1.630  -1.028  0.00  0.00    +0.026 A 
ATOM     17  C   UNL     1       1.472  -2.319  -0.473  0.00  0.00    +0.060 A 
ATOM     18  C   UNL     1       2.589  -1.622  -0.032  0.00  0.00    +0.026 A 
ATOM     19  C   UNL     1       2.635  -0.247  -0.151  0.00  0.00    +0.005 A 
ENDBRANCH   5  17
ENDBRANCH   1  10
BRANCH   3  20
ATOM     20  C   UNL     1      -0.143  -6.755  -4.873  0.00  0.00    +0.089 C 
BRANCH  20  21
ATOM     21  C   UNL     1      -0.073  -5.881  -6.127  0.00  0.00    -0.054 C 
ATOM     22  C   UNL     1      -0.680  -6.636  -7.311  0.00  0.00    -0.012 C 
BRANCH  21  23
ATOM     23  N   UNL     1      -0.825  -4.639  -5.900  0.00  0.00    +0.385 N 
ATOM     24  C   UNL     1      -2.243  -4.963  -5.696  0.00  0.00    -0.073 C 
ATOM     25  C   UNL     1      -2.961  -3.723  -5.137  0.00  0.00    +0.024 C 
ATOM     26  C   UNL     1      -2.552  -2.552  -5.970  0.00  0.00    -0.011 A 
ATOM     27  C   UNL     1      -1.518  -2.513  -6.858  0.00  0.00    -0.054 A 
ATOM     28  C   UNL     1      -1.323  -1.310  -7.532  0.00  0.00    +0.009 A 
ATOM     29  C   UNL     1      -2.138  -0.256  -7.286  0.00  0.00    +0.045 A 
ATOM     30  S   UNL     1      -3.251  -0.928  -6.059  0.00  0.00    -0.101 S 
ATOM     31  C   UNL     1      -0.653  -3.753  -7.058  0.00  0.00    -0.042 C 
ATOM     32  H   UNL     1      -0.467  -4.181  -5.076  0.00  0.00    -0.081 HD
ENDBRANCH  21  23
ENDBRANCH  20  21
ENDBRANCH   3  20
TORSDOF 5
