REMARK  Name = ZINC36499955
REMARK  18 active torsions:
REMARK  status: ('A' for Active; 'I' for Inactive)
REMARK    1  A    between atoms: C_1  and  C_2
REMARK    2  A    between atoms: C_2  and  C_3
REMARK    3  A    between atoms: C_2  and  C_4
REMARK    4  A    between atoms: C_2  and  C_5
REMARK    5  A    between atoms: C_5  and  C_6
REMARK    6  A    between atoms: C_6  and  C_7
REMARK    7  A    between atoms: C_6  and  C_8
REMARK    8  A    between atoms: C_6  and  N_9
REMARK    9  A    between atoms: C_10  and  C_12
REMARK   10  A    between atoms: C_12  and  C_14
REMARK   11  A    between atoms: C_12  and  N_23
REMARK   12  A    between atoms: C_15  and  O_22
REMARK   13  A    between atoms: C_17  and  O_21
REMARK   14  A    between atoms: C_19  and  O_20
REMARK   15  A    between atoms: N_23  and  C_24
REMARK   16  A    between atoms: C_24  and  C_25
REMARK   17  A    between atoms: C_30  and  C_32
REMARK   18  A    between atoms: C_33  and  C_34
REMARK                            x       y       z     vdW  Elec       q    Type
REMARK                         _______ _______ _______ _____ _____    ______ ____
ROOT
ATOM      1  C   UNL     1       5.212  -0.116  -4.468  0.00  0.00    +0.200 C 
ENDROOT
BRANCH   1   2
ATOM      2  C   UNL     1       4.449   0.589  -5.561  0.00  0.00    +0.065 A 
ATOM      3  C   UNL     1       4.631   1.948  -5.767  0.00  0.00    +0.129 A 
ATOM      4  C   UNL     1       3.929   2.596  -6.773  0.00  0.00    +0.091 A 
ATOM      5  C   UNL     1       3.047   1.885  -7.572  0.00  0.00    +0.124 A 
ATOM      6  C   UNL     1       2.866   0.525  -7.366  0.00  0.00    +0.091 A 
ATOM      7  C   UNL     1       3.571  -0.123  -6.363  0.00  0.00    +0.129 A 
BRANCH   7   8
ATOM      8  O   UNL     1       3.397  -1.457  -6.164  0.00  0.00    -0.506 OA
ATOM      9  H   UNL     1       2.691  -1.672  -5.539  0.00  0.00    +0.292 HD
ENDBRANCH   7   8
BRANCH   5  10
ATOM     10  O   UNL     1       2.358   2.520  -8.556  0.00  0.00    -0.507 OA
ATOM     11  H   UNL     1       2.813   2.531  -9.410  0.00  0.00    +0.292 HD
ENDBRANCH   5  10
BRANCH   3  12
ATOM     12  O   UNL     1       5.496   2.645  -4.984  0.00  0.00    -0.506 OA
ATOM     13  H   UNL     1       6.381   2.739  -5.363  0.00  0.00    +0.292 HD
ENDBRANCH   3  12
ENDBRANCH   1   2
BRANCH   1  15
ATOM     14  N   UNL     1       3.327  -0.238  -2.871  0.00  0.00    -0.308 N 
ATOM     15  C   UNL     1       4.578   0.190  -3.136  0.00  0.00    +0.239 C 
ATOM     16  O   UNL     1       5.192   0.820  -2.302  0.00  0.00    -0.273 OA
ATOM     17  H   UNL     1       2.836  -0.742  -3.538  0.00  0.00    +0.149 HD
BRANCH  14  18
ATOM     18  C   UNL     1       2.710   0.059  -1.576  0.00  0.00    +0.030 C 
ATOM     19  C   UNL     1       2.951   1.527  -1.221  0.00  0.00    +0.031 C 
ATOM     20  C   UNL     1       3.330  -0.834  -0.499  0.00  0.00    +0.031 C 
BRANCH  18  21
ATOM     21  C   UNL     1       1.206  -0.207  -1.654  0.00  0.00    +0.031 C 
BRANCH  21  23
ATOM     22  C   UNL     1       0.903  -0.562  -4.109  0.00  0.00    +0.010 C 
ATOM     23  C   UNL     1       0.648   0.397  -2.945  0.00  0.00    -0.036 C 
ATOM     24  C   UNL     1       1.340   1.733  -3.223  0.00  0.00    +0.010 C 
ATOM     25  C   UNL     1      -0.857   0.625  -2.792  0.00  0.00    +0.010 C 
ENDBRANCH  21  23
ENDBRANCH  18  21
ENDBRANCH  14  18
ENDBRANCH   1  15
BRANCH   1  26
ATOM     26  N   UNL     1       6.602   0.348  -4.465  0.00  0.00    -0.268 N 
ATOM     27  C   UNL     1       7.403   0.083  -5.516  0.00  0.00    +0.293 C 
ATOM     28  O   UNL     1       6.972  -0.542  -6.467  0.00  0.00    -0.260 OA
BRANCH  27  29
ATOM     29  C   UNL     1       8.761   0.536  -5.513  0.00  0.00    -0.003 C 
ATOM     30  C   UNL     1       9.875   0.908  -5.511  0.00  0.00    -0.057 C 
BRANCH  30  31
ATOM     31  C   UNL     1      11.233   1.362  -5.508  0.00  0.00    +0.025 A 
ATOM     32  C   UNL     1      11.733   2.076  -4.414  0.00  0.00    +0.017 A 
ATOM     33  C   UNL     1      13.042   2.509  -4.418  0.00  0.00    +0.001 A 
ATOM     34  C   UNL     1      13.861   2.239  -5.502  0.00  0.00    +0.000 A 
ATOM     35  C   UNL     1      13.373   1.534  -6.588  0.00  0.00    +0.001 A 
ATOM     36  C   UNL     1      12.068   1.089  -6.596  0.00  0.00    +0.017 A 
ENDBRANCH  30  31
ENDBRANCH  27  29
BRANCH  26  37
ATOM     37  C   UNL     1       7.120   1.101  -3.320  0.00  0.00    +0.184 C 
BRANCH  37  38
ATOM     38  C   UNL     1       7.556   0.141  -2.244  0.00  0.00    +0.122 A 
ATOM     39  C   UNL     1       8.806  -0.318  -2.058  0.00  0.00    +0.046 A 
ATOM     40  C   UNL     1       8.762  -1.188  -0.944  0.00  0.00    +0.041 A 
ATOM     41  C   UNL     1       7.487  -1.208  -0.516  0.00  0.00    +0.195 A 
ATOM     42  O   UNL     1       6.762  -0.397  -1.303  0.00  0.00    -0.466 OA
ENDBRANCH  37  38
ENDBRANCH  26  37
ENDBRANCH   1  26
TORSDOF 13
