REMARK  Name = ZINC20710210
REMARK  4 active torsions:
REMARK  status: ('A' for Active; 'I' for Inactive)
REMARK    1  A    between atoms: C_6  and  C_7
REMARK    2  A    between atoms: C_23  and  C_26
REMARK    3  A    between atoms: C_28  and  N_33
REMARK    4  A    between atoms: C_31  and  O_32
REMARK                            x       y       z     vdW  Elec       q    Type
REMARK                         _______ _______ _______ _____ _____    ______ ____
ROOT
ATOM      1  C   UNL     1       2.390   1.321  -0.029  0.00  0.00    +0.015 A 
ATOM      2  C   UNL     1       2.332  -0.051  -0.098  0.00  0.00    +0.024 A 
ATOM      3  C   UNL     1       1.110  -0.701  -0.253  0.00  0.00    +0.031 A 
ATOM      4  C   UNL     1      -0.066   0.059  -0.352  0.00  0.00    -0.019 A 
ATOM      5  C   UNL     1      -0.012   1.428  -0.278  0.00  0.00    +0.019 A 
ATOM      6  C   UNL     1       1.217   2.075  -0.116  0.00  0.00    +0.037 A 
ATOM      7  C   UNL     1      -1.335  -0.673  -0.557  0.00  0.00    +0.049 C 
ATOM      8  C   UNL     1      -2.665  -0.133  -0.138  0.00  0.00    -0.023 C 
ATOM      9  C   UNL     1      -3.453  -1.140   0.219  0.00  0.00    -0.030 C 
ATOM     10  C   UNL     1      -2.703  -2.466   0.078  0.00  0.00    +0.033 C 
ATOM     11  C   UNL     1      -1.245  -2.014   0.232  0.00  0.00    +0.029 C 
ATOM     12  C   UNL     1      -0.185  -2.833  -0.482  0.00  0.00    +0.108 C 
ATOM     13  N   UNL     1       1.083  -2.094  -0.297  0.00  0.00    -0.336 N 
ATOM     14  H   UNL     1       2.029  -2.644  -0.191  0.00  0.00    +0.147 HD
ENDROOT
BRANCH   6  15
ATOM     15  C   UNL     1       1.275   3.547  -0.037  0.00  0.00    +0.247 C 
ATOM     16  O   UNL     1       0.469   4.152   0.645  0.00  0.00    -0.270 OA
ATOM     17  N   UNL     1       2.220   4.222  -0.720  0.00  0.00    -0.298 N 
ATOM     18  C   UNL     1       3.286   3.476  -1.349  0.00  0.00    +0.108 C 
ATOM     19  C   UNL     1       4.458   3.300  -0.361  0.00  0.00    +0.019 C 
ATOM     20  C   UNL     1       5.148   4.582  -0.154  0.00  0.00    +0.002 C 
ATOM     21  C   UNL     1       4.281   5.668   0.475  0.00  0.00    +0.002 C 
ATOM     22  C   UNL     1       3.497   6.371  -0.605  0.00  0.00    +0.019 C 
ATOM     23  C   UNL     1       2.127   5.694  -0.791  0.00  0.00    +0.108 C 
ENDBRANCH   6  15
BRANCH  12  24
ATOM     24  C   UNL     1      -0.514  -2.943  -1.949  0.00  0.00    +0.017 A 
ATOM     25  C   UNL     1      -0.021  -2.009  -2.840  0.00  0.00    +0.041 A 
ATOM     26  C   UNL     1      -0.318  -2.112  -4.186  0.00  0.00    +0.127 A 
ATOM     27  C   UNL     1      -1.117  -3.143  -4.643  0.00  0.00    +0.036 A 
ATOM     28  C   UNL     1      -1.617  -4.077  -3.756  0.00  0.00    +0.048 A 
ATOM     29  C   UNL     1      -1.315  -3.979  -2.405  0.00  0.00    +0.122 A 
BRANCH  26  30
ATOM     30  N   UNL     1       0.215  -1.113  -5.139  0.00  0.00    +0.056 N 
ATOM     31  O   UNL     1      -0.050  -1.200  -6.324  0.00  0.00    -0.126 OA
ATOM     32  O   UNL     1       0.920  -0.204  -4.737  0.00  0.00    -0.126 OA
ENDBRANCH  26  30
BRANCH  29  33
ATOM     33  O   UNL     1      -1.806  -4.896  -1.530  0.00  0.00    -0.506 OA
ATOM     34  H   UNL     1      -2.441  -5.717  -1.893  0.00  0.00    +0.292 HD
ENDBRANCH  29  33
ENDBRANCH  12  24
TORSDOF 4
