REMARK  Name = ZINC33000226
REMARK  4 active torsions:
REMARK  status: ('A' for Active; 'I' for Inactive)
REMARK    1  A    between atoms: N_12  and  C_16
REMARK    2  A    between atoms: C_16  and  C_17
REMARK    3  A    between atoms: N_19  and  C_20
REMARK    4  A    between atoms: C_25  and  N_26
REMARK                            x       y       z     vdW  Elec       q    Type
REMARK                         _______ _______ _______ _____ _____    ______ ____
ROOT
ATOM      1  C   UNL     1      -1.802  -2.023  -2.521  0.00  0.00    +0.214 C 
ENDROOT
BRANCH   1  13
ATOM      2  C   UNL     1       3.883  -0.683   1.646  0.00  0.00    +0.000 A 
ATOM      3  C   UNL     1       3.019  -1.763   1.643  0.00  0.00    +0.000 A 
ATOM      4  C   UNL     1       1.748  -1.627   1.123  0.00  0.00    +0.006 A 
ATOM      5  C   UNL     1       1.330  -0.413   0.603  0.00  0.00    -0.012 A 
ATOM      6  C   UNL     1       2.197   0.668   0.604  0.00  0.00    -0.042 A 
ATOM      7  C   UNL     1       3.471   0.529   1.126  0.00  0.00    +0.004 A 
ATOM      8  C   UNL     1       1.517   1.870  -0.018  0.00  0.00    +0.038 C 
ATOM      9  C   UNL     1       0.009   1.534  -0.008  0.00  0.00    +0.045 C 
ATOM     10  C   UNL     1       0.020  -0.000  -0.010  0.00  0.00    +0.138 C 
ATOM     11  C   UNL     1      -0.138  -0.545  -1.406  0.00  0.00    +0.251 C 
ATOM     12  O   UNL     1       0.588  -0.351  -2.358  0.00  0.00    -0.272 OA
ATOM     13  N   UNL     1      -1.260  -1.296  -1.370  0.00  0.00    -0.215 N 
ATOM     14  C   UNL     1      -1.816  -1.292  -0.151  0.00  0.00    +0.310 C 
ATOM     15  O   UNL     1      -2.833  -1.896   0.130  0.00  0.00    -0.252 OA
ATOM     16  N   UNL     1      -1.121  -0.543   0.728  0.00  0.00    -0.281 N 
ATOM     17  H   UNL     1      -1.253  -0.299   1.793  0.00  0.00    +0.152 HD
ENDBRANCH   1  13
BRANCH   1  18
ATOM     18  C   UNL     1      -1.215  -3.411  -2.559  0.00  0.00    +0.235 C 
ATOM     19  O   UNL     1      -0.422  -3.758  -1.710  0.00  0.00    -0.274 OA
ATOM     20  N   UNL     1      -1.571  -4.266  -3.538  0.00  0.00    -0.283 N 
ATOM     21  H   UNL     1      -2.356  -3.985  -4.255  0.00  0.00    +0.155 HD
BRANCH  20  22
ATOM     22  C   UNL     1      -0.940  -5.513  -3.643  0.00  0.00    +0.056 A 
ATOM     23  C   UNL     1       0.336  -5.692  -3.131  0.00  0.00    +0.045 A 
ATOM     24  C   UNL     1       0.955  -6.925  -3.232  0.00  0.00    +0.043 A 
ATOM     25  C   UNL     1       0.308  -7.979  -3.851  0.00  0.00    +0.022 A 
ATOM     26  C   UNL     1      -0.962  -7.808  -4.369  0.00  0.00    +0.026 A 
ATOM     27  C   UNL     1      -1.592  -6.576  -4.268  0.00  0.00    +0.051 A 
ATOM     28 CL   UNL     1       2.550  -7.148  -2.584  0.00  0.00    -0.083 Cl
BRANCH  27  29
ATOM     29  N   UNL     1      -2.878  -6.400  -4.791  0.00  0.00    -0.328 N 
ATOM     30  C   UNL     1      -3.853  -7.241  -4.084  0.00  0.00    +0.105 C 
ATOM     31  C   UNL     1      -5.263  -6.917  -4.582  0.00  0.00    +0.019 C 
ATOM     32  C   UNL     1      -5.339  -7.173  -6.089  0.00  0.00    +0.003 C 
ATOM     33  C   UNL     1      -4.281  -6.322  -6.797  0.00  0.00    +0.019 C 
ATOM     34  C   UNL     1      -2.899  -6.663  -6.235  0.00  0.00    +0.105 C 
ENDBRANCH  27  29
ENDBRANCH  20  22
ENDBRANCH   1  18
TORSDOF 4
