REMARK  Name = ZINC39676713
REMARK  8 active torsions:
REMARK  status: ('A' for Active; 'I' for Inactive)
REMARK    1  A    between atoms: C_1  and  C_2
REMARK    2  A    between atoms: C_2  and  C_4
REMARK    3  A    between atoms: C_2  and  N_12
REMARK    4  A    between atoms: C_8  and  O_10
REMARK    5  A    between atoms: O_10  and  C_11
REMARK    6  A    between atoms: C_13  and  C_15
REMARK    7  A    between atoms: C_26  and  C_28
REMARK    8  A    between atoms: C_28  and  C_34
REMARK                            x       y       z     vdW  Elec       q    Type
REMARK                         _______ _______ _______ _____ _____    ______ ____
ROOT
ATOM      1  C   UNL     1      -3.923  -1.399   0.899  0.00  0.00    +0.100 C 
ATOM      2  C   UNL     1      -3.663  -2.800   0.302  0.00  0.00    +0.121 C 
ATOM      3  N   UNL     1      -3.570  -3.697   1.478  0.00  0.00    -0.300 N 
ATOM      4  C   UNL     1      -4.618  -3.202   2.403  0.00  0.00    +0.115 C 
ATOM      5  C   UNL     1      -4.553  -1.667   2.276  0.00  0.00    -0.004 C 
ATOM      6  C   UNL     1      -3.676  -1.084   3.381  0.00  0.00    -0.010 C 
ATOM      7  C   UNL     1      -4.351  -1.313   4.736  0.00  0.00    -0.082 C 
ATOM      8  N   UNL     1      -5.672  -0.672   4.741  0.00  0.00    +0.379 N 
ATOM      9  C   UNL     1      -6.539  -1.301   3.738  0.00  0.00    -0.082 C 
ATOM     10  C   UNL     1      -5.956  -1.072   2.341  0.00  0.00    -0.010 C 
ATOM     11  C   UNL     1      -2.724  -4.729   1.665  0.00  0.00    +0.222 C 
ATOM     12  O   UNL     1      -1.863  -4.964   0.844  0.00  0.00    -0.275 OA
ATOM     13  H   UNL     1      -6.089  -0.772   5.654  0.00  0.00    -0.086 HD
ATOM     14  H   UNL     1      -5.569   0.309   4.527  0.00  0.00    -0.086 HD
ENDROOT
BRANCH  11  15
ATOM     15  C   UNL     1      -2.847  -5.591   2.895  0.00  0.00    +0.044 C 
ATOM     16  C   UNL     1      -2.494  -4.765   4.134  0.00  0.00    +0.016 C 
ATOM     17  C   UNL     1      -1.058  -4.252   4.013  0.00  0.00    +0.001 C 
ATOM     18  C   UNL     1      -0.099  -5.439   3.902  0.00  0.00    +0.000 C 
ATOM     19  C   UNL     1      -0.452  -6.265   2.663  0.00  0.00    +0.001 C 
ATOM     20  C   UNL     1      -1.888  -6.778   2.784  0.00  0.00    +0.016 C 
ATOM     21  C   UNL     1      -4.283  -6.104   3.017  0.00  0.00    +0.021 C 
ENDBRANCH  11  15
BRANCH   1  23
ATOM     22  N   UNL     1      -2.616   0.700   0.973  0.00  0.00    -0.308 N 
ATOM     23  C   UNL     1      -2.627  -0.645   1.052  0.00  0.00    +0.219 C 
ATOM     24  O   UNL     1      -1.593  -1.249   1.248  0.00  0.00    -0.275 OA
ATOM     25  H   UNL     1      -3.443   1.183   0.817  0.00  0.00    +0.149 HD
BRANCH  22  27
ATOM     26  C   UNL     1      -1.075   1.665   2.608  0.00  0.00    +0.033 C 
ATOM     27  C   UNL     1      -1.357   1.433   1.122  0.00  0.00    +0.100 C 
BRANCH  27  28
ATOM     28  C   UNL     1      -1.461   2.761   0.418  0.00  0.00    -0.024 A 
ATOM     29  C   UNL     1      -2.631   3.494   0.496  0.00  0.00    +0.005 A 
ATOM     30  C   UNL     1      -2.731   4.713  -0.150  0.00  0.00    +0.004 A 
ATOM     31  C   UNL     1      -1.661   5.201  -0.875  0.00  0.00    +0.045 A 
ATOM     32  C   UNL     1      -0.486   4.467  -0.955  0.00  0.00    +0.120 A 
ATOM     33  C   UNL     1      -0.387   3.247  -0.301  0.00  0.00    +0.051 A 
BRANCH  32  34
ATOM     34  O   UNL     1       0.568   4.945  -1.667  0.00  0.00    -0.495 OA
ATOM     35  C   UNL     1       0.397   6.211  -2.309  0.00  0.00    +0.277 C 
ENDBRANCH  32  34
ENDBRANCH  27  28
ENDBRANCH  22  27
ENDBRANCH   1  23
TORSDOF 5
