REMARK  Name = ZINC63686581
REMARK  12 active torsions:
REMARK  status: ('A' for Active; 'I' for Inactive)
REMARK    1  A    between atoms: C_1  and  C_2
REMARK    2  A    between atoms: C_2  and  N_3
REMARK    3  A    between atoms: C_4  and  C_25
REMARK    4  A    between atoms: C_8  and  S_10
REMARK    5  A    between atoms: S_10  and  C_11
REMARK    6  A    between atoms: C_11  and  C_12
REMARK    7  A    between atoms: C_15  and  C_24
REMARK    8  A    between atoms: C_17  and  C_23
REMARK    9  A    between atoms: C_25  and  O_26
REMARK   10  A    between atoms: O_26  and  C_27
REMARK   11  A    between atoms: C_29  and  C_35
REMARK   12  A    between atoms: C_31  and  C_33
REMARK                            x       y       z     vdW  Elec       q    Type
REMARK                         _______ _______ _______ _____ _____    ______ ____
ROOT
ATOM      1  N   UNL     1       0.707  -0.714  -1.095  0.00  0.00    -0.259 NA
ATOM      2  C   UNL     1       0.590  -2.187  -1.199  0.00  0.00    +0.178 C 
ATOM      3  N   UNL     1       1.891  -2.617  -1.774  0.00  0.00    -0.234 NA
ATOM      4  N   UNL     1       2.855  -1.716  -1.125  0.00  0.00    -0.229 NA
ATOM      5  C   UNL     1       2.153  -0.415  -1.048  0.00  0.00    +0.200 C 
ATOM      6  H   UNL     1       2.086  -3.580  -1.547  0.00  0.00    +0.142 HD
ATOM      7  H   UNL     1       3.099  -2.050  -0.204  0.00  0.00    +0.143 HD
ENDROOT
BRANCH   1   9
ATOM      8  C   UNL     1      -1.485  -0.374  -0.057  0.00  0.00    +0.020 C 
ATOM      9  C   UNL     1       0.028  -0.216   0.109  0.00  0.00    +0.085 C 
ENDBRANCH   1   9
BRANCH   5  10
ATOM     10  S   UNL     1       2.565   0.424   0.506  0.00  0.00    -0.119 S 
BRANCH  10  11
ATOM     11  C   UNL     1       4.228   1.089   0.219  0.00  0.00    +0.125 C 
BRANCH  11  12
ATOM     12  C   UNL     1       4.647   1.923   1.402  0.00  0.00    +0.030 A 
ATOM     13  N   UNL     1       4.098   3.151   1.561  0.00  0.00    -0.357 N 
ATOM     14  C   UNL     1       4.439   3.963   2.620  0.00  0.00    +0.053 A 
ATOM     15  C   UNL     1       3.869   5.223   2.774  0.00  0.00    -0.026 A 
ATOM     16  C   UNL     1       4.231   6.010   3.845  0.00  0.00    +0.008 A 
ATOM     17  C   UNL     1       5.159   5.559   4.774  0.00  0.00    -0.049 A 
ATOM     18  C   UNL     1       5.731   4.325   4.642  0.00  0.00    +0.017 A 
ATOM     19  C   UNL     1       5.378   3.512   3.564  0.00  0.00    +0.045 A 
ATOM     20  C   UNL     1       5.969   2.175   3.383  0.00  0.00    +0.190 A 
ATOM     21  O   UNL     1       6.788   1.736   4.174  0.00  0.00    -0.287 OA
ATOM     22  C   UNL     1       5.551   1.415   2.266  0.00  0.00    +0.073 A 
ATOM     23  C   UNL     1       5.540   6.439   5.937  0.00  0.00    +0.044 C 
ATOM     24  C   UNL     1       2.861   5.725   1.773  0.00  0.00    +0.046 C 
ATOM     25  H   UNL     1       3.450   3.467   0.912  0.00  0.00    +0.166 HD
ENDBRANCH  11  12
ENDBRANCH  10  11
ENDBRANCH   5  10
BRANCH   2  26
ATOM     26  C   UNL     1      -0.563  -2.567  -2.131  0.00  0.00    +0.265 C 
BRANCH  26  27
ATOM     27  O   UNL     1      -0.322  -2.027  -3.432  0.00  0.00    -0.489 OA
BRANCH  27  28
ATOM     28  C   UNL     1      -1.258  -2.276  -4.386  0.00  0.00    +0.121 A 
ATOM     29  C   UNL     1      -2.387  -3.018  -4.074  0.00  0.00    +0.050 A 
ATOM     30  C   UNL     1      -3.337  -3.269  -5.045  0.00  0.00    -0.028 A 
ATOM     31  C   UNL     1      -3.163  -2.781  -6.328  0.00  0.00    +0.047 A 
ATOM     32  C   UNL     1      -2.037  -2.040  -6.641  0.00  0.00    -0.028 A 
ATOM     33  C   UNL     1      -1.088  -1.781  -5.670  0.00  0.00    +0.050 A 
ATOM     34  C   UNL     1      -1.849  -1.510  -8.039  0.00  0.00    +0.045 C 
ATOM     35 CL   UNL     1      -4.357  -3.098  -7.546  0.00  0.00    -0.083 Cl
ATOM     36  C   UNL     1      -4.564  -4.077  -4.707  0.00  0.00    +0.045 C 
ENDBRANCH  27  28
ENDBRANCH  26  27
ENDBRANCH   2  26
TORSDOF 7
