REMARK  Name = ZINC63314182
REMARK  8 active torsions:
REMARK  status: ('A' for Active; 'I' for Inactive)
REMARK    1  A    between atoms: C_1  and  O_2
REMARK    2  A    between atoms: O_2  and  C_3
REMARK    3  A    between atoms: C_5  and  C_10
REMARK    4  A    between atoms: C_8  and  O_9
REMARK    5  A    between atoms: C_14  and  C_34
REMARK    6  A    between atoms: N_22  and  C_23
REMARK    7  A    between atoms: C_23  and  C_24
REMARK    8  A    between atoms: C_24  and  C_25
REMARK                            x       y       z     vdW  Elec       q    Type
REMARK                         _______ _______ _______ _____ _____    ______ ____
ROOT
ATOM      1  C   UNL     1       2.462   0.334   4.204  0.00  0.00    +0.114 C 
ATOM      2  C   UNL     1       1.562   0.431   5.377  0.00  0.00    +0.077 C 
ATOM      3  C   UNL     1       0.093   0.477   5.596  0.00  0.00    +0.136 C 
ATOM      4  N   UNL     1       0.032  -0.138   6.962  0.00  0.00    -0.305 N 
ATOM      5  N   UNL     1       0.988  -0.942   7.137  0.00  0.00    -0.203 NA
ATOM      6  C   UNL     1       1.739  -1.068   5.894  0.00  0.00    +0.218 C 
ATOM      7  C   UNL     1       3.240  -1.089   5.899  0.00  0.00    +0.243 C 
ATOM      8  O   UNL     1       3.956  -1.634   6.712  0.00  0.00    -0.273 OA
ATOM      9  N   UNL     1       3.643  -0.371   4.800  0.00  0.00    -0.292 N 
ATOM     10  H   UNL     1      -0.651   0.058   7.623  0.00  0.00    +0.183 HD
ENDROOT
BRANCH   3  11
ATOM     11  C   UNL     1      -0.419   1.894   5.605  0.00  0.00    -0.023 A 
ATOM     12  C   UNL     1      -0.280   2.671   6.739  0.00  0.00    +0.008 A 
ATOM     13  C   UNL     1      -0.748   3.972   6.749  0.00  0.00    +0.038 A 
ATOM     14  C   UNL     1      -1.357   4.496   5.621  0.00  0.00    +0.123 A 
ATOM     15  C   UNL     1      -1.495   3.716   4.485  0.00  0.00    +0.038 A 
ATOM     16  C   UNL     1      -1.021   2.418   4.476  0.00  0.00    +0.008 A 
ATOM     17  F   UNL     1      -1.815   5.766   5.629  0.00  0.00    -0.205 F 
ENDBRANCH   3  11
BRANCH   1  20
ATOM     18  C   UNL     1       1.408  -2.623   2.101  0.00  0.00    +0.162 A 
ATOM     19  C   UNL     1       1.983  -1.864   3.108  0.00  0.00    +0.055 A 
ATOM     20  C   UNL     1       1.836  -0.490   3.108  0.00  0.00    -0.023 A 
ATOM     21  C   UNL     1       1.115   0.131   2.105  0.00  0.00    +0.009 A 
ATOM     22  C   UNL     1       0.539  -0.620   1.097  0.00  0.00    +0.049 A 
ATOM     23  C   UNL     1       0.688  -1.997   1.088  0.00  0.00    +0.158 A 
BRANCH  18  25
ATOM     24  C   UNL     1       2.305  -4.548   3.170  0.00  0.00    +0.277 C 
ATOM     25  O   UNL     1       1.553  -3.975   2.099  0.00  0.00    -0.491 OA
ENDBRANCH  18  25
BRANCH  23  26
ATOM     26  O   UNL     1       0.127  -2.737   0.094  0.00  0.00    -0.503 OA
ATOM     27  H   UNL     1      -0.775  -3.030   0.283  0.00  0.00    +0.292 HD
ENDBRANCH  23  26
ENDBRANCH   1  20
BRANCH   9  28
ATOM     28  C   UNL     1       5.014  -0.303   4.289  0.00  0.00    +0.113 C 
BRANCH  28  29
ATOM     29  C   UNL     1       5.748   0.864   4.953  0.00  0.00    +0.052 C 
BRANCH  29  30
ATOM     30  C   UNL     1       7.159   0.934   4.428  0.00  0.00    -0.040 C 
ATOM     31  C   UNL     1       7.612   1.706   3.413  0.00  0.00    -0.001 A 
ATOM     32  C   UNL     1       6.951   2.673   2.528  0.00  0.00    +0.010 A 
ATOM     33  C   UNL     1       7.683   3.304   1.583  0.00  0.00    +0.001 A 
ATOM     34  C   UNL     1       9.054   3.058   1.427  0.00  0.00    +0.002 A 
ATOM     35  C   UNL     1       9.731   2.184   2.201  0.00  0.00    +0.026 A 
ATOM     36  C   UNL     1       9.060   1.464   3.228  0.00  0.00    +0.043 A 
ATOM     37  N   UNL     1       9.487   0.578   4.095  0.00  0.00    -0.380 N 
ATOM     38  C   UNL     1       8.357   0.161   4.932  0.00  0.00    +0.144 C 
ATOM     39  H   UNL     1      10.398   0.255   4.172  0.00  0.00    +0.160 HD
ENDBRANCH  29  30
ENDBRANCH  28  29
ENDBRANCH   9  28
TORSDOF 7
