REMARK  Name = ZINC39324878
REMARK  8 active torsions:
REMARK  status: ('A' for Active; 'I' for Inactive)
REMARK    1  A    between atoms: C_6  and  S_7
REMARK    2  A    between atoms: S_7  and  N_10
REMARK    3  A    between atoms: N_10  and  C_11
REMARK    4  A    between atoms: N_10  and  C_15
REMARK    5  A    between atoms: C_11  and  C_12
REMARK    6  A    between atoms: C_12  and  C_13
REMARK    7  A    between atoms: C_13  and  O_14
REMARK    8  A    between atoms: C_15  and  C_16
REMARK                            x       y       z     vdW  Elec       q    Type
REMARK                         _______ _______ _______ _____ _____    ______ ____
ROOT
ATOM      1  C   UNL     1      -2.869   0.018  -2.128  0.00  0.00    +0.126 C 
ENDROOT
BRANCH   1   2
ATOM      2  C   UNL     1      -2.000   0.923  -3.004  0.00  0.00    +0.114 C 
ATOM      3  C   UNL     1      -2.924   1.787  -3.839  0.00  0.00    -0.003 C 
ATOM      4  C   UNL     1      -2.796   3.136  -3.719  0.00  0.00    -0.003 A 
ATOM      5  C   UNL     1      -3.648   4.041  -4.491  0.00  0.00    +0.059 A 
ATOM      6  C   UNL     1      -3.497   5.386  -4.348  0.00  0.00    +0.163 A 
ATOM      7  C   UNL     1      -2.536   5.920  -3.467  0.00  0.00    +0.164 A 
ATOM      8  C   UNL     1      -1.707   5.109  -2.718  0.00  0.00    +0.073 A 
ATOM      9  C   UNL     1      -1.794   3.715  -2.805  0.00  0.00    +0.044 A 
ATOM     10  N   UNL     1      -0.982   2.949  -2.072  0.00  0.00    -0.284 N 
ATOM     11  C   UNL     1      -1.012   1.629  -2.104  0.00  0.00    +0.225 C 
ATOM     12  O   UNL     1      -0.247   0.984  -1.412  0.00  0.00    -0.275 OA
ATOM     13  O   UNL     1      -2.408   7.268  -3.330  0.00  0.00    -0.485 OA
ATOM     14  C   UNL     1      -2.977   8.079  -4.361  0.00  0.00    +0.270 C 
ATOM     15  C   UNL     1      -4.395   7.569  -4.649  0.00  0.00    +0.270 C 
ATOM     16  O   UNL     1      -4.300   6.208  -5.082  0.00  0.00    -0.485 OA
ATOM     17  H   UNL     1      -0.340   3.383  -1.488  0.00  0.00    +0.155 HD
ENDBRANCH   1   2
BRANCH   1  18
ATOM     18  N   UNL     1      -2.011  -0.866  -1.337  0.00  0.00    -0.175 NA
BRANCH  18  19
ATOM     19  S   UNL     1      -2.048  -0.793   0.317  0.00  0.00    +0.061 S 
ATOM     20  O   UNL     1      -1.763  -2.104   0.788  0.00  0.00    -0.153 OA
ATOM     21  O   UNL     1      -3.239  -0.101   0.667  0.00  0.00    -0.153 OA
BRANCH  19  27
ATOM     22  C   UNL     1      -0.912   1.572   1.068  0.00  0.00    +0.029 A 
ATOM     23  C   UNL     1       0.141   2.373   1.466  0.00  0.00    +0.017 A 
ATOM     24  C   UNL     1       1.404   1.830   1.620  0.00  0.00    +0.018 A 
ATOM     25  C   UNL     1       1.611   0.484   1.375  0.00  0.00    +0.017 A 
ATOM     26  C   UNL     1       0.557  -0.316   0.978  0.00  0.00    +0.029 A 
ATOM     27  C   UNL     1      -0.705   0.228   0.824  0.00  0.00    +0.106 A 
ATOM     28 BR   UNL     1       2.846   2.926   2.163  0.00  0.00    -0.050 Br
ENDBRANCH  19  27
ENDBRANCH  18  19
BRANCH  18  29
ATOM     29  C   UNL     1      -1.119  -1.815  -2.008  0.00  0.00    +0.112 C 
BRANCH  29  30
ATOM     30  C   UNL     1      -1.889  -3.096  -2.333  0.00  0.00    +0.045 C 
BRANCH  30  31
ATOM     31  C   UNL     1      -0.958  -4.087  -3.035  0.00  0.00    +0.157 C 
BRANCH  31  32
ATOM     32  O   UNL     1      -1.677  -5.284  -3.339  0.00  0.00    -0.395 OA
ATOM     33  H   UNL     1      -1.148  -5.958  -3.785  0.00  0.00    +0.209 HD
ENDBRANCH  31  32
ENDBRANCH  30  31
ENDBRANCH  29  30
ENDBRANCH  18  29
ENDBRANCH   1  18
TORSDOF 8
