REMARK  Name = ZINC12412579
REMARK  12 active torsions:
REMARK  status: ('A' for Active; 'I' for Inactive)
REMARK    1  A    between atoms: C_1  and  C_2
REMARK    2  A    between atoms: C_2  and  O_3
REMARK    3  A    between atoms: O_3  and  C_4
REMARK    4  A    between atoms: C_4  and  C_6
REMARK    5  A    between atoms: C_7  and  C_23
REMARK    6  A    between atoms: C_12  and  C_14
REMARK    7  A    between atoms: C_23  and  N_24
REMARK    8  A    between atoms: N_24  and  C_25
REMARK    9  A    between atoms: C_27  and  C_33
REMARK   10  A    between atoms: C_27  and  C_34
REMARK   11  A    between atoms: C_29  and  C_31
REMARK   12  A    between atoms: C_29  and  C_32
REMARK                            x       y       z     vdW  Elec       q    Type
REMARK                         _______ _______ _______ _____ _____    ______ ____
ROOT
ATOM      1  C   UNL     1      -1.774   2.108  -1.425  0.00  0.00    +0.076 C 
ATOM      2  C   UNL     1      -3.016   1.655  -1.703  0.00  0.00    +0.007 C 
ATOM      3  N   UNL     1      -3.818   1.152  -0.719  0.00  0.00    -0.274 N 
ATOM      4  C   UNL     1      -3.454   1.069   0.567  0.00  0.00    +0.304 C 
ATOM      5  O   UNL     1      -4.239   0.607   1.372  0.00  0.00    -0.252 OA
ATOM      6  N   UNL     1      -2.246   1.482   0.997  0.00  0.00    -0.288 N 
ATOM      7  C   UNL     1      -1.304   2.041   0.013  0.00  0.00    +0.144 C 
ATOM      8  H   UNL     1      -4.826   0.786  -0.965  0.00  0.00    +0.156 HD
ATOM      9  H   UNL     1      -1.956   1.409   2.056  0.00  0.00    +0.151 HD
ENDROOT
BRANCH   7  10
ATOM     10  C   UNL     1      -0.045   1.213   0.052  0.00  0.00    -0.019 A 
ATOM     11  C   UNL     1      -0.128  -0.166   0.105  0.00  0.00    +0.009 A 
ATOM     12  C   UNL     1       1.023  -0.930   0.136  0.00  0.00    +0.050 A 
ATOM     13  C   UNL     1       2.264  -0.315   0.113  0.00  0.00    +0.166 A 
ATOM     14  C   UNL     1       2.348   1.075   0.059  0.00  0.00    +0.167 A 
ATOM     15  C   UNL     1       1.190   1.834   0.029  0.00  0.00    +0.055 A 
ATOM     16  O   UNL     1       3.665   1.432   0.046  0.00  0.00    -0.453 OA
ATOM     17  C   UNL     1       4.384   0.239  -0.320  0.00  0.00    +0.466 C 
ATOM     18  O   UNL     1       3.529  -0.827   0.133  0.00  0.00    -0.453 OA
ENDBRANCH   7  10
BRANCH   1  19
ATOM     19  C   UNL     1      -0.942   2.629  -2.444  0.00  0.00    +0.339 C 
ATOM     20  O   UNL     1      -0.817   3.832  -2.572  0.00  0.00    -0.245 OA
BRANCH  19  21
ATOM     21  O   UNL     1      -0.286   1.790  -3.273  0.00  0.00    -0.462 OA
BRANCH  21  23
ATOM     22  C   UNL     1       1.195   1.285  -5.115  0.00  0.00    +0.048 C 
ATOM     23  C   UNL     1       0.537   2.385  -4.278  0.00  0.00    +0.229 C 
ENDBRANCH  21  23
ENDBRANCH  19  21
ENDBRANCH   1  19
BRANCH   2  24
ATOM     24  C   UNL     1      -3.523   1.703  -3.121  0.00  0.00    -0.030 C 
BRANCH  24  25
ATOM     25  N   UNL     1      -3.718   0.335  -3.618  0.00  0.00    +0.384 N 
ATOM     26  H   UNL     1      -2.760  -0.206  -3.590  0.00  0.00    -0.085 HD
ATOM     27  H   UNL     1      -4.451  -0.185  -2.984  0.00  0.00    -0.085 HD
BRANCH  25  28
ATOM     28  C   UNL     1      -4.215   0.343  -5.004  0.00  0.00    -0.068 C 
ATOM     29  C   UNL     1      -5.738   0.470  -4.992  0.00  0.00    +0.006 C 
ATOM     30  C   UNL     1      -6.283   0.460  -6.419  0.00  0.00    +0.013 C 
ATOM     31  N   UNL     1      -5.760  -0.631  -7.215  0.00  0.00    -0.306 NA
ATOM     32  C   UNL     1      -4.365  -1.006  -7.114  0.00  0.00    +0.013 C 
ATOM     33  C   UNL     1      -3.842  -0.976  -5.680  0.00  0.00    +0.006 C 
ATOM     34  C   UNL     1      -3.487  -0.113  -7.998  0.00  0.00    +0.027 C 
ATOM     35  C   UNL     1      -4.216  -2.453  -7.634  0.00  0.00    +0.027 C 
ATOM     36  C   UNL     1      -6.005   1.813  -7.083  0.00  0.00    +0.027 C 
ATOM     37  C   UNL     1      -7.817   0.300  -6.330  0.00  0.00    +0.027 C 
ATOM     38  H   UNL     1      -6.300  -1.557  -6.968  0.00  0.00    +0.123 HD
ENDBRANCH  25  28
ENDBRANCH  24  25
ENDBRANCH   2  24
TORSDOF 7
