REMARK  Name = ZINC12473930
REMARK  10 active torsions:
REMARK  status: ('A' for Active; 'I' for Inactive)
REMARK    1  A    between atoms: C_1  and  C_2
REMARK    2  A    between atoms: C_2  and  C_3
REMARK    3  A    between atoms: C_8  and  N_9
REMARK    4  A    between atoms: C_10  and  C_19
REMARK    5  A    between atoms: C_13  and  S_14
REMARK    6  A    between atoms: S_14  and  C_15
REMARK    7  A    between atoms: C_15  and  C_16
REMARK    8  A    between atoms: C_22  and  N_25
REMARK    9  A    between atoms: N_25  and  S_26
REMARK   10  A    between atoms: S_26  and  C_29
REMARK                            x       y       z     vdW  Elec       q    Type
REMARK                         _______ _______ _______ _____ _____    ______ ____
ROOT
ATOM      1  N   UNL     1      -3.784   1.593  -0.197  0.00  0.00    -0.270 N 
ATOM      2  C   UNL     1      -2.543   1.084   0.116  0.00  0.00    +0.169 A 
ATOM      3  N   UNL     1      -2.716  -0.174   0.449  0.00  0.00    -0.128 NA
ATOM      4  N   UNL     1      -3.960  -0.485   0.362  0.00  0.00    -0.122 NA
ATOM      5  C   UNL     1      -4.660   0.554  -0.032  0.00  0.00    +0.197 A 
ENDROOT
BRANCH   1  11
ATOM      6  C   UNL     1      -4.401   3.867   0.344  0.00  0.00    -0.024 A 
ATOM      7  C   UNL     1      -4.693   5.156  -0.058  0.00  0.00    +0.005 A 
ATOM      8  C   UNL     1      -4.684   5.481  -1.401  0.00  0.00    +0.000 A 
ATOM      9  C   UNL     1      -4.377   4.520  -2.347  0.00  0.00    +0.002 A 
ATOM     10  C   UNL     1      -4.078   3.231  -1.951  0.00  0.00    +0.026 A 
ATOM     11  C   UNL     1      -4.087   2.901  -0.602  0.00  0.00    +0.054 A 
BRANCH   6  13
ATOM     12  C   UNL     1      -3.002   3.625   2.377  0.00  0.00    +0.009 C 
ATOM     13  C   UNL     1      -4.418   3.511   1.808  0.00  0.00    +0.034 C 
ENDBRANCH   6  13
ENDBRANCH   1  11
BRANCH   2  14
ATOM     14  C   UNL     1      -1.260   1.817   0.089  0.00  0.00    +0.020 A 
ATOM     15  C   UNL     1      -0.053   1.116   0.129  0.00  0.00    +0.013 A 
ATOM     16  C   UNL     1       1.141   1.802   0.098  0.00  0.00    +0.025 A 
ATOM     17  C   UNL     1       1.146   3.191   0.033  0.00  0.00    +0.048 A 
ATOM     18  C   UNL     1      -0.055   3.892  -0.002  0.00  0.00    +0.025 A 
ATOM     19  C   UNL     1      -1.253   3.212   0.029  0.00  0.00    +0.013 A 
BRANCH  17  20
ATOM     20  N   UNL     1       2.357   3.883   0.001  0.00  0.00    -0.216 N 
ATOM     21  H   UNL     1       3.066   3.648   0.620  0.00  0.00    +0.174 HD
BRANCH  20  22
ATOM     22  S   UNL     1       2.584   5.106  -1.093  0.00  0.00    +0.072 S 
ATOM     23  O   UNL     1       1.484   5.992  -0.946  0.00  0.00    -0.150 OA
ATOM     24  O   UNL     1       3.932   5.534  -0.950  0.00  0.00    -0.150 OA
BRANCH  22  25
ATOM     25  C   UNL     1       2.450   4.397  -2.701  0.00  0.00    +0.108 A 
ATOM     26  C   UNL     1       3.552   3.809  -3.292  0.00  0.00    +0.029 A 
ATOM     27  C   UNL     1       3.445   3.249  -4.551  0.00  0.00    +0.002 A 
ATOM     28  C   UNL     1       2.238   3.287  -5.224  0.00  0.00    +0.000 A 
ATOM     29  C   UNL     1       1.137   3.880  -4.635  0.00  0.00    +0.002 A 
ATOM     30  C   UNL     1       1.243   4.435  -3.374  0.00  0.00    +0.029 A 
ENDBRANCH  22  25
ENDBRANCH  20  22
ENDBRANCH  17  20
ENDBRANCH   2  14
BRANCH   5  31
ATOM     31  S   UNL     1      -6.402   0.604  -0.292  0.00  0.00    -0.076 S 
BRANCH  31  32
ATOM     32  C   UNL     1      -6.832  -1.102   0.132  0.00  0.00    +0.172 C 
BRANCH  32  33
ATOM     33  C   UNL     1      -8.318  -1.299  -0.022  0.00  0.00    +0.221 C 
ATOM     34  O   UNL     1      -9.018  -0.377  -0.383  0.00  0.00    -0.275 OA
ATOM     35  N   UNL     1      -8.870  -2.500   0.241  0.00  0.00    -0.329 N 
ATOM     36  H   UNL     1      -8.310  -3.238   0.530  0.00  0.00    +0.145 HD
ATOM     37  H   UNL     1      -9.826  -2.627   0.142  0.00  0.00    +0.145 HD
ENDBRANCH  32  33
ENDBRANCH  31  32
ENDBRANCH   5  31
TORSDOF 9
