REMARK  Name = ZINC13113733
REMARK  3 active torsions:
REMARK  status: ('A' for Active; 'I' for Inactive)
REMARK    1  A    between atoms: C_1  and  C_2
REMARK    2  A    between atoms: C_2  and  C_18
REMARK    3  A    between atoms: N_15  and  O_16
REMARK                            x       y       z     vdW  Elec       q    Type
REMARK                         _______ _______ _______ _____ _____    ______ ____
ROOT
ATOM      1  C   UNL     1      -0.139   1.482  -0.043  0.00  0.00    +0.011 C 
ATOM      2  C   UNL     1      -0.052  -0.045  -0.035  0.00  0.00    -0.024 C 
ATOM      3  C   UNL     1       0.717  -0.517  -1.266  0.00  0.00    +0.062 C 
ATOM      4  C   UNL     1       0.934  -2.007  -1.238  0.00  0.00    +0.051 A 
ATOM      5  C   UNL     1       0.908  -2.720  -0.041  0.00  0.00    +0.021 A 
ATOM      6  C   UNL     1       1.123  -4.098  -0.060  0.00  0.00    +0.017 A 
ATOM      7  C   UNL     1       1.352  -4.718  -1.283  0.00  0.00    -0.025 A 
ATOM      8  C   UNL     1       1.357  -3.956  -2.431  0.00  0.00    +0.045 A 
ATOM      9  N   UNL     1       1.153  -2.647  -2.370  0.00  0.00    -0.256 NA
ATOM     10  C   UNL     1       1.581  -4.561  -3.794  0.00  0.00    +0.056 C 
ATOM     11  C   UNL     1       2.224  -5.940  -3.671  0.00  0.00    +0.006 C 
ATOM     12  C   UNL     1       1.395  -6.776  -2.689  0.00  0.00    +0.005 C 
ATOM     13  C   UNL     1       1.590  -6.204  -1.286  0.00  0.00    +0.037 C 
ATOM     14  C   UNL     1       0.650  -2.025   1.239  0.00  0.00    +0.089 C 
ATOM     15  N   UNL     1       0.409  -2.686   2.324  0.00  0.00    -0.091 NA
ATOM     16  C   UNL     1       0.678  -0.510   1.232  0.00  0.00    +0.066 C 
ATOM     17  C   UNL     1      -1.462  -0.637  -0.057  0.00  0.00    +0.011 C 
ENDROOT
BRANCH  15  18
ATOM     18  O   UNL     1       0.221  -4.088   2.272  0.00  0.00    -0.409 OA
ATOM     19  H   UNL     1       0.046  -4.494   3.132  0.00  0.00    +0.328 HD
ENDBRANCH  15  18
TORSDOF 1
