REMARK  Name = ZINC66927515
REMARK  7 active torsions:
REMARK  status: ('A' for Active; 'I' for Inactive)
REMARK    1  A    between atoms: C_1  and  C_2
REMARK    2  A    between atoms: C_2  and  C_4
REMARK    3  A    between atoms: C_2  and  C_7
REMARK    4  A    between atoms: C_4  and  S_5
REMARK    5  A    between atoms: S_5  and  C_6
REMARK    6  A    between atoms: N_9  and  N_10
REMARK    7  A    between atoms: C_11  and  C_13
REMARK                            x       y       z     vdW  Elec       q    Type
REMARK                         _______ _______ _______ _____ _____    ______ ____
ROOT
ATOM      1  N   UNL     1       2.696  -0.625   2.561  0.00  0.00    -0.230 N 
ATOM      2  C   UNL     1       3.984  -0.283   2.764  0.00  0.00    +0.268 C 
ATOM      3  O   UNL     1       4.558   0.428   1.961  0.00  0.00    -0.268 OA
ATOM      4  H   UNL     1       2.239  -1.193   3.201  0.00  0.00    +0.173 HD
ENDROOT
BRANCH   2   5
ATOM      5  C   UNL     1       4.694  -0.770   3.953  0.00  0.00    +0.095 A 
ATOM      6  C   UNL     1       5.980  -0.530   4.330  0.00  0.00    +0.068 A 
ATOM      7  C   UNL     1       6.478  -1.094   5.519  0.00  0.00    +0.008 A 
ATOM      8  C   UNL     1       7.777  -0.964   6.075  0.00  0.00    +0.013 A 
ATOM      9  C   UNL     1       8.099  -1.579   7.241  0.00  0.00    +0.039 A 
ATOM     10  C   UNL     1       7.176  -2.358   7.934  0.00  0.00    +0.124 A 
ATOM     11  C   UNL     1       5.899  -2.511   7.427  0.00  0.00    +0.054 A 
ATOM     12  C   UNL     1       5.560  -1.891   6.244  0.00  0.00    +0.024 A 
ATOM     13  S   UNL     1       4.081  -1.813   5.264  0.00  0.00    -0.082 S 
ATOM     14  F   UNL     1       7.525  -2.959   9.092  0.00  0.00    -0.205 F 
ATOM     15 CL   UNL     1       7.003   0.468   3.345  0.00  0.00    -0.082 Cl
ENDBRANCH   2   5
BRANCH   1  18
ATOM     16  C   UNL     1       0.731  -0.503   1.223  0.00  0.00    +0.233 C 
ATOM     17  O   UNL     1       0.159  -1.213   2.023  0.00  0.00    -0.274 OA
ATOM     18  N   UNL     1       2.019  -0.161   1.426  0.00  0.00    -0.234 N 
ATOM     19  H   UNL     1       2.476   0.406   0.786  0.00  0.00    +0.173 HD
BRANCH  16  21
ATOM     20  C   UNL     1      -0.019   1.526   0.010  0.00  0.00    +0.018 C 
ATOM     21  C   UNL     1       0.002  -0.004   0.002  0.00  0.00    +0.083 C 
BRANCH  21  22
ATOM     22  C   UNL     1      -1.433  -0.534   0.013  0.00  0.00    +0.081 C 
BRANCH  22  23
ATOM     23  S   UNL     1      -2.265  -0.057  -1.527  0.00  0.00    -0.163 S 
ATOM     24  C   UNL     1      -3.933  -0.751  -1.358  0.00  0.00    +0.084 C 
ENDBRANCH  22  23
ENDBRANCH  21  22
ENDBRANCH  16  21
ENDBRANCH   1  18
TORSDOF 5
