REMARK  Name = ZINC37077658
REMARK  6 active torsions:
REMARK  status: ('A' for Active; 'I' for Inactive)
REMARK    1  A    between atoms: C_1  and  C_2
REMARK    2  A    between atoms: C_2  and  O_3
REMARK    3  A    between atoms: O_3  and  C_4
REMARK    4  A    between atoms: C_5  and  N_18
REMARK    5  A    between atoms: C_8  and  O_10
REMARK    6  A    between atoms: O_10  and  C_11
REMARK                            x       y       z     vdW  Elec       q    Type
REMARK                         _______ _______ _______ _____ _____    ______ ____
ROOT
ATOM      1  C   UNL     1       0.703  -1.832   1.371  0.00  0.00    +0.239 A 
ATOM      2  C   UNL     1       1.360  -2.358   2.481  0.00  0.00    +0.087 A 
ATOM      3  C   UNL     1       1.499  -3.736   2.595  0.00  0.00    +0.033 A 
ATOM      4  C   UNL     1       0.975  -4.538   1.593  0.00  0.00    +0.069 A 
ATOM      5  C   UNL     1       0.333  -3.946   0.516  0.00  0.00    +0.224 A 
ATOM      6  N   UNL     1       0.211  -2.630   0.438  0.00  0.00    -0.176 NA
ENDROOT
BRANCH   2   7
ATOM      7  N   UNL     1       1.875  -1.508   3.471  0.00  0.00    -0.354 N 
ATOM      8  H   UNL     1       1.775  -0.547   3.385  0.00  0.00    +0.142 HD
ATOM      9  H   UNL     1       2.332  -1.881   4.241  0.00  0.00    +0.142 HD
ENDBRANCH   2   7
BRANCH   1  10
ATOM     10  O   UNL     1       0.561  -0.487   1.248  0.00  0.00    -0.475 OA
BRANCH  10  12
ATOM     11  C   UNL     1      -0.189   1.518   0.126  0.00  0.00    +0.048 C 
ATOM     12  C   UNL     1      -0.128  -0.010   0.090  0.00  0.00    +0.227 C 
ENDBRANCH  10  12
ENDBRANCH   1  10
BRANCH   5  13
ATOM     13  O   UNL     1      -0.183  -4.726  -0.469  0.00  0.00    -0.438 OA
BRANCH  13  14
ATOM     14  C   UNL     1      -0.891  -4.120  -1.457  0.00  0.00    +0.131 A 
ATOM     15  C   UNL     1      -0.230  -3.438  -2.469  0.00  0.00    +0.046 A 
ATOM     16  C   UNL     1      -0.953  -2.823  -3.473  0.00  0.00    +0.005 A 
ATOM     17  C   UNL     1      -2.334  -2.886  -3.471  0.00  0.00    +0.014 A 
ATOM     18  C   UNL     1      -2.996  -3.566  -2.464  0.00  0.00    +0.017 A 
ATOM     19  C   UNL     1      -2.277  -4.188  -1.460  0.00  0.00    +0.060 A 
ATOM     20  I   UNL     1      -5.089  -3.658  -2.464  0.00  0.00    -0.044 I 
ENDBRANCH  13  14
ENDBRANCH   5  13
TORSDOF 5
