REMARK  Name = ZINC41087242
REMARK  7 active torsions:
REMARK  status: ('A' for Active; 'I' for Inactive)
REMARK    1  A    between atoms: C_1  and  C_2
REMARK    2  A    between atoms: C_2  and  C_3
REMARK    3  A    between atoms: C_9  and  O_11
REMARK    4  A    between atoms: O_11  and  C_12
REMARK    5  A    between atoms: C_12  and  C_14
REMARK    6  A    between atoms: C_16  and  N_21
REMARK    7  A    between atoms: C_18  and  N_20
REMARK                            x       y       z     vdW  Elec       q    Type
REMARK                         _______ _______ _______ _____ _____    ______ ____
ROOT
ATOM      1  C   UNL     1       2.060  -4.043   1.701  0.00  0.00    +0.062 A 
ATOM      2  C   UNL     1       3.048  -3.232   2.260  0.00  0.00    +0.037 A 
ATOM      3  C   UNL     1       3.740  -3.660   3.384  0.00  0.00    +0.027 A 
ATOM      4  C   UNL     1       3.451  -4.894   3.951  0.00  0.00    +0.045 A 
ATOM      5  C   UNL     1       2.468  -5.704   3.396  0.00  0.00    +0.027 A 
ATOM      6  C   UNL     1       1.768  -5.280   2.277  0.00  0.00    +0.037 A 
ENDROOT
BRANCH   5   7
ATOM      7  N   UNL     1       2.181  -6.945   3.970  0.00  0.00    -0.358 N 
ATOM      8  H   UNL     1       2.668  -7.241   4.755  0.00  0.00    +0.142 HD
ATOM      9  H   UNL     1       1.495  -7.511   3.583  0.00  0.00    +0.142 HD
ENDBRANCH   5   7
BRANCH   3  10
ATOM     10  N   UNL     1       4.730  -2.849   3.945  0.00  0.00    -0.358 N 
ATOM     11  H   UNL     1       4.933  -1.988   3.549  0.00  0.00    +0.142 HD
ATOM     12  H   UNL     1       5.214  -3.148   4.730  0.00  0.00    +0.142 HD
ENDBRANCH   3  10
BRANCH   1  13
ATOM     13  C   UNL     1       1.320  -3.590   0.504  0.00  0.00    +0.340 C 
ATOM     14  O   UNL     1       0.457  -4.294   0.021  0.00  0.00    -0.245 OA
BRANCH  13  15
ATOM     15  O   UNL     1       1.603  -2.395  -0.050  0.00  0.00    -0.458 OA
BRANCH  15  21
ATOM     16  C   UNL     1       0.718  -0.497  -1.257  0.00  0.00    +0.030 C 
ATOM     17  C   UNL     1      -0.089  -0.097  -2.493  0.00  0.00    +0.007 C 
ATOM     18  C   UNL     1       0.627  -0.590  -3.752  0.00  0.00    +0.001 C 
ATOM     19  C   UNL     1       0.758  -2.114  -3.700  0.00  0.00    +0.004 C 
ATOM     20  C   UNL     1       1.565  -2.514  -2.464  0.00  0.00    +0.045 C 
ATOM     21  C   UNL     1       0.849  -2.021  -1.205  0.00  0.00    +0.180 C 
BRANCH  16  23
ATOM     22  C   UNL     1      -0.019   1.526   0.010  0.00  0.00    +0.004 C 
ATOM     23  C   UNL     1       0.002  -0.004   0.002  0.00  0.00    +0.004 C 
ENDBRANCH  16  23
ENDBRANCH  15  21
ENDBRANCH  13  15
ENDBRANCH   1  13
TORSDOF 6
