REMARK  Name = ZINC21822141
REMARK  5 active torsions:
REMARK  status: ('A' for Active; 'I' for Inactive)
REMARK    1  A    between atoms: C_4  and  C_7
REMARK    2  A    between atoms: C_7  and  C_8
REMARK    3  A    between atoms: C_7  and  N_14
REMARK    4  A    between atoms: N_17  and  C_20
REMARK    5  A    between atoms: C_20  and  C_21
REMARK                            x       y       z     vdW  Elec       q    Type
REMARK                         _______ _______ _______ _____ _____    ______ ____
ROOT
ATOM      1  N   UNL     1       3.538  -1.965  -0.776  0.00  0.00    -0.295 NA
ATOM      2  C   UNL     1       2.517  -2.811  -0.143  0.00  0.00    +0.067 C 
ATOM      3  C   UNL     1       2.324  -4.082  -0.974  0.00  0.00    -0.063 C 
ATOM      4  N   UNL     1       3.599  -4.806  -1.063  0.00  0.00    +0.386 N 
ATOM      5  C   UNL     1       4.602  -3.957  -1.720  0.00  0.00    -0.063 C 
ATOM      6  C   UNL     1       4.813  -2.686  -0.895  0.00  0.00    +0.067 C 
ATOM      7  H   UNL     1       3.916  -5.045  -0.136  0.00  0.00    -0.081 HD
ENDROOT
BRANCH   1   8
ATOM      8  C   UNL     1       3.711  -0.707  -0.038  0.00  0.00    +0.117 C 
BRANCH   8  12
ATOM      9  C   UNL     1       6.585   1.736  -2.043  0.00  0.00    +0.000 A 
ATOM     10  C   UNL     1       6.641   1.588  -0.669  0.00  0.00    +0.000 A 
ATOM     11  C   UNL     1       5.711   0.798  -0.021  0.00  0.00    +0.005 A 
ATOM     12  C   UNL     1       4.725   0.155  -0.745  0.00  0.00    -0.026 A 
ATOM     13  C   UNL     1       4.668   0.304  -2.118  0.00  0.00    +0.005 A 
ATOM     14  C   UNL     1       5.599   1.093  -2.767  0.00  0.00    +0.000 A 
ENDBRANCH   8  12
BRANCH   8  15
ATOM     15  C   UNL     1       2.393   0.021   0.032  0.00  0.00    -0.026 A 
ATOM     16  C   UNL     1       1.600   0.122  -1.096  0.00  0.00    +0.005 A 
ATOM     17  C   UNL     1       0.391   0.789  -1.032  0.00  0.00    +0.000 A 
ATOM     18  C   UNL     1      -0.025   1.355   0.159  0.00  0.00    +0.000 A 
ATOM     19  C   UNL     1       0.768   1.253   1.286  0.00  0.00    +0.000 A 
ATOM     20  C   UNL     1       1.975   0.582   1.224  0.00  0.00    +0.005 A 
ENDBRANCH   8  15
ENDBRANCH   1   8
BRANCH   4  21
ATOM     21  C   UNL     1       3.410  -6.035  -1.846  0.00  0.00    -0.003 C 
BRANCH  21  22
ATOM     22  C   UNL     1       4.684  -6.839  -1.835  0.00  0.00    +0.094 A 
ATOM     23  N   UNL     1       4.734  -8.018  -2.506  0.00  0.00    -0.312 N 
ATOM     24  H   UNL     1       3.948  -8.326  -2.984  0.00  0.00    +0.170 HD
ATOM     25  C   UNL     1       5.852  -8.768  -2.522  0.00  0.00    +0.260 A 
ATOM     26  O   UNL     1       5.882  -9.825  -3.130  0.00  0.00    -0.267 OA
ATOM     27  C   UNL     1       7.006  -8.301  -1.813  0.00  0.00    +0.075 A 
ATOM     28  C   UNL     1       8.321  -8.948  -1.694  0.00  0.00    -0.023 A 
ATOM     29  C   UNL     1       9.250  -8.306  -0.966  0.00  0.00    -0.004 A 
ATOM     30  S   UNL     1       8.448  -6.822  -0.403  0.00  0.00    -0.073 S 
ATOM     31  C   UNL     1       6.860  -7.075  -1.151  0.00  0.00    +0.116 A 
ATOM     32  N   UNL     1       5.722  -6.386  -1.184  0.00  0.00    -0.229 NA
ATOM     33  C   UNL     1      10.551  -9.061  -0.910  0.00  0.00    +0.043 C 
ATOM     34  C   UNL     1      10.185 -10.495  -1.355  0.00  0.00    +0.010 C 
ATOM     35  C   UNL     1       8.938 -10.245  -2.225  0.00  0.00    +0.037 C 
ENDBRANCH  21  22
ENDBRANCH   4  21
TORSDOF 5
