REMARK  Name = ZINC13499199
REMARK  14 active torsions:
REMARK  status: ('A' for Active; 'I' for Inactive)
REMARK    1  A    between atoms: C_1  and  C_2
REMARK    2  A    between atoms: C_5  and  C_35
REMARK    3  A    between atoms: C_9  and  C_14
REMARK    4  A    between atoms: C_14  and  N_72
REMARK    5  A    between atoms: C_15  and  C_16
REMARK    6  A    between atoms: C_15  and  N_72
REMARK    7  A    between atoms: C_16  and  C_17
REMARK    8  A    between atoms: C_17  and  O_18
REMARK    9  A    between atoms: C_19  and  C_21
REMARK   10  A    between atoms: C_19  and  C_32
REMARK   11  A    between atoms: C_19  and  N_72
REMARK   12  A    between atoms: N_25  and  C_26
REMARK   13  A    between atoms: C_32  and  C_33
REMARK   14  A    between atoms: C_32  and  C_34
REMARK                            x       y       z     vdW  Elec       q    Type
REMARK                         _______ _______ _______ _____ _____    ______ ____
ROOT
ATOM      1  N   UNL     1      -0.748   1.452   1.827  0.00  0.00    +0.389 N 
ATOM      2  H   UNL     1      -0.858   2.254   1.196  0.00  0.00    -0.080 HD
ENDROOT
BRANCH   1   3
ATOM      3  C   UNL     1      -2.080   1.041   2.318  0.00  0.00    -0.037 C 
BRANCH   3  12
ATOM      4  C   UNL     1      -3.771  -2.820  -0.741  0.00  0.00    +0.044 C 
ATOM      5  C   UNL     1      -4.427  -1.550  -1.218  0.00  0.00    -0.041 A 
ATOM      6  C   UNL     1      -5.288  -1.580  -2.279  0.00  0.00    +0.004 A 
ATOM      7  C   UNL     1      -5.898  -0.416  -2.726  0.00  0.00    +0.005 A 
ATOM      8  C   UNL     1      -5.647   0.791  -2.110  0.00  0.00    -0.026 A 
ATOM      9  C   UNL     1      -4.774   0.846  -1.029  0.00  0.00    +0.052 A 
ATOM     10  C   UNL     1      -4.157  -0.337  -0.578  0.00  0.00    +0.002 A 
ATOM     11  C   UNL     1      -3.237  -0.268   0.558  0.00  0.00    +0.017 A 
ATOM     12  C   UNL     1      -3.018   0.936   1.143  0.00  0.00    +0.001 A 
ATOM     13  C   UNL     1      -3.662   2.092   0.652  0.00  0.00    +0.251 A 
ATOM     14  O   UNL     1      -3.448   3.165   1.189  0.00  0.00    -0.268 OA
ATOM     15  N   UNL     1      -4.506   2.039  -0.394  0.00  0.00    -0.322 N 
ATOM     16  H   UNL     1      -4.931   2.853  -0.706  0.00  0.00    +0.169 HD
ATOM     17  C   UNL     1      -6.316   2.047  -2.607  0.00  0.00    +0.046 C 
ENDBRANCH   3  12
ENDBRANCH   1   3
BRANCH   1  18
ATOM     18  C   UNL     1      -0.118   0.339   1.085  0.00  0.00    -0.075 C 
BRANCH  18  19
ATOM     19  C   UNL     1       1.052   0.893   0.269  0.00  0.00    +0.009 C 
BRANCH  19  20
ATOM     20  C   UNL     1       1.748  -0.253  -0.468  0.00  0.00    +0.154 C 
BRANCH  20  21
ATOM     21  O   UNL     1       2.840   0.265  -1.230  0.00  0.00    -0.395 OA
ATOM     22  H   UNL     1       3.328  -0.408  -1.724  0.00  0.00    +0.209 HD
ENDBRANCH  20  21
ENDBRANCH  19  20
ENDBRANCH  18  19
ENDBRANCH   1  18
BRANCH   1  23
ATOM     23  C   UNL     1       0.109   1.849   2.964  0.00  0.00    +0.006 C 
BRANCH  23  24
ATOM     24  C   UNL     1      -0.196   1.004   4.173  0.00  0.00    +0.139 A 
ATOM     25  N   UNL     1      -1.384   0.680   4.623  0.00  0.00    -0.115 NA
ATOM     26  N   UNL     1      -1.227  -0.051   5.672  0.00  0.00    -0.023 NA
ATOM     27  N   UNL     1       0.030  -0.202   5.904  0.00  0.00    -0.044 NA
ATOM     28  N   UNL     1       0.699   0.429   4.998  0.00  0.00    -0.228 N 
BRANCH  28  29
ATOM     29  C   UNL     1       2.157   0.508   4.891  0.00  0.00    +0.111 C 
ATOM     30  C   UNL     1       2.733  -0.900   4.726  0.00  0.00    +0.027 C 
ATOM     31  C   UNL     1       4.257  -0.818   4.614  0.00  0.00    +0.002 C 
ATOM     32  C   UNL     1       4.828  -0.178   5.881  0.00  0.00    +0.000 C 
ATOM     33  C   UNL     1       4.252   1.230   6.045  0.00  0.00    +0.002 C 
ATOM     34  C   UNL     1       2.728   1.147   6.158  0.00  0.00    +0.027 C 
ENDBRANCH  28  29
ENDBRANCH  23  24
BRANCH  23  35
ATOM     35  C   UNL     1      -0.163   3.320   3.288  0.00  0.00    -0.024 C 
ATOM     36  C   UNL     1       0.125   4.176   2.054  0.00  0.00    +0.006 C 
ATOM     37  C   UNL     1      -1.628   3.490   3.697  0.00  0.00    +0.006 C 
ENDBRANCH  23  35
ENDBRANCH   1  23
TORSDOF 10
