REMARK  Name = ZINC12406467
REMARK  4 active torsions:
REMARK  status: ('A' for Active; 'I' for Inactive)
REMARK    1  A    between atoms: C_1  and  O_2
REMARK    2  A    between atoms: O_2  and  C_3
REMARK    3  A    between atoms: C_7  and  C_9
REMARK    4  A    between atoms: C_14  and  C_19
REMARK                            x       y       z     vdW  Elec       q    Type
REMARK                         _______ _______ _______ _____ _____    ______ ____
ROOT
ATOM      1  C   UNL     1      -0.663   3.466   1.738  0.00  0.00    +0.137 C 
ATOM      2  C   UNL     1      -1.450   2.634   0.745  0.00  0.00    +0.037 C 
ATOM      3  C   UNL     1      -1.077   1.573   0.012  0.00  0.00    +0.019 C 
ATOM      4  C   UNL     1      -2.029   0.943  -0.988  0.00  0.00    +0.060 C 
ATOM      5  C   UNL     1      -3.458   1.000  -0.451  0.00  0.00    +0.039 C 
ATOM      6  C   UNL     1      -3.812   2.480  -0.259  0.00  0.00    +0.088 C 
ATOM      7  C   UNL     1      -2.786   3.113   0.625  0.00  0.00    +0.163 C 
ATOM      8  O   UNL     1      -3.108   4.088   1.275  0.00  0.00    -0.292 OA
ATOM      9  N   UNL     1       0.142   0.965   0.074  0.00  0.00    -0.297 N 
ATOM     10  C   UNL     1       1.332   1.678   0.123  0.00  0.00    +0.208 A 
ATOM     11  C   UNL     1       1.579   2.607   1.216  0.00  0.00    +0.205 A 
ATOM     12  N   UNL     1       2.770   3.100   1.084  0.00  0.00    -0.032 NA
ATOM     13  O   UNL     1       3.326   2.551  -0.103  0.00  0.00    -0.239 OA
ATOM     14  N   UNL     1       2.357   1.676  -0.666  0.00  0.00    -0.032 NA
ATOM     15  N   UNL     1       0.600   2.891   2.167  0.00  0.00    -0.313 N 
ATOM     16  H   UNL     1       0.179  -0.004   0.081  0.00  0.00    +0.153 HD
ATOM     17  H   UNL     1       0.760   2.707   3.106  0.00  0.00    +0.149 HD
ENDROOT
BRANCH   1  22
ATOM     18  C   UNL     1      -0.718   7.181   1.054  0.00  0.00    +0.120 A 
ATOM     19  C   UNL     1       0.134   7.272  -0.037  0.00  0.00    +0.045 A 
ATOM     20  C   UNL     1       0.723   6.133  -0.549  0.00  0.00    +0.004 A 
ATOM     21  C   UNL     1       0.465   4.902   0.026  0.00  0.00    +0.006 A 
ATOM     22  C   UNL     1      -0.383   4.809   1.113  0.00  0.00    -0.019 A 
ATOM     23  C   UNL     1      -0.979   5.945   1.626  0.00  0.00    +0.051 A 
BRANCH  18  25
ATOM     24  C   UNL     1      -0.987   9.540   0.917  0.00  0.00    +0.277 C 
ATOM     25  O   UNL     1      -1.298   8.301   1.559  0.00  0.00    -0.495 OA
ENDBRANCH  18  25
ENDBRANCH   1  22
BRANCH   5  26
ATOM     26  C   UNL     1      -4.405   0.371  -1.440  0.00  0.00    -0.006 A 
ATOM     27  C   UNL     1      -5.257  -0.669  -1.264  0.00  0.00    +0.011 A 
ATOM     28  C   UNL     1      -6.041  -1.081  -2.325  0.00  0.00    +0.008 A 
ATOM     29  C   UNL     1      -5.935  -0.432  -3.511  0.00  0.00    +0.045 A 
ATOM     30  S   UNL     1      -4.703   0.807  -3.145  0.00  0.00    -0.101 S 
ENDBRANCH   5  26
TORSDOF 3
