REMARK  Name = ZINC20060228
REMARK  8 active torsions:
REMARK  status: ('A' for Active; 'I' for Inactive)
REMARK    1  A    between atoms: C_1  and  C_2
REMARK    2  A    between atoms: C_2  and  N_3
REMARK    3  A    between atoms: N_3  and  C_4
REMARK    4  A    between atoms: N_3  and  C_6
REMARK    5  A    between atoms: C_4  and  C_5
REMARK    6  A    between atoms: C_9  and  C_12
REMARK    7  A    between atoms: C_18  and  C_27
REMARK    8  A    between atoms: C_24  and  C_26
REMARK                            x       y       z     vdW  Elec       q    Type
REMARK                         _______ _______ _______ _____ _____    ______ ____
ROOT
ATOM      1  C   UNL     1      -1.273  -6.168   0.986  0.00  0.00    +0.222 C 
ATOM      2  N   UNL     1      -2.594  -6.596   1.466  0.00  0.00    -0.319 N 
ATOM      3  C   UNL     1      -2.974  -6.405   2.794  0.00  0.00    +0.038 A 
ATOM      4  C   UNL     1      -4.298  -6.218   3.149  0.00  0.00    +0.024 A 
ATOM      5  C   UNL     1      -4.636  -6.044   4.479  0.00  0.00    +0.005 A 
ATOM      6  C   UNL     1      -3.663  -6.055   5.463  0.00  0.00    -0.050 A 
ATOM      7  C   UNL     1      -2.333  -6.236   5.127  0.00  0.00    +0.015 A 
ATOM      8  C   UNL     1      -1.984  -6.406   3.797  0.00  0.00    +0.021 A 
ATOM      9  C   UNL     1      -0.591  -6.576   3.344  0.00  0.00    +0.073 A 
ATOM     10  N   UNL     1      -0.269  -6.470   2.009  0.00  0.00    -0.238 N 
ATOM     11  N   UNL     1       1.097  -6.690   1.886  0.00  0.00    -0.174 NA
ATOM     12  C   UNL     1       1.592  -6.910   3.082  0.00  0.00    +0.061 A 
ATOM     13  C   UNL     1       0.548  -6.842   4.020  0.00  0.00    +0.052 A 
ATOM     14  C   UNL     1       3.039  -7.189   3.397  0.00  0.00    +0.067 C 
ATOM     15  C   UNL     1      -4.053  -5.869   6.907  0.00  0.00    +0.044 C 
ATOM     16  H   UNL     1      -3.213  -7.018   0.849  0.00  0.00    +0.148 HD
ENDROOT
BRANCH   1  20
ATOM     17  C   UNL     1      -1.323  -1.965   0.226  0.00  0.00    +0.013 A 
ATOM     18  C   UNL     1      -0.653  -2.814  -0.634  0.00  0.00    +0.022 A 
ATOM     19  C   UNL     1      -0.637  -4.175  -0.388  0.00  0.00    +0.009 A 
ATOM     20  C   UNL     1      -1.290  -4.685   0.718  0.00  0.00    -0.005 A 
ATOM     21  C   UNL     1      -1.959  -3.835   1.579  0.00  0.00    +0.009 A 
ATOM     22  C   UNL     1      -1.972  -2.475   1.335  0.00  0.00    +0.022 A 
BRANCH  17  23
ATOM     23  N   UNL     1      -1.340  -0.589  -0.022  0.00  0.00    -0.394 NA
ATOM     24  H   UNL     1      -1.866  -0.123   0.702  0.00  0.00    +0.126 HD
BRANCH  23  26
ATOM     25  C   UNL     1       0.642  -0.208   1.365  0.00  0.00    +0.022 C 
ATOM     26  C   UNL     1       0.037  -0.077  -0.034  0.00  0.00    +0.081 C 
ENDBRANCH  23  26
BRANCH  23  27
ATOM     27  C   UNL     1      -1.968  -0.335  -1.325  0.00  0.00    +0.081 C 
ATOM     28  C   UNL     1      -3.440  -0.751  -1.272  0.00  0.00    +0.022 C 
ENDBRANCH  23  27
ENDBRANCH  17  23
ENDBRANCH   1  20
TORSDOF 4
