REMARK  Name = ZINC60208093
REMARK  7 active torsions:
REMARK  status: ('A' for Active; 'I' for Inactive)
REMARK    1  A    between atoms: C_1  and  C_2
REMARK    2  A    between atoms: C_2  and  C_3
REMARK    3  A    between atoms: C_2  and  C_4
REMARK    4  A    between atoms: C_2  and  C_28
REMARK    5  A    between atoms: C_4  and  N_5
REMARK    6  A    between atoms: C_6  and  C_8
REMARK    7  A    between atoms: C_12  and  N_14
REMARK                            x       y       z     vdW  Elec       q    Type
REMARK                         _______ _______ _______ _____ _____    ______ ____
ROOT
ATOM      1  C   UNL     1      -4.008  -0.139   2.825  0.00  0.00    +0.039 A 
ATOM      2  C   UNL     1      -3.424   0.886   3.571  0.00  0.00    +0.013 A 
ATOM      3  C   UNL     1      -4.159   1.540   4.540  0.00  0.00    +0.003 A 
ATOM      4  C   UNL     1      -5.473   1.182   4.775  0.00  0.00    +0.025 A 
ATOM      5  C   UNL     1      -6.063   0.162   4.038  0.00  0.00    +0.057 A 
ATOM      6  C   UNL     1      -5.335  -0.496   3.059  0.00  0.00    +0.038 A 
ENDROOT
BRANCH   5   7
ATOM      7  N   UNL     1      -7.394  -0.196   4.280  0.00  0.00    -0.188 N 
ATOM      8  C   UNL     1      -8.251  -0.329   3.247  0.00  0.00    +0.240 C 
ATOM      9  O   UNL     1      -7.891  -0.095   2.112  0.00  0.00    -0.273 OA
ATOM     10  C   UNL     1      -9.673  -0.777   3.530  0.00  0.00    +0.093 C 
ATOM     11  C   UNL     1     -10.446   0.449   4.031  0.00  0.00    +0.040 C 
ATOM     12  C   UNL     1     -11.711   0.045   4.721  0.00  0.00    -0.030 C 
ATOM     13  C   UNL     1     -11.950  -1.145   5.167  0.00  0.00    -0.030 C 
ATOM     14  C   UNL     1     -10.995  -2.293   5.032  0.00  0.00    +0.040 C 
ATOM     15  C   UNL     1      -9.601  -1.825   4.648  0.00  0.00    +0.092 C 
ATOM     16  C   UNL     1      -8.879  -1.234   5.827  0.00  0.00    +0.234 C 
ATOM     17  O   UNL     1      -9.232  -1.486   6.960  0.00  0.00    -0.274 OA
ATOM     18  N   UNL     1      -7.827  -0.420   5.596  0.00  0.00    -0.227 N 
ATOM     19  H   UNL     1      -7.374   0.011   6.338  0.00  0.00    +0.173 HD
ENDBRANCH   5   7
BRANCH   1  21
ATOM     20  N   UNL     1      -1.940  -0.494   1.564  0.00  0.00    -0.311 N 
ATOM     21  C   UNL     1      -3.223  -0.841   1.787  0.00  0.00    +0.244 C 
ATOM     22  O   UNL     1      -3.734  -1.730   1.136  0.00  0.00    -0.270 OA
ATOM     23  H   UNL     1      -1.531   0.215   2.084  0.00  0.00    +0.149 HD
BRANCH  20  24
ATOM     24  C   UNL     1      -1.162  -1.189   0.535  0.00  0.00    +0.115 C 
BRANCH  24  26
ATOM     25  C   UNL     1       0.180   0.883   0.149  0.00  0.00    +0.017 C 
ATOM     26  C   UNL     1       0.253  -0.608   0.485  0.00  0.00    +0.006 C 
ATOM     27  C   UNL     1       0.928  -0.791   1.846  0.00  0.00    +0.017 C 
BRANCH  26  28
ATOM     28  C   UNL     1       1.053  -1.323  -0.573  0.00  0.00    -0.039 A 
ATOM     29  C   UNL     1       0.469  -2.331  -1.318  0.00  0.00    +0.004 A 
ATOM     30  C   UNL     1       1.202  -2.987  -2.288  0.00  0.00    +0.002 A 
ATOM     31  C   UNL     1       2.520  -2.636  -2.514  0.00  0.00    +0.020 A 
ATOM     32  C   UNL     1       3.105  -1.628  -1.769  0.00  0.00    +0.041 A 
ATOM     33  C   UNL     1       2.368  -0.968  -0.802  0.00  0.00    +0.024 A 
ATOM     34 CL   UNL     1       4.760  -1.188  -2.053  0.00  0.00    -0.084 Cl
ENDBRANCH  26  28
ENDBRANCH  24  26
ENDBRANCH  20  24
ENDBRANCH   1  21
TORSDOF 5
