REMARK  Name = ZINC26796964
REMARK  7 active torsions:
REMARK  status: ('A' for Active; 'I' for Inactive)
REMARK    1  A    between atoms: C_3  and  C_16
REMARK    2  A    between atoms: C_6  and  C_7
REMARK    3  A    between atoms: C_7  and  O_8
REMARK    4  A    between atoms: O_8  and  C_9
REMARK    5  A    between atoms: N_18  and  N_19
REMARK    6  A    between atoms: C_20  and  C_22
REMARK    7  A    between atoms: C_23  and  C_24
REMARK                            x       y       z     vdW  Elec       q    Type
REMARK                         _______ _______ _______ _____ _____    ______ ____
ROOT
ATOM      1  C   UNL     1      -2.392   0.960   0.019  0.00  0.00    +0.260 C 
ATOM      2  O   UNL     1      -2.375  -0.255   0.012  0.00  0.00    -0.269 OA
ATOM      3  N   UNL     1      -1.234   1.650   0.017  0.00  0.00    -0.230 N 
ATOM      4  H   UNL     1      -1.249   2.750   0.023  0.00  0.00    +0.173 HD
ENDROOT
BRANCH   1   7
ATOM      5  C   UNL     1      -6.083   1.650   0.040  0.00  0.00    +0.008 A 
ATOM      6  C   UNL     1      -4.883   0.971   0.030  0.00  0.00    +0.013 A 
ATOM      7  C   UNL     1      -3.682   1.682   0.029  0.00  0.00    +0.038 A 
ATOM      8  C   UNL     1      -3.704   3.077   0.042  0.00  0.00    +0.013 A 
ATOM      9  C   UNL     1      -4.912   3.745   0.046  0.00  0.00    +0.008 A 
ATOM     10  C   UNL     1      -6.099   3.034   0.048  0.00  0.00    -0.010 A 
BRANCH  10  11
ATOM     11  C   UNL     1      -7.414   3.769   0.058  0.00  0.00    +0.264 C 
BRANCH  11  12
ATOM     12  O   UNL     1      -7.823   3.995   1.409  0.00  0.00    -0.487 OA
BRANCH  12  13
ATOM     13  C   UNL     1      -8.998   4.651   1.596  0.00  0.00    +0.121 A 
ATOM     14  C   UNL     1      -9.739   5.075   0.502  0.00  0.00    +0.047 A 
ATOM     15  C   UNL     1     -10.935   5.739   0.695  0.00  0.00    +0.023 A 
ATOM     16  C   UNL     1     -11.390   5.989   1.977  0.00  0.00    +0.041 A 
ATOM     17  C   UNL     1     -10.650   5.572   3.069  0.00  0.00    +0.023 A 
ATOM     18  C   UNL     1      -9.456   4.904   2.881  0.00  0.00    +0.047 A 
ATOM     19 CL   UNL     1     -12.891   6.828   2.216  0.00  0.00    -0.084 Cl
ENDBRANCH  12  13
ENDBRANCH  11  12
ENDBRANCH  10  11
ENDBRANCH   1   7
BRANCH   3  20
ATOM     20  N   UNL     1      -0.011   0.966   0.007  0.00  0.00    -0.231 N 
ATOM     21  C   UNL     1       1.147   1.655   0.000  0.00  0.00    +0.253 C 
ATOM     22  O   UNL     1       1.130   2.874   0.007  0.00  0.00    -0.269 OA
ATOM     23  H   UNL     1       0.004  -0.134   0.006  0.00  0.00    +0.173 HD
BRANCH  21  24
ATOM     24  C   UNL     1       2.376   0.968  -0.015  0.00  0.00    +0.071 C 
ATOM     25  C   UNL     1       3.547   1.665  -0.023  0.00  0.00    +0.034 C 
BRANCH  25  26
ATOM     26  C   UNL     1       4.775   0.978  -0.038  0.00  0.00    +0.085 A 
ATOM     27  C   UNL     1       5.157  -0.050   0.809  0.00  0.00    +0.156 A 
ATOM     28  N   UNL     1       6.384  -0.428   0.466  0.00  0.00    -0.209 NA
ATOM     29  C   UNL     1       6.804   0.301  -0.537  0.00  0.00    +0.179 A 
ATOM     30  N   UNL     1       5.853   1.207  -0.913  0.00  0.00    -0.292 N 
ATOM     31  C   UNL     1       6.162   2.042  -1.961  0.00  0.00    +0.101 A 
ATOM     32  C   UNL     1       7.343   1.959  -2.574  0.00  0.00    +0.067 A 
ATOM     33  S   UNL     1       8.133   0.636  -1.671  0.00  0.00    -0.058 S 
ATOM     34 CL   UNL     1       4.200  -0.726   2.089  0.00  0.00    -0.060 Cl
ENDBRANCH  25  26
ENDBRANCH  21  24
ENDBRANCH   3  20
TORSDOF 7
