REMARK  Name = ZINC12659653
REMARK  9 active torsions:
REMARK  status: ('A' for Active; 'I' for Inactive)
REMARK    1  A    between atoms: C_1  and  C_2
REMARK    2  A    between atoms: C_2  and  C_4
REMARK    3  A    between atoms: C_4  and  O_41
REMARK    4  A    between atoms: C_9  and  C_40
REMARK    5  A    between atoms: N_21  and  O_22
REMARK    6  A    between atoms: O_22  and  C_23
REMARK    7  A    between atoms: C_23  and  C_24
REMARK    8  A    between atoms: N_26  and  C_27
REMARK    9  A    between atoms: C_38  and  C_39
REMARK                            x       y       z     vdW  Elec       q    Type
REMARK                         _______ _______ _______ _____ _____    ______ ____
ROOT
ATOM      1  C   UNL     1      -8.872 -10.216  -6.653  0.00  0.00    +0.129 C 
ATOM      2  C   UNL     1      -8.621  -9.169  -7.766  0.00  0.00    +0.043 C 
ATOM      3  C   UNL     1      -8.109  -7.885  -7.057  0.00  0.00    +0.008 C 
ATOM      4  C   UNL     1      -7.719  -8.393  -5.659  0.00  0.00    +0.002 C 
ATOM      5  C   UNL     1      -8.861  -9.383  -5.354  0.00  0.00    +0.007 C 
ATOM      6  C   UNL     1      -8.588 -10.171  -4.098  0.00  0.00    +0.010 C 
ATOM      7  C   UNL     1      -7.781  -9.336  -3.094  0.00  0.00    +0.005 C 
ATOM      8  C   UNL     1      -8.085  -7.851  -3.254  0.00  0.00    +0.002 C 
ATOM      9  C   UNL     1      -7.548  -7.350  -4.595  0.00  0.00    -0.003 C 
ATOM     10  C   UNL     1      -8.146  -5.997  -4.947  0.00  0.00    +0.008 C 
ATOM     11  C   UNL     1      -8.207  -5.110  -3.702  0.00  0.00    +0.031 C 
ATOM     12  C   UNL     1      -7.239  -5.629  -2.663  0.00  0.00    -0.062 C 
ATOM     13  C   UNL     1      -6.245  -4.867  -2.238  0.00  0.00    +0.026 C 
ATOM     14  C   UNL     1      -5.284  -5.354  -1.241  0.00  0.00    +0.080 C 
ATOM     15  N   UNL     1      -4.339  -4.574  -0.819  0.00  0.00    -0.089 NA
ATOM     16  C   UNL     1      -5.392  -6.759  -0.708  0.00  0.00    +0.059 C 
ATOM     17  C   UNL     1      -6.101  -7.643  -1.735  0.00  0.00    +0.017 C 
ATOM     18  C   UNL     1      -7.438  -7.029  -2.131  0.00  0.00    -0.007 C 
ATOM     19  C   UNL     1      -8.383  -6.989  -0.928  0.00  0.00    +0.016 C 
ATOM     20  C   UNL     1     -10.223  -8.685  -5.264  0.00  0.00    +0.015 C 
ENDROOT
BRANCH   1  22
ATOM     21  C   UNL     1     -10.507 -12.186  -6.159  0.00  0.00    +0.089 C 
ATOM     22  C   UNL     1     -10.214 -10.870  -6.832  0.00  0.00    +0.162 C 
ATOM     23  O   UNL     1     -11.057 -10.340  -7.515  0.00  0.00    -0.295 OA
ENDBRANCH   1  22
BRANCH   1  24
ATOM     24  O   UNL     1      -7.828 -11.184  -6.630  0.00  0.00    -0.381 OA
ATOM     25  H   UNL     1      -7.787 -11.737  -7.422  0.00  0.00    +0.211 HD
ENDBRANCH   1  24
BRANCH  15  26
ATOM     26  O   UNL     1      -4.236  -3.252  -1.318  0.00  0.00    -0.384 OA
BRANCH  26  27
ATOM     27  C   UNL     1      -3.149  -2.506  -0.767  0.00  0.00    +0.358 C 
BRANCH  27  28
ATOM     28  C   UNL     1      -3.135  -1.123  -1.365  0.00  0.00    +0.254 C 
ATOM     29  O   UNL     1      -3.973  -0.808  -2.184  0.00  0.00    -0.272 OA
ATOM     30  N   UNL     1      -2.191  -0.236  -0.992  0.00  0.00    -0.301 N 
ATOM     31  H   UNL     1      -1.521  -0.488  -0.337  0.00  0.00    +0.150 HD
BRANCH  30  32
ATOM     32  C   UNL     1      -2.177   1.108  -1.574  0.00  0.00    +0.159 C 
ATOM     33  C   UNL     1      -0.814   1.759  -1.331  0.00  0.00    +0.032 C 
ATOM     34  C   UNL     1      -0.248   1.339   0.013  0.00  0.00    +0.004 C 
ATOM     35  C   UNL     1      -1.041   1.859   1.198  0.00  0.00    +0.019 C 
ATOM     36  C   UNL     1      -2.426   1.219   1.255  0.00  0.00    +0.104 C 
ATOM     37  N   UNL     1      -3.342   2.005   0.412  0.00  0.00    -0.314 N 
ATOM     38  C   UNL     1      -3.241   1.962  -0.917  0.00  0.00    +0.233 C 
ATOM     39  O   UNL     1      -4.005   2.609  -1.602  0.00  0.00    -0.274 OA
ATOM     40  H   UNL     1      -4.023   2.557   0.826  0.00  0.00    +0.149 HD
ENDBRANCH  30  32
ENDBRANCH  27  28
ENDBRANCH  26  27
ENDBRANCH  15  26
TORSDOF 6
