REMARK  Name = ZINC06587258
REMARK  10 active torsions:
REMARK  status: ('A' for Active; 'I' for Inactive)
REMARK    1  A    between atoms: C_4  and  C_7
REMARK    2  A    between atoms: C_7  and  C_9
REMARK    3  A    between atoms: C_7  and  C_23
REMARK    4  A    between atoms: C_9  and  N_54
REMARK    5  A    between atoms: C_10  and  C_11
REMARK    6  A    between atoms: C_10  and  N_54
REMARK    7  A    between atoms: C_11  and  C_13
REMARK    8  A    between atoms: C_11  and  O_22
REMARK    9  A    between atoms: C_13  and  O_14
REMARK   10  A    between atoms: O_14  and  C_15
REMARK                            x       y       z     vdW  Elec       q    Type
REMARK                         _______ _______ _______ _____ _____    ______ ____
ROOT
ATOM      1  C   UNL     1       3.672   2.182  -0.024  0.00  0.00    +0.034 C 
ENDROOT
BRANCH   1   2
ATOM      2  C   UNL     1       3.728   3.055  -1.251  0.00  0.00    -0.017 A 
ATOM      3  C   UNL     1       2.864   4.029  -1.578  0.00  0.00    +0.087 A 
ATOM      4  N   UNL     1       3.236   4.604  -2.763  0.00  0.00    -0.360 N 
ATOM      5  H   UNL     1       2.765   5.331  -3.201  0.00  0.00    +0.165 HD
ATOM      6  C   UNL     1       4.377   4.000  -3.239  0.00  0.00    +0.047 A 
ATOM      7  C   UNL     1       4.739   3.006  -2.310  0.00  0.00    +0.003 A 
ATOM      8  C   UNL     1       5.875   2.226  -2.532  0.00  0.00    +0.010 A 
ATOM      9  C   UNL     1       6.633   2.433  -3.650  0.00  0.00    +0.001 A 
ATOM     10  C   UNL     1       6.282   3.414  -4.568  0.00  0.00    +0.002 A 
ATOM     11  C   UNL     1       5.161   4.191  -4.372  0.00  0.00    +0.026 A 
ENDBRANCH   1   2
BRANCH   1  15
ATOM     12  C   UNL     1       0.002  -0.004   0.002  0.00  0.00    +0.000 A 
ATOM     13  C   UNL     1      -0.017   1.378   0.010  0.00  0.00    +0.000 A 
ATOM     14  C   UNL     1       1.171   2.086   0.002  0.00  0.00    +0.004 A 
ATOM     15  C   UNL     1       2.377   1.411  -0.015  0.00  0.00    -0.042 A 
ATOM     16  C   UNL     1       2.396   0.029  -0.022  0.00  0.00    +0.004 A 
ATOM     17  C   UNL     1       1.208  -0.679  -0.013  0.00  0.00    +0.000 A 
ENDBRANCH   1  15
BRANCH   1  18
ATOM     18  C   UNL     1       3.753   3.057   1.228  0.00  0.00    -0.070 C 
BRANCH  18  19
ATOM     19  N   UNL     1       3.820   2.190   2.420  0.00  0.00    +0.381 N 
ATOM     20  H   UNL     1       4.652   1.591   2.358  0.00  0.00    -0.086 HD
ATOM     21  H   UNL     1       2.978   1.603   2.459  0.00  0.00    -0.086 HD
BRANCH  19  22
ATOM     22  C   UNL     1       3.899   3.008   3.645  0.00  0.00    -0.047 C 
BRANCH  22  23
ATOM     23  C   UNL     1       3.966   2.083   4.862  0.00  0.00    +0.135 C 
BRANCH  23  24
ATOM     24  O   UNL     1       2.795   1.266   4.905  0.00  0.00    -0.390 OA
ATOM     25  H   UNL     1       1.969   1.766   4.971  0.00  0.00    +0.210 HD
ENDBRANCH  23  24
BRANCH  23  26
ATOM     26  C   UNL     1       4.049   2.924   6.137  0.00  0.00    +0.258 C 
BRANCH  26  27
ATOM     27  O   UNL     1       4.229   2.064   7.264  0.00  0.00    -0.487 OA
BRANCH  27  28
ATOM     28  C   UNL     1       4.322   2.656   8.484  0.00  0.00    +0.156 A 
ATOM     29  C   UNL     1       4.248   4.037   8.594  0.00  0.00    +0.048 A 
ATOM     30  C   UNL     1       4.339   4.637   9.835  0.00  0.00    +0.004 A 
ATOM     31  C   UNL     1       4.513   3.863  10.968  0.00  0.00    +0.003 A 
ATOM     32  C   UNL     1       4.593   2.487  10.863  0.00  0.00    +0.042 A 
ATOM     33  C   UNL     1       4.498   1.881   9.623  0.00  0.00    +0.165 A 
ATOM     34  F   UNL     1       4.576   0.536   9.520  0.00  0.00    -0.202 F 
ENDBRANCH  27  28
ENDBRANCH  26  27
ENDBRANCH  23  26
ENDBRANCH  22  23
ENDBRANCH  19  22
ENDBRANCH  18  19
ENDBRANCH   1  18
TORSDOF 10
