REMARK  Name = ZINC09808346
REMARK  10 active torsions:
REMARK  status: ('A' for Active; 'I' for Inactive)
REMARK    1  A    between atoms: C_1  and  C_2
REMARK    2  A    between atoms: C_2  and  O_3
REMARK    3  A    between atoms: O_3  and  C_4
REMARK    4  A    between atoms: C_4  and  C_6
REMARK    5  A    between atoms: C_11  and  C_13
REMARK    6  A    between atoms: C_11  and  C_22
REMARK    7  A    between atoms: C_11  and  N_58
REMARK    8  A    between atoms: C_16  and  N_19
REMARK    9  A    between atoms: C_23  and  O_35
REMARK   10  A    between atoms: C_28  and  C_30
REMARK                            x       y       z     vdW  Elec       q    Type
REMARK                         _______ _______ _______ _____ _____    ______ ____
ROOT
ATOM      1  C   UNL     1      -8.386   0.319   0.038  0.00  0.00    +0.005 C 
ENDROOT
BRANCH   1   2
ATOM      2  C   UNL     1      -6.881   0.400   0.032  0.00  0.00    +0.045 A 
ATOM      3  C   UNL     1      -6.094   1.482   0.036  0.00  0.00    +0.225 A 
ATOM      4  N   UNL     1      -4.726   1.354   0.029  0.00  0.00    -0.173 N 
ATOM      5  C   UNL     1      -4.219   0.084   0.020  0.00  0.00    +0.199 A 
ATOM      6  S   UNL     1      -5.682  -0.924   0.020  0.00  0.00    -0.050 S 
ATOM      7  N   UNL     1      -2.916   0.130   0.009  0.00  0.00    -0.197 NA
ATOM      8  C   UNL     1      -2.518   1.410   0.020  0.00  0.00    +0.218 A 
ATOM      9  N   UNL     1      -3.579   2.189   0.029  0.00  0.00    -0.138 NA
BRANCH   8  10
ATOM     10  C   UNL     1      -1.115   1.872   0.017  0.00  0.00    +0.173 A 
ATOM     11  C   UNL     1      -0.013   1.076   0.008  0.00  0.00    +0.053 A 
ATOM     12  C   UNL     1       1.107   1.932   0.002  0.00  0.00    +0.042 A 
ATOM     13  C   UNL     1       0.638   3.195   0.013  0.00  0.00    +0.196 A 
ATOM     14  O   UNL     1      -0.705   3.155   0.026  0.00  0.00    -0.460 OA
ENDBRANCH   8  10
BRANCH   3  15
ATOM     15  O   UNL     1      -6.654   2.721   0.045  0.00  0.00    -0.492 OA
ATOM     16  H   UNL     1      -6.820   3.085  -0.835  0.00  0.00    +0.294 HD
ENDBRANCH   3  15
ENDBRANCH   1   2
BRANCH   1  22
ATOM     17  C   UNL     1     -10.215  -1.717   3.323  0.00  0.00    +0.094 C 
ATOM     18  C   UNL     1      -8.701  -1.488   3.326  0.00  0.00    -0.004 C 
ATOM     19  C   UNL     1      -8.360  -0.347   2.365  0.00  0.00    -0.077 C 
ATOM     20  C   UNL     1     -10.275  -0.869   0.975  0.00  0.00    -0.077 C 
ATOM     21  C   UNL     1     -10.674  -2.025   1.895  0.00  0.00    -0.004 C 
ATOM     22  N   UNL     1      -8.805  -0.717   1.005  0.00  0.00    +0.387 N 
ATOM     23  H   UNL     1      -8.373  -1.611   0.744  0.00  0.00    -0.080 HD
BRANCH  17  24
ATOM     24  C   UNL     1     -10.552  -2.877   4.223  0.00  0.00    +0.310 C 
ATOM     25  O   UNL     1      -9.671  -3.463   4.808  0.00  0.00    -0.251 OA
BRANCH  24  26
ATOM     26  O   UNL     1     -11.829  -3.261   4.375  0.00  0.00    -0.465 OA
BRANCH  26  28
ATOM     27  C   UNL     1     -13.581  -4.675   5.304  0.00  0.00    +0.048 C 
ATOM     28  C   UNL     1     -12.079  -4.387   5.257  0.00  0.00    +0.229 C 
ENDBRANCH  26  28
ENDBRANCH  24  26
ENDBRANCH  17  24
ENDBRANCH   1  22
BRANCH   1  29
ATOM     29  C   UNL     1      -8.873  -0.067  -1.335  0.00  0.00    -0.056 A 
ATOM     30  C   UNL     1      -8.833  -1.389  -1.736  0.00  0.00    +0.004 A 
ATOM     31  C   UNL     1      -9.284  -1.744  -2.994  0.00  0.00    +0.033 A 
ATOM     32  C   UNL     1      -9.767  -0.774  -3.854  0.00  0.00    +0.126 A 
ATOM     33  C   UNL     1      -9.802   0.548  -3.454  0.00  0.00    +0.033 A 
ATOM     34  C   UNL     1      -9.355   0.902  -2.195  0.00  0.00    +0.004 A 
BRANCH  32  35
ATOM     35  N   UNL     1     -10.245  -1.153  -5.202  0.00  0.00    +0.056 N 
ATOM     36  O   UNL     1     -10.669  -0.300  -5.960  0.00  0.00    -0.126 OA
ATOM     37  O   UNL     1     -10.213  -2.319  -5.554  0.00  0.00    -0.126 OA
ENDBRANCH  32  35
ENDBRANCH   1  29
TORSDOF 9
