REMARK  Name = ZINC09775598
REMARK  12 active torsions:
REMARK  status: ('A' for Active; 'I' for Inactive)
REMARK    1  A    between atoms: C_1  and  C_2
REMARK    2  A    between atoms: C_2  and  C_3
REMARK    3  A    between atoms: N_9  and  C_10
REMARK    4  A    between atoms: C_10  and  C_11
REMARK    5  A    between atoms: C_11  and  C_12
REMARK    6  A    between atoms: C_12  and  N_13
REMARK    7  A    between atoms: C_14  and  C_16
REMARK    8  A    between atoms: C_16  and  C_17
REMARK    9  A    between atoms: C_17  and  C_18
REMARK   10  A    between atoms: C_18  and  N_19
REMARK   11  A    between atoms: C_20  and  C_22
REMARK   12  A    between atoms: C_22  and  N_23
REMARK                            x       y       z     vdW  Elec       q    Type
REMARK                         _______ _______ _______ _____ _____    ______ ____
ROOT
ATOM      1  C   UNL     1      -4.355   6.487   8.111  0.00  0.00    +0.104 C 
ENDROOT
BRANCH   1   2
ATOM      2  N   UNL     1      -4.548   7.933   8.255  0.00  0.00    -0.314 N 
ATOM      3  C   UNL     1      -5.265   8.417   9.289  0.00  0.00    +0.233 C 
ATOM      4  O   UNL     1      -5.750   7.657  10.100  0.00  0.00    -0.274 OA
ATOM      5  H   UNL     1      -4.160   8.541   7.607  0.00  0.00    +0.149 HD
BRANCH   3   6
ATOM      6  C   UNL     1      -5.464   9.903   9.437  0.00  0.00    +0.221 C 
BRANCH   6   7
ATOM      7  N   UNL     1      -6.271  10.172  10.630  0.00  0.00    -0.290 N 
ATOM      8  C   UNL     1      -7.623  10.221  10.520  0.00  0.00    +0.203 A 
ATOM      9  N   UNL     1      -8.378  10.457  11.560  0.00  0.00    -0.230 NA
ATOM     10  C   UNL     1      -7.843  10.658  12.761  0.00  0.00    +0.116 A 
ATOM     11  C   UNL     1      -6.456  10.626  12.973  0.00  0.00    +0.076 A 
ATOM     12  C   UNL     1      -5.657  10.359  11.813  0.00  0.00    +0.263 A 
ATOM     13  O   UNL     1      -4.442  10.306  11.896  0.00  0.00    -0.267 OA
ATOM     14  C   UNL     1      -6.012  10.864  14.346  0.00  0.00    -0.023 A 
ATOM     15  C   UNL     1      -6.971  11.089  15.269  0.00  0.00    -0.004 A 
ATOM     16  S   UNL     1      -8.499  10.998  14.375  0.00  0.00    -0.073 S 
ATOM     17  C   UNL     1      -6.779  11.358  16.730  0.00  0.00    +0.043 C 
ATOM     18  C   UNL     1      -5.341  10.974  17.108  0.00  0.00    +0.005 C 
ATOM     19  C   UNL     1      -4.383  11.582  16.079  0.00  0.00    +0.005 C 
ATOM     20  C   UNL     1      -4.537  10.863  14.738  0.00  0.00    +0.037 C 
ENDBRANCH   6   7
ENDBRANCH   3   6
ENDBRANCH   1   2
BRANCH   1  21
ATOM     21  C   UNL     1      -3.512   6.207   6.866  0.00  0.00    +0.028 C 
BRANCH  21  22
ATOM     22  C   UNL     1      -3.310   4.698   6.715  0.00  0.00    +0.097 C 
BRANCH  22  24
ATOM     23  N   UNL     1      -2.172   3.153   5.154  0.00  0.00    -0.315 N 
ATOM     24  C   UNL     1      -2.480   4.422   5.489  0.00  0.00    +0.213 C 
ATOM     25  O   UNL     1      -2.088   5.342   4.802  0.00  0.00    -0.276 OA
ATOM     26  H   UNL     1      -2.486   2.418   5.703  0.00  0.00    +0.149 HD
BRANCH  23  27
ATOM     27  C   UNL     1      -1.365   2.885   3.962  0.00  0.00    +0.102 C 
BRANCH  27  28
ATOM     28  C   UNL     1      -1.163   1.376   3.811  0.00  0.00    +0.000 C 
BRANCH  28  29
ATOM     29  C   UNL     1      -0.320   1.096   2.566  0.00  0.00    -0.077 C 
BRANCH  29  35
ATOM     30  C   UNL     1       0.584  -0.628   1.166  0.00  0.00    -0.069 C 
ATOM     31  C   UNL     1       0.716  -2.140   0.972  0.00  0.00    -0.015 C 
ATOM     32  C   UNL     1       1.502  -2.733   2.145  0.00  0.00    -0.003 C 
ATOM     33  C   UNL     1       0.792  -2.376   3.454  0.00  0.00    -0.019 C 
ATOM     34  C   UNL     1       0.657  -0.856   3.557  0.00  0.00    -0.078 C 
ATOM     35  N   UNL     1      -0.126  -0.353   2.421  0.00  0.00    +0.382 N 
ATOM     36  H   UNL     1      -1.025  -0.811   2.405  0.00  0.00    -0.081 HD
BRANCH  30  38
ATOM     37  C   UNL     1       0.583  -0.238  -1.302  0.00  0.00    +0.002 C 
ATOM     38  C   UNL     1      -0.201  -0.031  -0.004  0.00  0.00    -0.019 C 
ENDBRANCH  30  38
ENDBRANCH  29  35
ENDBRANCH  28  29
ENDBRANCH  27  28
ENDBRANCH  23  27
ENDBRANCH  22  24
ENDBRANCH  21  22
ENDBRANCH   1  21
TORSDOF 11
