REMARK  Name = ZINC35354713
REMARK  5 active torsions:
REMARK  status: ('A' for Active; 'I' for Inactive)
REMARK    1  A    between atoms: C_4  and  S_9
REMARK    2  A    between atoms: C_5  and  N_7
REMARK    3  A    between atoms: N_7  and  N_8
REMARK    4  A    between atoms: S_9  and  N_12
REMARK    5  A    between atoms: N_12  and  C_13
REMARK                            x       y       z     vdW  Elec       q    Type
REMARK                         _______ _______ _______ _____ _____    ______ ____
ROOT
ATOM      1  S   UNL     1       3.633  -0.883   0.018  0.00  0.00    +0.074 S 
ATOM      2  O   UNL     1       3.450  -1.883  -0.975  0.00  0.00    -0.150 OA
ATOM      3  O   UNL     1       4.555   0.187  -0.139  0.00  0.00    -0.150 OA
ENDROOT
BRANCH   1   7
ATOM      4  C   UNL     1      -0.427   1.000   0.726  0.00  0.00    +0.002 A 
ATOM      5  C   UNL     1       0.675   1.798   0.474  0.00  0.00    +0.002 A 
ATOM      6  C   UNL     1       1.913   1.223   0.259  0.00  0.00    +0.031 A 
ATOM      7  C   UNL     1       2.054  -0.151   0.294  0.00  0.00    +0.130 A 
ATOM      8  C   UNL     1       0.950  -0.955   0.547  0.00  0.00    +0.068 A 
ATOM      9  C   UNL     1      -0.293  -0.373   0.763  0.00  0.00    +0.026 A 
BRANCH   8  10
ATOM     10  N   UNL     1       1.089  -2.344   0.584  0.00  0.00    -0.281 N 
ATOM     11  H   UNL     1       1.969  -2.745   0.508  0.00  0.00    +0.166 HD
BRANCH  10  12
ATOM     12  N   UNL     1      -0.014  -3.137   0.725  0.00  0.00    -0.256 NA
ATOM     13  H   UNL     1      -0.653  -3.008  -0.044  0.00  0.00    +0.140 HD
ATOM     14  H   UNL     1       0.248  -4.107   0.819  0.00  0.00    +0.140 HD
ENDBRANCH  10  12
ENDBRANCH   8  10
ENDBRANCH   1   7
BRANCH   1  15
ATOM     15  N   UNL     1       4.057  -1.672   1.411  0.00  0.00    -0.213 N 
ATOM     16  H   UNL     1       4.110  -2.640   1.423  0.00  0.00    +0.174 HD
BRANCH  15  17
ATOM     17  C   UNL     1       4.340  -0.942   2.570  0.00  0.00    +0.085 A 
ATOM     18  C   UNL     1       3.690   0.262   2.810  0.00  0.00    +0.027 A 
ATOM     19  C   UNL     1       3.970   0.981   3.955  0.00  0.00    +0.003 A 
ATOM     20  C   UNL     1       4.897   0.505   4.864  0.00  0.00    +0.023 A 
ATOM     21  C   UNL     1       5.548  -0.693   4.630  0.00  0.00    +0.078 A 
ATOM     22  C   UNL     1       5.268  -1.422   3.487  0.00  0.00    +0.164 A 
ATOM     23  F   UNL     1       5.899  -2.595   3.261  0.00  0.00    -0.202 F 
ATOM     24 CL   UNL     1       6.711  -1.287   5.774  0.00  0.00    -0.081 Cl
ENDBRANCH  15  17
ENDBRANCH   1  15
TORSDOF 5
