REMARK  Name = ZINC13640153
REMARK  7 active torsions:
REMARK  status: ('A' for Active; 'I' for Inactive)
REMARK    1  A    between atoms: C_1  and  C_2
REMARK    2  A    between atoms: C_2  and  C_3
REMARK    3  A    between atoms: C_3  and  N_4
REMARK    4  A    between atoms: C_5  and  C_7
REMARK    5  A    between atoms: C_14  and  C_23
REMARK    6  A    between atoms: C_26  and  O_30
REMARK    7  A    between atoms: C_28  and  O_29
REMARK                            x       y       z     vdW  Elec       q    Type
REMARK                         _______ _______ _______ _____ _____    ______ ____
ROOT
ATOM      1  C   UNL     1       3.277  -4.662   1.679  0.00  0.00    +0.058 A 
ATOM      2  C   UNL     1       3.605  -6.013   1.563  0.00  0.00    +0.015 A 
ATOM      3  C   UNL     1       3.014  -6.774   0.579  0.00  0.00    +0.001 A 
ATOM      4  C   UNL     1       2.100  -6.205  -0.289  0.00  0.00    +0.006 A 
ATOM      5  C   UNL     1       1.760  -4.864  -0.188  0.00  0.00    -0.019 A 
ATOM      6  C   UNL     1       2.348  -4.084   0.793  0.00  0.00    +0.044 A 
ATOM      7  N   UNL     1       2.055  -2.737   0.944  0.00  0.00    -0.336 N 
ATOM      8  C   UNL     1       0.721  -2.401   0.446  0.00  0.00    +0.108 C 
ATOM      9  C   UNL     1       0.617  -2.787  -1.032  0.00  0.00    +0.029 C 
ATOM     10  C   UNL     1       0.753  -4.319  -1.159  0.00  0.00    +0.049 C 
ATOM     11  C   UNL     1      -0.630  -4.839  -0.838  0.00  0.00    -0.023 C 
ATOM     12  C   UNL     1      -1.524  -3.898  -1.003  0.00  0.00    -0.030 C 
ATOM     13  C   UNL     1      -0.866  -2.613  -1.466  0.00  0.00    +0.033 C 
ATOM     14  H   UNL     1       2.166  -2.449   1.904  0.00  0.00    +0.147 HD
ENDROOT
BRANCH   8  15
ATOM     15  C   UNL     1       0.487  -0.920   0.596  0.00  0.00    +0.015 A 
ATOM     16  C   UNL     1      -0.716  -0.457   1.094  0.00  0.00    +0.012 A 
ATOM     17  C   UNL     1      -0.933   0.900   1.233  0.00  0.00    +0.046 A 
ATOM     18  C   UNL     1       0.058   1.803   0.872  0.00  0.00    +0.120 A 
ATOM     19  C   UNL     1       1.266   1.342   0.372  0.00  0.00    +0.091 A 
ATOM     20  C   UNL     1       1.481  -0.021   0.234  0.00  0.00    +0.125 A 
BRANCH  20  21
ATOM     21  O   UNL     1       2.664  -0.476  -0.256  0.00  0.00    -0.506 OA
ATOM     22  H   UNL     1       3.357  -0.569   0.413  0.00  0.00    +0.292 HD
ENDBRANCH  20  21
BRANCH  18  23
ATOM     23  O   UNL     1      -0.156   3.138   1.010  0.00  0.00    -0.507 OA
ATOM     24  H   UNL     1      -0.545   3.556   0.229  0.00  0.00    +0.292 HD
ENDBRANCH  18  23
ENDBRANCH   8  15
BRANCH   1  26
ATOM     25  N   UNL     1       4.690  -4.417   3.660  0.00  0.00    -0.311 N 
ATOM     26  C   UNL     1       3.905  -3.838   2.729  0.00  0.00    +0.246 C 
ATOM     27  O   UNL     1       3.715  -2.638   2.755  0.00  0.00    -0.270 OA
ATOM     28  H   UNL     1       4.841  -5.375   3.639  0.00  0.00    +0.149 HD
BRANCH  25  29
ATOM     29  C   UNL     1       5.313  -3.599   4.703  0.00  0.00    +0.104 C 
BRANCH  29  31
ATOM     30  C   UNL     1       6.797  -3.639   6.713  0.00  0.00    +0.005 C 
ATOM     31  C   UNL     1       6.146  -4.494   5.623  0.00  0.00    +0.015 C 
ENDBRANCH  29  31
ENDBRANCH  25  29
ENDBRANCH   1  26
TORSDOF 6
