REMARK  Name = ZINC25260596
REMARK  9 active torsions:
REMARK  status: ('A' for Active; 'I' for Inactive)
REMARK    1  A    between atoms: C_3  and  C_9
REMARK    2  A    between atoms: C_6  and  C_7
REMARK    3  A    between atoms: C_12  and  O_15
REMARK    4  A    between atoms: O_15  and  C_16
REMARK    5  A    between atoms: C_16  and  C_17
REMARK    6  A    between atoms: N_19  and  N_20
REMARK    7  A    between atoms: C_21  and  C_23
REMARK    8  A    between atoms: C_26  and  S_29
REMARK    9  A    between atoms: S_29  and  N_32
REMARK                            x       y       z     vdW  Elec       q    Type
REMARK                         _______ _______ _______ _____ _____    ______ ____
ROOT
ATOM      1  C   UNL     1       3.524   1.907  -0.021  0.00  0.00    +0.267 C 
ATOM      2  O   UNL     1       3.508   3.119  -0.015  0.00  0.00    -0.271 OA
ATOM      3  N   UNL     1       2.366   1.217  -0.014  0.00  0.00    -0.231 N 
ATOM      4  H   UNL     1       2.381   0.117  -0.020  0.00  0.00    +0.173 HD
ENDROOT
BRANCH   3   5
ATOM      5  N   UNL     1       1.143   1.901   0.001  0.00  0.00    -0.230 N 
ATOM      6  C   UNL     1      -0.014   1.211   0.009  0.00  0.00    +0.260 C 
ATOM      7  O   UNL     1       0.002  -0.004   0.002  0.00  0.00    -0.269 OA
ATOM      8  H   UNL     1       1.129   3.001   0.007  0.00  0.00    +0.173 HD
BRANCH   6   9
ATOM      9  C   UNL     1      -1.305   1.933   0.019  0.00  0.00    +0.038 A 
ATOM     10  C   UNL     1      -1.327   3.329   0.032  0.00  0.00    +0.015 A 
ATOM     11  C   UNL     1      -2.534   3.996   0.035  0.00  0.00    +0.029 A 
ATOM     12  C   UNL     1      -3.721   3.285   0.037  0.00  0.00    +0.105 A 
ATOM     13  C   UNL     1      -3.706   1.901   0.030  0.00  0.00    +0.029 A 
ATOM     14  C   UNL     1      -2.506   1.222   0.021  0.00  0.00    +0.015 A 
BRANCH  12  15
ATOM     15  S   UNL     1      -5.259   4.145   0.049  0.00  0.00    +0.056 S 
ATOM     16  O   UNL     1      -5.008   5.433  -0.496  0.00  0.00    -0.153 OA
ATOM     17  O   UNL     1      -6.224   3.260  -0.502  0.00  0.00    -0.153 OA
BRANCH  15  18
ATOM     18  N   UNL     1      -5.679   4.376   1.635  0.00  0.00    -0.204 NA
ATOM     19  H   UNL     1      -6.638   4.912   1.686  0.00  0.00    +0.144 HD
ATOM     20  H   UNL     1      -4.900   4.968   2.138  0.00  0.00    +0.144 HD
ENDBRANCH  15  18
ENDBRANCH  12  15
ENDBRANCH   6   9
ENDBRANCH   3   5
BRANCH   1  21
ATOM     21  C   UNL     1       4.839   1.171  -0.038  0.00  0.00    +0.326 C 
BRANCH  21  22
ATOM     22  O   UNL     1       5.913   2.115  -0.043  0.00  0.00    -0.483 OA
BRANCH  22  26
ATOM     23  C   UNL     1       9.749   0.589  -0.086  0.00  0.00    -0.018 A 
ATOM     24  C   UNL     1       9.546   1.968  -0.078  0.00  0.00    +0.012 A 
ATOM     25  C   UNL     1       8.263   2.474  -0.064  0.00  0.00    +0.046 A 
ATOM     26  C   UNL     1       7.175   1.612  -0.058  0.00  0.00    +0.121 A 
ATOM     27  C   UNL     1       7.374   0.238  -0.061  0.00  0.00    +0.046 A 
ATOM     28  C   UNL     1       8.653  -0.275  -0.081  0.00  0.00    +0.012 A 
BRANCH  23  31
ATOM     29  C   UNL     1      12.605  -1.850  -0.124  0.00  0.00    +0.019 A 
ATOM     30  C   UNL     1      11.327  -1.340  -0.110  0.00  0.00    +0.010 A 
ATOM     31  C   UNL     1      11.126   0.041  -0.101  0.00  0.00    -0.018 A 
ATOM     32  C   UNL     1      12.220   0.906  -0.112  0.00  0.00    +0.010 A 
ATOM     33  C   UNL     1      13.500   0.399  -0.119  0.00  0.00    +0.019 A 
ATOM     34  C   UNL     1      13.702  -0.984  -0.129  0.00  0.00    +0.052 A 
BRANCH  34  35
ATOM     35  C   UNL     1      15.033  -1.514  -0.144  0.00  0.00    +0.099 C 
ATOM     36  N   UNL     1      16.088  -1.933  -0.156  0.00  0.00    -0.191 NA
ENDBRANCH  34  35
ENDBRANCH  23  31
ENDBRANCH  22  26
ENDBRANCH  21  22
ENDBRANCH   1  21
TORSDOF 9
