REMARK  Name = ZINC06441875
REMARK  11 active torsions:
REMARK  status: ('A' for Active; 'I' for Inactive)
REMARK    1  A    between atoms: C_1  and  C_2
REMARK    2  A    between atoms: C_7  and  C_15
REMARK    3  A    between atoms: C_13  and  C_14
REMARK    4  A    between atoms: C_15  and  C_17
REMARK    5  A    between atoms: C_15  and  N_68
REMARK    6  A    between atoms: N_21  and  C_22
REMARK    7  A    between atoms: C_22  and  C_23
REMARK    8  A    between atoms: C_23  and  O_24
REMARK    9  A    between atoms: O_24  and  C_25
REMARK   10  A    between atoms: N_28  and  C_31
REMARK   11  A    between atoms: C_34  and  N_37
REMARK                            x       y       z     vdW  Elec       q    Type
REMARK                         _______ _______ _______ _____ _____    ______ ____
ROOT
ATOM      1  C   UNL     1      -2.518   4.282   0.048  0.00  0.00    +0.039 C 
ENDROOT
BRANCH   1   8
ATOM      2  C   UNL     1       3.279  -1.162  -0.558  0.00  0.00    +0.044 C 
ATOM      3  C   UNL     1       2.037  -0.315  -0.450  0.00  0.00    -0.046 A 
ATOM      4  C   UNL     1       0.789  -0.924  -0.441  0.00  0.00    +0.004 A 
ATOM      5  C   UNL     1      -0.349  -0.175  -0.343  0.00  0.00    +0.010 A 
ATOM      6  C   UNL     1      -0.256   1.218  -0.252  0.00  0.00    -0.001 A 
ATOM      7  C   UNL     1      -1.455   2.051  -0.140  0.00  0.00    +0.017 A 
ATOM      8  C   UNL     1      -1.305   3.396  -0.062  0.00  0.00    +0.011 A 
ATOM      9  C   UNL     1      -0.015   3.969  -0.076  0.00  0.00    +0.251 A 
ATOM     10  O   UNL     1       0.099   5.180   0.002  0.00  0.00    -0.268 OA
ATOM     11  N   UNL     1       1.092   3.212  -0.173  0.00  0.00    -0.322 N 
ATOM     12  H   UNL     1       1.964   3.638  -0.180  0.00  0.00    +0.169 HD
ATOM     13  C   UNL     1       1.007   1.839  -0.262  0.00  0.00    +0.052 A 
ATOM     14  C   UNL     1       2.152   1.055  -0.361  0.00  0.00    -0.024 A 
ATOM     15  C   UNL     1       3.513   1.702  -0.372  0.00  0.00    +0.046 C 
ENDBRANCH   1   8
BRANCH   1  21
ATOM     16  C   UNL     1      -3.613   6.228  -0.891  0.00  0.00    -0.058 C 
ATOM     17  C   UNL     1      -3.491   7.319  -1.957  0.00  0.00    +0.086 C 
ATOM     18  N   UNL     1      -3.455   6.698  -3.288  0.00  0.00    -0.333 N 
ATOM     19  C   UNL     1      -2.319   5.773  -3.405  0.00  0.00    +0.086 C 
ATOM     20  C   UNL     1      -2.442   4.682  -2.339  0.00  0.00    -0.058 C 
ATOM     21  N   UNL     1      -2.454   5.318  -1.005  0.00  0.00    +0.391 N 
ATOM     22  H   UNL     1      -1.590   5.861  -0.886  0.00  0.00    -0.080 HD
BRANCH  18  23
ATOM     23  C   UNL     1      -3.416   7.668  -4.293  0.00  0.00    +0.030 A 
ATOM     24  C   UNL     1      -2.385   7.665  -5.223  0.00  0.00    +0.025 A 
ATOM     25  C   UNL     1      -2.352   8.623  -6.218  0.00  0.00    +0.034 A 
ATOM     26  C   UNL     1      -3.338   9.590  -6.282  0.00  0.00    +0.126 A 
ATOM     27  C   UNL     1      -4.363   9.599  -5.353  0.00  0.00    +0.034 A 
ATOM     28  C   UNL     1      -4.405   8.641  -4.359  0.00  0.00    +0.025 A 
BRANCH  26  29
ATOM     29  N   UNL     1      -3.297  10.618  -7.346  0.00  0.00    +0.056 N 
ATOM     30  O   UNL     1      -4.165  11.470  -7.403  0.00  0.00    -0.126 OA
ATOM     31  O   UNL     1      -2.395  10.611  -8.164  0.00  0.00    -0.126 OA
ENDBRANCH  26  29
ENDBRANCH  18  23
ENDBRANCH   1  21
BRANCH   1  32
ATOM     32  C   UNL     1      -2.529   4.955   1.397  0.00  0.00    +0.143 A 
ATOM     33  N   UNL     1      -1.766   5.949   1.781  0.00  0.00    -0.115 NA
ATOM     34  N   UNL     1      -2.077   6.243   2.996  0.00  0.00    -0.023 NA
ATOM     35  N   UNL     1      -3.012   5.456   3.400  0.00  0.00    -0.044 NA
ATOM     36  N   UNL     1      -3.318   4.647   2.442  0.00  0.00    -0.228 N 
BRANCH  36  37
ATOM     37  C   UNL     1      -4.333   3.592   2.485  0.00  0.00    +0.175 C 
BRANCH  37  38
ATOM     38  C   UNL     1      -3.696   2.290   2.974  0.00  0.00    +0.183 C 
BRANCH  38  39
ATOM     39  O   UNL     1      -4.686   1.261   3.015  0.00  0.00    -0.381 OA
ATOM     40  C   UNL     1      -4.192  -0.004   3.461  0.00  0.00    +0.194 C 
ENDBRANCH  38  39
ENDBRANCH  37  38
ENDBRANCH  36  37
ENDBRANCH   1  32
TORSDOF 8
