REMARK  Name = ZINC39675487
REMARK  9 active torsions:
REMARK  status: ('A' for Active; 'I' for Inactive)
REMARK    1  A    between atoms: C_1  and  C_2
REMARK    2  A    between atoms: C_2  and  C_4
REMARK    3  A    between atoms: C_2  and  N_14
REMARK    4  A    between atoms: C_4  and  C_5
REMARK    5  A    between atoms: C_5  and  C_6
REMARK    6  A    between atoms: C_9  and  O_12
REMARK    7  A    between atoms: O_12  and  C_13
REMARK    8  A    between atoms: C_15  and  C_17
REMARK    9  A    between atoms: C_28  and  C_30
REMARK                            x       y       z     vdW  Elec       q    Type
REMARK                         _______ _______ _______ _____ _____    ______ ____
ROOT
ATOM      1  C   UNL     1      -3.443  -1.176   1.199  0.00  0.00    +0.100 C 
ATOM      2  C   UNL     1      -4.400  -0.154   0.547  0.00  0.00    +0.121 C 
ATOM      3  N   UNL     1      -5.639  -0.232   1.355  0.00  0.00    -0.295 N 
ATOM      4  C   UNL     1      -5.160  -0.377   2.751  0.00  0.00    +0.115 C 
ATOM      5  C   UNL     1      -3.945  -1.319   2.646  0.00  0.00    -0.004 C 
ATOM      6  C   UNL     1      -2.858  -0.889   3.627  0.00  0.00    -0.010 C 
ATOM      7  C   UNL     1      -3.360  -1.095   5.059  0.00  0.00    -0.082 C 
ATOM      8  N   UNL     1      -3.698  -2.509   5.262  0.00  0.00    +0.379 N 
ATOM      9  C   UNL     1      -4.808  -2.890   4.379  0.00  0.00    -0.082 C 
ATOM     10  C   UNL     1      -4.368  -2.760   2.918  0.00  0.00    -0.010 C 
ATOM     11  C   UNL     1      -6.914  -0.183   0.920  0.00  0.00    +0.265 C 
ATOM     12  O   UNL     1      -7.829  -0.179   1.720  0.00  0.00    -0.268 OA
ATOM     13  H   UNL     1      -2.893  -3.080   5.053  0.00  0.00    -0.086 HD
ATOM     14  H   UNL     1      -3.970  -2.654   6.223  0.00  0.00    -0.086 HD
ENDROOT
BRANCH  11  15
ATOM     15  C   UNL     1      -7.200  -0.132  -0.534  0.00  0.00    +0.126 A 
ATOM     16  C   UNL     1      -8.524   0.034  -0.967  0.00  0.00    +0.033 A 
ATOM     17  C   UNL     1      -8.800   0.083  -2.303  0.00  0.00    +0.012 A 
ATOM     18  C   UNL     1      -7.730  -0.038  -3.209  0.00  0.00    +0.000 A 
ATOM     19  C   UNL     1      -7.941   0.003  -4.596  0.00  0.00    +0.010 A 
ATOM     20  C   UNL     1      -6.882  -0.117  -5.443  0.00  0.00    +0.001 A 
ATOM     21  C   UNL     1      -5.588  -0.280  -4.952  0.00  0.00    +0.002 A 
ATOM     22  C   UNL     1      -5.344  -0.325  -3.615  0.00  0.00    +0.028 A 
ATOM     23  C   UNL     1      -6.413  -0.205  -2.706  0.00  0.00    +0.072 A 
ATOM     24  N   UNL     1      -6.203  -0.240  -1.390  0.00  0.00    -0.242 NA
ENDBRANCH  11  15
BRANCH   1  26
ATOM     25  N   UNL     1      -0.994  -1.512   1.294  0.00  0.00    -0.312 N 
ATOM     26  C   UNL     1      -2.029  -0.655   1.184  0.00  0.00    +0.218 C 
ATOM     27  O   UNL     1      -1.822   0.535   1.072  0.00  0.00    -0.275 OA
ATOM     28  H   UNL     1      -1.159  -2.463   1.383  0.00  0.00    +0.149 HD
BRANCH  25  30
ATOM     29  C   UNL     1       0.852  -0.852  -0.169  0.00  0.00    +0.028 C 
ATOM     30  C   UNL     1       0.381  -1.005   1.278  0.00  0.00    +0.070 C 
BRANCH  30  31
ATOM     31  C   UNL     1       1.295  -1.989   2.011  0.00  0.00    +0.026 C 
BRANCH  31  32
ATOM     32  C   UNL     1       0.902  -2.048   3.488  0.00  0.00    +0.037 C 
BRANCH  32  33
ATOM     33  C   UNL     1       1.802  -3.017   4.210  0.00  0.00    -0.047 A 
ATOM     34  C   UNL     1       1.451  -4.352   4.296  0.00  0.00    +0.007 A 
ATOM     35  C   UNL     1       2.275  -5.242   4.957  0.00  0.00    +0.046 A 
ATOM     36  C   UNL     1       3.455  -4.797   5.535  0.00  0.00    +0.120 A 
ATOM     37  C   UNL     1       3.805  -3.457   5.446  0.00  0.00    +0.046 A 
ATOM     38  C   UNL     1       2.980  -2.572   4.779  0.00  0.00    +0.007 A 
BRANCH  36  39
ATOM     39  O   UNL     1       4.266  -5.671   6.186  0.00  0.00    -0.495 OA
ATOM     40  C   UNL     1       5.465  -5.141   6.756  0.00  0.00    +0.277 C 
ENDBRANCH  36  39
ENDBRANCH  32  33
ENDBRANCH  31  32
ENDBRANCH  30  31
ENDBRANCH  25  30
ENDBRANCH   1  26
TORSDOF 7
