REMARK  Name = ZINC05347828
REMARK  8 active torsions:
REMARK  status: ('A' for Active; 'I' for Inactive)
REMARK    1  A    between atoms: C_1  and  C_2
REMARK    2  A    between atoms: C_2  and  C_3
REMARK    3  A    between atoms: C_3  and  C_5
REMARK    4  A    between atoms: C_3  and  N_6
REMARK    5  A    between atoms: C_11  and  C_28
REMARK    6  A    between atoms: C_28  and  C_29
REMARK    7  A    between atoms: C_29  and  C_30
REMARK    8  A    between atoms: C_29  and  C_31
REMARK                            x       y       z     vdW  Elec       q    Type
REMARK                         _______ _______ _______ _____ _____    ______ ____
ROOT
ATOM      1  N   UNL     1       1.446   5.996   1.128  0.00  0.00    -0.239 N 
ATOM      2  C   UNL     1       2.744   6.305   1.027  0.00  0.00    +0.224 C 
ATOM      3  O   UNL     1       3.220   7.404   1.217  0.00  0.00    -0.275 OA
ATOM      4  C   UNL     1       3.538   5.057   0.642  0.00  0.00    +0.073 C 
ATOM      5  C   UNL     1       4.096   5.223  -0.787  0.00  0.00    -0.057 C 
ATOM      6  C   UNL     1       2.414   3.611  -0.975  0.00  0.00    +0.050 C 
ATOM      7  C   UNL     1       2.429   3.976   0.515  0.00  0.00    +0.088 C 
ATOM      8  C   UNL     1       1.158   4.716   0.867  0.00  0.00    +0.225 C 
ATOM      9  O   UNL     1       0.050   4.226   0.906  0.00  0.00    -0.275 OA
ATOM     10  C   UNL     1       1.020   3.320  -1.453  0.00  0.00    -0.025 A 
ATOM     11  C   UNL     1      -0.143   4.056  -1.486  0.00  0.00    +0.043 A 
ATOM     12  C   UNL     1      -1.302   3.498  -1.999  0.00  0.00    +0.124 A 
ATOM     13  C   UNL     1      -1.284   2.201  -2.484  0.00  0.00    +0.040 A 
ATOM     14  C   UNL     1      -0.122   1.460  -2.448  0.00  0.00    +0.026 A 
ATOM     15  C   UNL     1       1.048   2.014  -1.933  0.00  0.00    +0.036 A 
ATOM     16  N   UNL     1       2.330   1.476  -1.796  0.00  0.00    -0.286 N 
ATOM     17  C   UNL     1       3.191   2.352  -1.241  0.00  0.00    +0.211 C 
ATOM     18  O   UNL     1       4.365   2.160  -1.002  0.00  0.00    -0.277 OA
ATOM     19  F   UNL     1      -2.445   4.218  -2.031  0.00  0.00    -0.205 F 
ATOM     20  H   UNL     1       2.573   0.578  -2.069  0.00  0.00    +0.155 HD
ATOM     21  N   UNL     1       3.009   4.752  -1.648  0.00  0.00    +0.394 N 
ATOM     22  H   UNL     1       3.379   4.471  -2.564  0.00  0.00    -0.083 HD
ATOM     23  H   UNL     1       2.310   5.494  -1.775  0.00  0.00    -0.083 HD
ENDROOT
BRANCH   1  24
ATOM     24  C   UNL     1       0.424   6.980   1.494  0.00  0.00    +0.081 C 
ATOM     25  C   UNL     1       0.738   7.549   2.880  0.00  0.00    +0.028 C 
BRANCH  24  27
ATOM     26  C   UNL     1      -0.019   7.565  -0.894  0.00  0.00    +0.006 C 
ATOM     27  C   UNL     1       0.416   8.113   0.467  0.00  0.00    +0.019 C 
ENDBRANCH  24  27
ENDBRANCH   1  24
BRANCH   5  28
ATOM     28  C   UNL     1       5.337   4.350  -0.978  0.00  0.00    -0.012 C 
BRANCH  28  29
ATOM     29  C   UNL     1       5.512   4.031  -2.465  0.00  0.00    -0.019 C 
ATOM     30  C   UNL     1       5.803   5.322  -3.232  0.00  0.00    +0.007 C 
ATOM     31  C   UNL     1       6.678   3.057  -2.643  0.00  0.00    +0.007 C 
ENDBRANCH  28  29
ENDBRANCH   5  28
TORSDOF 4
