REMARK  Name = ZINC15943938
REMARK  17 active torsions:
REMARK  status: ('A' for Active; 'I' for Inactive)
REMARK    1  A    between atoms: C_1  and  C_2
REMARK    2  A    between atoms: C_3  and  S_9
REMARK    3  A    between atoms: C_4  and  C_8
REMARK    4  A    between atoms: N_5  and  C_7
REMARK    5  A    between atoms: S_9  and  N_12
REMARK    6  A    between atoms: N_12  and  C_13
REMARK    7  A    between atoms: N_12  and  C_30
REMARK    8  A    between atoms: C_13  and  C_14
REMARK    9  A    between atoms: N_16  and  C_17
REMARK   10  A    between atoms: C_17  and  C_18
REMARK   11  A    between atoms: C_18  and  C_19
REMARK   12  A    between atoms: C_19  and  N_20
REMARK   13  A    between atoms: C_22  and  C_29
REMARK   14  A    between atoms: C_25  and  C_28
REMARK   15  A    between atoms: C_33  and  C_36
REMARK   16  A    between atoms: C_36  and  C_37
REMARK   17  A    between atoms: C_36  and  C_38
REMARK                            x       y       z     vdW  Elec       q    Type
REMARK                         _______ _______ _______ _____ _____    ______ ____
ROOT
ATOM      1  N   UNL     1       1.569  -0.086  -3.280  0.00  0.00    -0.194 N 
ENDROOT
BRANCH   1   2
ATOM      2  C   UNL     1       2.188   1.163  -3.196  0.00  0.00    +0.052 A 
ATOM      3  C   UNL     1       3.429   1.284  -2.585  0.00  0.00    +0.025 A 
ATOM      4  C   UNL     1       4.039   2.521  -2.503  0.00  0.00    +0.006 A 
ATOM      5  C   UNL     1       3.414   3.638  -3.027  0.00  0.00    -0.045 A 
ATOM      6  C   UNL     1       2.178   3.520  -3.636  0.00  0.00    +0.006 A 
ATOM      7  C   UNL     1       1.566   2.286  -3.727  0.00  0.00    +0.025 A 
BRANCH   5   8
ATOM      8  C   UNL     1       4.082   4.986  -2.935  0.00  0.00    +0.013 C 
ATOM      9  C   UNL     1       4.309   5.540  -4.343  0.00  0.00    +0.012 C 
ATOM     10  C   UNL     1       3.188   5.945  -2.147  0.00  0.00    +0.012 C 
ENDBRANCH   5   8
ENDBRANCH   1   2
BRANCH   1  11
ATOM     11  S   UNL     1       0.084  -0.323  -2.587  0.00  0.00    +0.079 S 
ATOM     12  O   UNL     1      -0.568  -1.326  -3.356  0.00  0.00    -0.150 OA
ATOM     13  O   UNL     1      -0.479   0.965  -2.383  0.00  0.00    -0.150 OA
BRANCH  11  16
ATOM     14  C   UNL     1       0.505   1.207   0.335  0.00  0.00    +0.069 C 
ATOM     15  C   UNL     1       0.526  -0.294   0.199  0.00  0.00    +0.087 A 
ATOM     16  C   UNL     1       0.358  -1.012  -0.989  0.00  0.00    +0.152 A 
ATOM     17  C   UNL     1       0.443  -2.330  -0.695  0.00  0.00    +0.063 A 
ATOM     18  N   UNL     1       0.657  -2.442   0.633  0.00  0.00    -0.269 N 
ATOM     19  N   UNL     1       0.711  -1.150   1.171  0.00  0.00    -0.174 NA
ATOM     20  C   UNL     1       0.812  -3.693   1.379  0.00  0.00    +0.172 C 
ATOM     21  C   UNL     1       0.320  -3.470  -1.674  0.00  0.00    +0.067 C 
ENDBRANCH  11  16
ENDBRANCH   1  11
BRANCH   1  22
ATOM     22  C   UNL     1       2.233  -1.187  -3.983  0.00  0.00    +0.227 C 
BRANCH  22  23
ATOM     23  C   UNL     1       1.931  -1.098  -5.457  0.00  0.00    +0.232 C 
ATOM     24  O   UNL     1       1.230  -0.203  -5.879  0.00  0.00    -0.274 OA
ATOM     25  N   UNL     1       2.440  -2.012  -6.305  0.00  0.00    -0.314 N 
ATOM     26  H   UNL     1       3.002  -2.728  -5.968  0.00  0.00    +0.149 HD
BRANCH  25  27
ATOM     27  C   UNL     1       2.147  -1.925  -7.738  0.00  0.00    +0.102 C 
BRANCH  27  28
ATOM     28  C   UNL     1       2.841  -3.075  -8.471  0.00  0.00    +0.000 C 
BRANCH  28  29
ATOM     29  C   UNL     1       2.534  -2.984  -9.968  0.00  0.00    -0.077 C 
BRANCH  29  30
ATOM     30  N   UNL     1       3.200  -4.088 -10.672  0.00  0.00    +0.380 N 
ATOM     31  C   UNL     1       4.655  -3.933 -10.555  0.00  0.00    -0.076 C 
ATOM     32  C   UNL     1       5.354  -5.123 -11.217  0.00  0.00    -0.031 C 
ATOM     33  C   UNL     1       4.962  -5.179 -12.697  0.00  0.00    +0.003 C 
ATOM     34  C   UNL     1       3.437  -5.266 -12.808  0.00  0.00    -0.031 C 
ATOM     35  C   UNL     1       2.809  -4.071 -12.086  0.00  0.00    -0.076 C 
ATOM     36  C   UNL     1       3.030  -5.245 -14.282  0.00  0.00    +0.005 C 
ATOM     37  C   UNL     1       6.870  -4.958 -11.095  0.00  0.00    +0.005 C 
ATOM     38  H   UNL     1       2.923  -4.965 -10.258  0.00  0.00    -0.082 HD
ENDBRANCH  29  30
ENDBRANCH  28  29
ENDBRANCH  27  28
ENDBRANCH  25  27
ENDBRANCH  22  23
ENDBRANCH   1  22
TORSDOF 10
