REMARK  Name = ZINC33330220
REMARK  7 active torsions:
REMARK  status: ('A' for Active; 'I' for Inactive)
REMARK    1  A    between atoms: C_1  and  C_2
REMARK    2  A    between atoms: C_2  and  C_3
REMARK    3  A    between atoms: C_3  and  N_4
REMARK    4  A    between atoms: C_8  and  C_9
REMARK    5  A    between atoms: C_10  and  N_20
REMARK    6  A    between atoms: N_20  and  C_21
REMARK    7  A    between atoms: C_21  and  C_22
REMARK                            x       y       z     vdW  Elec       q    Type
REMARK                         _______ _______ _______ _____ _____    ______ ____
ROOT
ATOM      1  C   UNL     1      -2.672   0.050  -0.040  0.00  0.00    +0.081 A 
ATOM      2  C   UNL     1      -3.955  -0.542  -0.119  0.00  0.00    +0.134 A 
ATOM      3  N   UNL     1      -4.063  -1.862  -0.176  0.00  0.00    -0.214 NA
ATOM      4  C   UNL     1      -2.990  -2.653  -0.160  0.00  0.00    +0.142 A 
ATOM      5  C   UNL     1      -3.166  -4.047  -0.223  0.00  0.00    +0.047 A 
ATOM      6  C   UNL     1      -2.075  -4.864  -0.207  0.00  0.00    +0.005 A 
ATOM      7  C   UNL     1      -0.792  -4.303  -0.129  0.00  0.00    +0.018 A 
ATOM      8  C   UNL     1      -0.641  -2.961  -0.069  0.00  0.00    +0.096 A 
ATOM      9  N   UNL     1      -1.726  -2.135  -0.085  0.00  0.00    -0.268 N 
ATOM     10  C   UNL     1      -1.540  -0.799  -0.029  0.00  0.00    +0.267 A 
ATOM     11  O   UNL     1      -0.416  -0.332   0.033  0.00  0.00    -0.267 OA
ENDROOT
BRANCH   1  16
ATOM     12  N   UNL     1      -1.228   2.240   3.357  0.00  0.00    -0.255 N 
ATOM     13  C   UNL     1      -1.701   1.453   2.406  0.00  0.00    +0.258 C 
ATOM     14  O   UNL     1      -1.847   0.259   2.596  0.00  0.00    -0.269 OA
ATOM     15  C   UNL     1      -2.031   2.041   1.152  0.00  0.00    +0.077 C 
ATOM     16  C   UNL     1      -2.526   1.455   0.022  0.00  0.00    +0.037 C 
ATOM     17  S   UNL     1      -1.625   3.754   1.460  0.00  0.00    -0.061 S 
ATOM     18  C   UNL     1      -1.067   3.566   3.146  0.00  0.00    +0.121 C 
ATOM     19  S   UNL     1      -0.478   4.760   4.222  0.00  0.00    -0.027 S 
BRANCH  12  20
ATOM     20  C   UNL     1      -0.873   1.667   4.658  0.00  0.00    +0.115 C 
BRANCH  20  22
ATOM     21  C   UNL     1       0.963   0.631   5.998  0.00  0.00    +0.005 C 
ATOM     22  C   UNL     1       0.593   1.230   4.640  0.00  0.00    +0.016 C 
ENDBRANCH  20  22
ENDBRANCH  12  20
ENDBRANCH   1  16
BRANCH   2  23
ATOM     23  N   UNL     1      -5.084   0.247  -0.138  0.00  0.00    -0.321 N 
ATOM     24  H   UNL     1      -4.990   1.343  -0.091  0.00  0.00    +0.148 HD
BRANCH  23  25
ATOM     25  C   UNL     1      -6.409  -0.371  -0.221  0.00  0.00    +0.177 C 
BRANCH  25  26
ATOM     26  C   UNL     1      -7.466   0.704  -0.226  0.00  0.00    +0.122 A 
ATOM     27  C   UNL     1      -7.965   1.311  -1.317  0.00  0.00    +0.046 A 
ATOM     28  C   UNL     1      -8.926   2.243  -0.863  0.00  0.00    +0.041 A 
ATOM     29  C   UNL     1      -8.951   2.156   0.479  0.00  0.00    +0.195 A 
ATOM     30  O   UNL     1      -8.064   1.222   0.860  0.00  0.00    -0.466 OA
ENDBRANCH  25  26
ENDBRANCH  23  25
ENDBRANCH   2  23
TORSDOF 6
