REMARK  Name = ZINC30883244
REMARK  14 active torsions:
REMARK  status: ('A' for Active; 'I' for Inactive)
REMARK    1  A    between atoms: C_1  and  C_2
REMARK    2  A    between atoms: C_4  and  C_28
REMARK    3  A    between atoms: C_6  and  C_25
REMARK    4  A    between atoms: C_9  and  C_11
REMARK    5  A    between atoms: C_11  and  C_12
REMARK    6  A    between atoms: C_15  and  C_17
REMARK    7  A    between atoms: C_20  and  O_23
REMARK    8  A    between atoms: O_23  and  C_24
REMARK    9  A    between atoms: C_25  and  C_26
REMARK   10  A    between atoms: C_25  and  C_27
REMARK   11  A    between atoms: C_28  and  N_29
REMARK   12  A    between atoms: C_33  and  C_35
REMARK   13  A    between atoms: C_35  and  O_36
REMARK   14  A    between atoms: O_36  and  C_37
REMARK                            x       y       z     vdW  Elec       q    Type
REMARK                         _______ _______ _______ _____ _____    ______ ____
ROOT
ATOM      1  C   UNL     1      -1.955   3.110   7.722  0.00  0.00    +0.039 C 
ATOM      2  C   UNL     1      -0.598   3.472   7.177  0.00  0.00    -0.073 C 
ATOM      3  C   UNL     1      -0.419   3.400   5.897  0.00  0.00    -0.026 C 
ATOM      4  C   UNL     1       0.876   3.718   5.209  0.00  0.00    -0.002 C 
ATOM      5  C   UNL     1       1.784   4.522   6.142  0.00  0.00    -0.003 C 
ATOM      6  C   UNL     1       1.844   3.806   7.498  0.00  0.00    +0.012 C 
ATOM      7  C   UNL     1       0.463   3.893   8.151  0.00  0.00    +0.024 C 
ENDROOT
BRANCH   5   8
ATOM      8  C   UNL     1       3.190   4.608   5.544  0.00  0.00    -0.014 C 
ATOM      9  C   UNL     1       4.057   5.525   6.409  0.00  0.00    +0.007 C 
ATOM     10  C   UNL     1       3.812   3.211   5.500  0.00  0.00    +0.007 C 
ENDBRANCH   5   8
BRANCH   7  11
ATOM     11  C   UNL     1       0.203   5.335   8.592  0.00  0.00    +0.105 C 
BRANCH  11  12
ATOM     12  C   UNL     1       1.200   5.724   9.653  0.00  0.00    +0.218 A 
ATOM     13  N   UNL     1       2.327   6.348   9.458  0.00  0.00    -0.112 NA
ATOM     14  N   UNL     1       2.925   6.519  10.585  0.00  0.00    -0.107 NA
ATOM     15  C   UNL     1       2.197   5.997  11.544  0.00  0.00    +0.248 A 
ATOM     16  O   UNL     1       1.090   5.483  10.971  0.00  0.00    -0.420 OA
BRANCH  15  17
ATOM     17  C   UNL     1       2.528   5.977  12.984  0.00  0.00    +0.039 A 
ATOM     18  C   UNL     1       1.651   5.388  13.897  0.00  0.00    +0.017 A 
ATOM     19  C   UNL     1       1.966   5.367  15.238  0.00  0.00    +0.046 A 
ATOM     20  C   UNL     1       3.150   5.939  15.684  0.00  0.00    +0.120 A 
ATOM     21  C   UNL     1       4.023   6.531  14.780  0.00  0.00    +0.046 A 
ATOM     22  C   UNL     1       3.718   6.552  13.437  0.00  0.00    +0.017 A 
BRANCH  20  23
ATOM     23  O   UNL     1       3.455   5.921  17.008  0.00  0.00    -0.495 OA
ATOM     24  C   UNL     1       2.512   5.297  17.882  0.00  0.00    +0.277 C 
ENDBRANCH  20  23
ENDBRANCH  15  17
ENDBRANCH  11  12
ENDBRANCH   7  11
BRANCH   4  25
ATOM     25  C   UNL     1       0.594   4.535   3.947  0.00  0.00    -0.071 C 
BRANCH  25  26
ATOM     26  N   UNL     1       1.833   4.685   3.173  0.00  0.00    +0.383 N 
ATOM     27  C   UNL     1       2.404   3.369   2.831  0.00  0.00    -0.078 C 
ATOM     28  C   UNL     1       2.539   3.314   1.295  0.00  0.00    -0.020 C 
ATOM     29  C   UNL     1       2.568   4.812   0.893  0.00  0.00    -0.015 C 
ATOM     30  C   UNL     1       1.588   5.431   1.920  0.00  0.00    -0.042 C 
ATOM     31  H   UNL     1       2.539   5.241   3.807  0.00  0.00    -0.081 HD
BRANCH  30  32
ATOM     32  C   UNL     1       1.892   6.917   2.118  0.00  0.00    +0.144 C 
BRANCH  32  33
ATOM     33  O   UNL     1       3.286   7.088   2.381  0.00  0.00    -0.385 OA
ATOM     34  C   UNL     1       3.678   8.447   2.582  0.00  0.00    +0.193 C 
ENDBRANCH  32  33
ENDBRANCH  30  32
ENDBRANCH  25  26
ENDBRANCH   4  25
TORSDOF 9
