REMARK  Name = ZINC59044918
REMARK  8 active torsions:
REMARK  status: ('A' for Active; 'I' for Inactive)
REMARK    1  A    between atoms: C_5  and  C_7
REMARK    2  A    between atoms: C_7  and  C_8
REMARK    3  A    between atoms: C_8  and  N_9
REMARK    4  A    between atoms: C_10  and  C_12
REMARK    5  A    between atoms: C_12  and  S_13
REMARK    6  A    between atoms: S_13  and  C_14
REMARK    7  A    between atoms: C_17  and  C_20
REMARK    8  A    between atoms: N_18  and  N_19
REMARK                            x       y       z     vdW  Elec       q    Type
REMARK                         _______ _______ _______ _____ _____    ______ ____
ROOT
ATOM      1  S   UNL     1       1.919  -6.968   4.213  0.00  0.00    -0.075 S 
ENDROOT
BRANCH   1   2
ATOM      2  C   UNL     1       1.801  -8.720   4.058  0.00  0.00    +0.209 A 
ATOM      3  N   UNL     1       1.539  -9.389   2.958  0.00  0.00    -0.121 NA
ATOM      4  N   UNL     1       1.528 -10.651   3.201  0.00  0.00    -0.127 NA
ATOM      5  C   UNL     1       1.782 -10.864   4.471  0.00  0.00    +0.183 A 
ATOM      6  N   UNL     1       1.971  -9.634   5.058  0.00  0.00    -0.224 N 
BRANCH   5   7
ATOM      7  C   UNL     1       1.858 -12.179   5.143  0.00  0.00    +0.035 A 
ATOM      8  C   UNL     1       1.187 -12.390   6.349  0.00  0.00    +0.013 A 
ATOM      9  C   UNL     1       1.261 -13.619   6.971  0.00  0.00    +0.001 A 
ATOM     10  C   UNL     1       1.998 -14.643   6.402  0.00  0.00    +0.001 A 
ATOM     11  C   UNL     1       2.666 -14.441   5.207  0.00  0.00    +0.016 A 
ATOM     12  C   UNL     1       2.596 -13.218   4.571  0.00  0.00    +0.029 A 
ATOM     13 BR   UNL     1       3.502 -12.947   2.934  0.00  0.00    -0.050 Br
ENDBRANCH   5   7
BRANCH   6  14
ATOM     14  N   UNL     1       2.264  -9.381   6.368  0.00  0.00    -0.295 N 
ATOM     15  H   UNL     1       1.425  -9.353   6.927  0.00  0.00    +0.163 HD
ATOM     16  H   UNL     1       2.918 -10.059   6.730  0.00  0.00    +0.163 HD
ENDBRANCH   6  14
ENDBRANCH   1   2
BRANCH   1  17
ATOM     17  C   UNL     1       1.590  -6.356   2.537  0.00  0.00    +0.173 C 
BRANCH  17  19
ATOM     18  N   UNL     1       1.448  -4.173   1.384  0.00  0.00    -0.314 N 
ATOM     19  C   UNL     1       1.661  -4.851   2.529  0.00  0.00    +0.223 C 
ATOM     20  O   UNL     1       1.909  -4.250   3.553  0.00  0.00    -0.275 OA
ATOM     21  H   UNL     1       1.249  -4.653   0.565  0.00  0.00    +0.149 HD
BRANCH  18  22
ATOM     22  C   UNL     1       1.517  -2.709   1.376  0.00  0.00    +0.109 C 
BRANCH  22  23
ATOM     23  C   UNL     1       1.239  -2.193  -0.037  0.00  0.00    +0.055 C 
BRANCH  23  28
ATOM     24  C   UNL     1       0.221   1.440   0.089  0.00  0.00    +0.000 A 
ATOM     25  C   UNL     1       1.441   2.074  -0.061  0.00  0.00    +0.001 A 
ATOM     26  C   UNL     1       2.595   1.328  -0.205  0.00  0.00    +0.020 A 
ATOM     27  C   UNL     1       2.530  -0.054  -0.197  0.00  0.00    +0.044 A 
ATOM     28  C   UNL     1       1.310  -0.688  -0.045  0.00  0.00    -0.028 A 
ATOM     29  C   UNL     1       0.156   0.059   0.097  0.00  0.00    +0.005 A 
ATOM     30 CL   UNL     1       3.980  -0.992  -0.378  0.00  0.00    -0.083 Cl
ENDBRANCH  23  28
ENDBRANCH  22  23
ENDBRANCH  18  22
ENDBRANCH  17  19
ENDBRANCH   1  17
TORSDOF 8
