REMARK  Name = ZINC53627421
REMARK  7 active torsions:
REMARK  status: ('A' for Active; 'I' for Inactive)
REMARK    1  A    between atoms: C_1  and  C_2
REMARK    2  A    between atoms: C_13  and  C_15
REMARK    3  A    between atoms: C_15  and  C_16
REMARK    4  A    between atoms: N_18  and  C_19
REMARK    5  A    between atoms: C_19  and  C_20
REMARK    6  A    between atoms: C_20  and  C_21
REMARK    7  A    between atoms: C_28  and  C_29
REMARK                            x       y       z     vdW  Elec       q    Type
REMARK                         _______ _______ _______ _____ _____    ______ ____
ROOT
ATOM      1  C   UNL     1      -0.019   1.526   0.010  0.00  0.00    +0.013 C 
ATOM      2  C   UNL     1       0.002  -0.004   0.002  0.00  0.00    +0.034 C 
ATOM      3  C   UNL     1      -1.414  -0.524   0.009  0.00  0.00    -0.001 A 
ATOM      4  C   UNL     1      -2.102  -0.544  -1.178  0.00  0.00    +0.019 A 
ATOM      5  C   UNL     1      -3.412  -1.009  -1.220  0.00  0.00    +0.028 A 
ATOM      6  C   UNL     1      -4.038  -1.460  -0.047  0.00  0.00    +0.139 A 
ATOM      7  C   UNL     1      -3.331  -1.438   1.146  0.00  0.00    +0.093 A 
ATOM      8  C   UNL     1      -2.023  -0.974   1.173  0.00  0.00    +0.139 A 
ATOM      9  O   UNL     1      -1.365  -0.988   2.365  0.00  0.00    -0.425 OA
ATOM     10  C   UNL     1      -0.178  -0.352   2.429  0.00  0.00    +0.316 C 
ATOM     11  O   UNL     1       0.133   0.311   3.390  0.00  0.00    -0.250 OA
ATOM     12  C   UNL     1       0.747  -0.510   1.241  0.00  0.00    +0.114 C 
ATOM     13  O   UNL     1      -5.288  -1.845  -0.376  0.00  0.00    -0.462 OA
ATOM     14  C   UNL     1      -5.517  -1.675  -1.690  0.00  0.00    +0.204 A 
ATOM     15  C   UNL     1      -4.417  -1.165  -2.288  0.00  0.00    +0.028 A 
ENDROOT
BRANCH  15  16
ATOM     16  C   UNL     1      -4.254  -0.831  -3.723  0.00  0.00    -0.014 A 
ATOM     17  C   UNL     1      -3.754   0.415  -4.099  0.00  0.00    +0.010 A 
ATOM     18  C   UNL     1      -3.605   0.721  -5.436  0.00  0.00    +0.020 A 
ATOM     19  C   UNL     1      -3.951  -0.207  -6.404  0.00  0.00    +0.041 A 
ATOM     20  C   UNL     1      -4.448  -1.446  -6.036  0.00  0.00    +0.020 A 
ATOM     21  C   UNL     1      -4.596  -1.764  -4.702  0.00  0.00    +0.010 A 
ATOM     22 CL   UNL     1      -3.761   0.184  -8.085  0.00  0.00    -0.084 Cl
ENDBRANCH  15  16
BRANCH  12  23
ATOM     23  C   UNL     1       1.114  -1.984   1.061  0.00  0.00    +0.111 C 
BRANCH  23  24
ATOM     24  C   UNL     1       1.951  -2.440   2.228  0.00  0.00    +0.214 C 
ATOM     25  O   UNL     1       2.227  -1.662   3.117  0.00  0.00    -0.276 OA
ATOM     26  N   UNL     1       2.393  -3.712   2.284  0.00  0.00    -0.315 N 
ATOM     27  H   UNL     1       2.172  -4.334   1.574  0.00  0.00    +0.149 HD
BRANCH  26  28
ATOM     28  C   UNL     1       3.207  -4.155   3.419  0.00  0.00    +0.110 C 
BRANCH  28  29
ATOM     29  C   UNL     1       3.574  -5.629   3.239  0.00  0.00    +0.073 C 
BRANCH  29  30
ATOM     30  C   UNL     1       4.411  -6.085   4.406  0.00  0.00    +0.035 A 
ATOM     31  N   UNL     1       3.962  -6.711   5.537  0.00  0.00    -0.350 N 
ATOM     32  C   UNL     1       5.038  -6.942   6.320  0.00  0.00    +0.171 A 
ATOM     33  N   UNL     1       6.101  -6.487   5.715  0.00  0.00    -0.352 N 
ATOM     34  C   UNL     1       5.746  -5.960   4.534  0.00  0.00    +0.105 A 
ATOM     35  H   UNL     1       3.042  -6.945   5.739  0.00  0.00    +0.166 HD
ATOM     36  H   UNL     1       7.005  -6.527   6.063  0.00  0.00    +0.166 HD
ENDBRANCH  29  30
ENDBRANCH  28  29
ENDBRANCH  26  28
ENDBRANCH  23  24
ENDBRANCH  12  23
TORSDOF 6
