REMARK  Name = ZINC02350987
REMARK  5 active torsions:
REMARK  status: ('A' for Active; 'I' for Inactive)
REMARK    1  A    between atoms: C_4  and  C_7
REMARK    2  A    between atoms: C_7  and  N_8
REMARK    3  A    between atoms: N_18  and  N_19
REMARK    4  A    between atoms: C_23  and  C_24
REMARK    5  A    between atoms: C_23  and  N_53
REMARK                            x       y       z     vdW  Elec       q    Type
REMARK                         _______ _______ _______ _____ _____    ______ ____
ROOT
ATOM      1  N   UNL     1       5.064   6.324  -7.138  0.00  0.00    -0.275 N 
ATOM      2  C   UNL     1       5.076   5.968  -5.832  0.00  0.00    +0.264 A 
ATOM      3  O   UNL     1       6.112   5.880  -5.195  0.00  0.00    -0.267 OA
ATOM      4  C   UNL     1       3.797   5.701  -5.244  0.00  0.00    +0.076 A 
ATOM      5  C   UNL     1       3.535   5.304  -3.872  0.00  0.00    -0.026 A 
ATOM      6  C   UNL     1       2.240   5.103  -3.532  0.00  0.00    -0.021 A 
ATOM      7  S   UNL     1       1.316   5.431  -5.010  0.00  0.00    -0.075 S 
ATOM      8  C   UNL     1       2.663   5.835  -6.077  0.00  0.00    +0.117 A 
ATOM      9  N   UNL     1       2.720   6.189  -7.355  0.00  0.00    -0.207 NA
ATOM     10  C   UNL     1       3.919   6.428  -7.867  0.00  0.00    +0.213 A 
ATOM     11  N   UNL     1       4.011   6.797  -9.186  0.00  0.00    -0.253 N 
ATOM     12  C   UNL     1       1.724   4.691  -2.189  0.00  0.00    -0.035 C 
ATOM     13  C   UNL     1       3.982   5.141  -1.440  0.00  0.00    -0.073 C 
ATOM     14  C   UNL     1       4.631   5.110  -2.826  0.00  0.00    +0.018 C 
ATOM     15  H   UNL     1       4.878   6.977  -9.580  0.00  0.00    +0.169 HD
ATOM     16  N   UNL     1       2.867   4.173  -1.400  0.00  0.00    +0.386 N 
ATOM     17  H   UNL     1       3.181   3.285  -1.809  0.00  0.00    -0.081 HD
ENDROOT
BRANCH  11  18
ATOM     18  N   UNL     1       2.880   6.910  -9.943  0.00  0.00    -0.254 NA
ATOM     19  H   UNL     1       2.226   7.553  -9.523  0.00  0.00    +0.140 HD
ATOM     20  H   UNL     1       3.103   7.187 -10.887  0.00  0.00    +0.140 HD
ENDBRANCH  11  18
BRANCH   1  21
ATOM     21  C   UNL     1       6.340   6.611  -7.797  0.00  0.00    +0.163 C 
BRANCH  21  25
ATOM     22  C   UNL     1       7.259  10.761  -7.378  0.00  0.00    +0.000 A 
ATOM     23  C   UNL     1       7.690   9.859  -6.424  0.00  0.00    +0.000 A 
ATOM     24  C   UNL     1       7.392   8.515  -6.559  0.00  0.00    +0.005 A 
ATOM     25  C   UNL     1       6.664   8.075  -7.649  0.00  0.00    -0.028 A 
ATOM     26  C   UNL     1       6.239   8.977  -8.606  0.00  0.00    +0.005 A 
ATOM     27  C   UNL     1       6.532  10.321  -8.468  0.00  0.00    +0.000 A 
ENDBRANCH  21  25
ENDBRANCH   1  21
BRANCH  16  28
ATOM     28  C   UNL     1       2.451   3.937  -0.001  0.00  0.00    -0.043 C 
BRANCH  28  29
ATOM     29  C   UNL     1       1.156   3.165   0.008  0.00  0.00    -0.064 A 
ATOM     30  C   UNL     1       1.175   1.783   0.000  0.00  0.00    +0.002 A 
ATOM     31  C   UNL     1      -0.013   1.076   0.008  0.00  0.00    +0.000 A 
ATOM     32  C   UNL     1      -1.219   1.751   0.017  0.00  0.00    +0.000 A 
ATOM     33  C   UNL     1      -1.238   3.133   0.030  0.00  0.00    +0.000 A 
ATOM     34  C   UNL     1      -0.050   3.840   0.023  0.00  0.00    +0.002 A 
ENDBRANCH  28  29
ENDBRANCH  16  28
TORSDOF 5
