REMARK  Name = ZINC46235441
REMARK  8 active torsions:
REMARK  status: ('A' for Active; 'I' for Inactive)
REMARK    1  A    between atoms: C_1  and  C_2
REMARK    2  A    between atoms: C_6  and  C_8
REMARK    3  A    between atoms: C_8  and  C_14
REMARK    4  A    between atoms: C_14  and  N_15
REMARK    5  A    between atoms: C_16  and  C_18
REMARK    6  A    between atoms: C_18  and  C_19
REMARK    7  A    between atoms: C_19  and  C_20
REMARK    8  A    between atoms: C_21  and  C_30
REMARK                            x       y       z     vdW  Elec       q    Type
REMARK                         _______ _______ _______ _____ _____    ______ ____
ROOT
ATOM      1  N   UNL     1      -1.092  -0.949   3.525  0.00  0.00    -0.314 N 
ATOM      2  C   UNL     1      -1.982  -0.343   4.336  0.00  0.00    +0.213 C 
ATOM      3  O   UNL     1      -2.814  -1.002   4.923  0.00  0.00    -0.276 OA
ATOM      4  H   UNL     1      -0.426  -0.421   3.056  0.00  0.00    +0.149 HD
ENDROOT
BRANCH   1   5
ATOM      5  C   UNL     1      -1.129  -2.403   3.352  0.00  0.00    +0.115 C 
BRANCH   5   6
ATOM      6  C   UNL     1       0.047  -2.843   2.478  0.00  0.00    +0.011 C 
ATOM      7  C   UNL     1       1.361  -2.467   3.165  0.00  0.00    +0.013 C 
ATOM      8  C   UNL     1       1.446  -3.167   4.523  0.00  0.00    +0.001 C 
ATOM      9  C   UNL     1       1.391  -4.683   4.320  0.00  0.00    +0.000 C 
ATOM     10  C   UNL     1       0.076  -5.058   3.633  0.00  0.00    +0.001 C 
ATOM     11  C   UNL     1      -0.008  -4.359   2.275  0.00  0.00    +0.013 C 
BRANCH   6  17
ATOM     12  C   UNL     1       1.971   0.307  -0.901  0.00  0.00    +0.044 C 
ATOM     13  C   UNL     1       0.884  -0.646  -0.476  0.00  0.00    -0.050 A 
ATOM     14  C   UNL     1      -0.189  -0.888  -1.313  0.00  0.00    +0.003 A 
ATOM     15  C   UNL     1      -1.186  -1.763  -0.923  0.00  0.00    +0.001 A 
ATOM     16  C   UNL     1      -1.110  -2.396   0.304  0.00  0.00    +0.004 A 
ATOM     17  C   UNL     1      -0.036  -2.154   1.141  0.00  0.00    -0.039 A 
ATOM     18  C   UNL     1       0.963  -1.282   0.749  0.00  0.00    +0.007 A 
ENDBRANCH   6  17
ENDBRANCH   5   6
ENDBRANCH   1   5
BRANCH   2  19
ATOM     19  C   UNL     1      -1.943   1.153   4.514  0.00  0.00    +0.100 C 
BRANCH  19  20
ATOM     20  C   UNL     1      -3.051   1.580   5.479  0.00  0.00    +0.051 C 
BRANCH  20  21
ATOM     21  C   UNL     1      -3.013   3.076   5.657  0.00  0.00    +0.036 A 
ATOM     22  C   UNL     1      -3.807   3.875   4.912  0.00  0.00    +0.026 A 
ATOM     23  N   UNL     1      -3.759   5.231   5.086  0.00  0.00    -0.311 N 
ATOM     24  H   UNL     1      -4.330   5.804   4.551  0.00  0.00    +0.170 HD
ATOM     25  C   UNL     1      -2.929   5.776   5.993  0.00  0.00    +0.327 A 
ATOM     26  O   UNL     1      -2.903   6.984   6.132  0.00  0.00    -0.247 OA
ATOM     27  N   UNL     1      -2.127   5.004   6.749  0.00  0.00    -0.275 N 
ATOM     28  H   UNL     1      -1.534   5.414   7.399  0.00  0.00    +0.173 HD
ATOM     29  C   UNL     1      -2.147   3.663   6.611  0.00  0.00    +0.257 A 
ATOM     30  O   UNL     1      -1.426   2.963   7.298  0.00  0.00    -0.267 OA
ATOM     31  C   UNL     1      -4.741   3.275   3.892  0.00  0.00    +0.064 C 
ENDBRANCH  20  21
ENDBRANCH  19  20
ENDBRANCH   2  19
TORSDOF 6
