REMARK  Name = ZINC12042537
REMARK  9 active torsions:
REMARK  status: ('A' for Active; 'I' for Inactive)
REMARK    1  A    between atoms: C_1  and  C_2
REMARK    2  A    between atoms: C_2  and  C_4
REMARK    3  A    between atoms: C_2  and  N_17
REMARK    4  A    between atoms: C_13  and  O_16
REMARK    5  A    between atoms: C_18  and  C_20
REMARK    6  A    between atoms: C_20  and  C_21
REMARK    7  A    between atoms: C_21  and  C_22
REMARK    8  A    between atoms: C_22  and  C_28
REMARK    9  A    between atoms: C_28  and  C_29
REMARK                            x       y       z     vdW  Elec       q    Type
REMARK                         _______ _______ _______ _____ _____    ______ ____
ROOT
ATOM      1  C   UNL     1       2.783  -1.099   2.395  0.00  0.00    +0.098 C 
ENDROOT
BRANCH   1   3
ATOM      2  N   UNL     1       0.711  -0.489   1.189  0.00  0.00    -0.312 N 
ATOM      3  C   UNL     1       2.054  -0.600   1.174  0.00  0.00    +0.213 C 
ATOM      4  O   UNL     1       2.676  -0.297   0.177  0.00  0.00    -0.276 OA
ATOM      5  H   UNL     1       0.213  -0.731   1.986  0.00  0.00    +0.149 HD
BRANCH   2   7
ATOM      6  C   UNL     1      -0.019   1.526   0.010  0.00  0.00    +0.028 C 
ATOM      7  C   UNL     1       0.002  -0.004   0.002  0.00  0.00    +0.076 C 
BRANCH   7   8
ATOM      8  C   UNL     1      -1.433  -0.534   0.013  0.00  0.00    -0.008 C 
ATOM      9  C   UNL     1      -1.413  -2.063   0.004  0.00  0.00    +0.012 C 
ATOM     10  C   UNL     1      -2.848  -2.593   0.015  0.00  0.00    -0.007 C 
ATOM     11  C   UNL     1      -3.564  -2.100   1.274  0.00  0.00    +0.007 C 
ATOM     12  C   UNL     1      -3.585  -0.570   1.282  0.00  0.00    -0.007 C 
ATOM     13  C   UNL     1      -2.149  -0.040   1.272  0.00  0.00    +0.012 C 
ATOM     14  C   UNL     1      -4.325  -0.063   0.043  0.00  0.00    +0.038 C 
ATOM     15  C   UNL     1      -3.609  -0.556  -1.216  0.00  0.00    +0.067 C 
ATOM     16  C   UNL     1      -3.588  -2.086  -1.224  0.00  0.00    +0.038 C 
ATOM     17  C   UNL     1      -2.173  -0.027  -1.227  0.00  0.00    +0.043 C 
BRANCH  15  18
ATOM     18  O   UNL     1      -4.300  -0.083  -2.373  0.00  0.00    -0.389 OA
ATOM     19  H   UNL     1      -5.218  -0.381  -2.432  0.00  0.00    +0.210 HD
ENDBRANCH  15  18
ENDBRANCH   7   8
ENDBRANCH   2   7
ENDBRANCH   1   3
BRANCH   1  20
ATOM     20  C   UNL     1       4.287  -1.129   2.114  0.00  0.00    +0.035 C 
BRANCH  20  21
ATOM     21  C   UNL     1       5.026  -1.635   3.354  0.00  0.00    +0.039 C 
ATOM     22  C   UNL     1       4.584  -3.077   3.688  0.00  0.00    +0.035 C 
ATOM     23  C   UNL     1       3.450  -2.830   4.711  0.00  0.00    +0.098 C 
ATOM     24  C   UNL     1       3.774  -1.476   5.303  0.00  0.00    +0.214 C 
ATOM     25  O   UNL     1       3.302  -1.036   6.330  0.00  0.00    -0.276 OA
ATOM     26  N   UNL     1       4.662  -0.832   4.527  0.00  0.00    -0.309 N 
ATOM     27  H   UNL     1       5.017   0.051   4.717  0.00  0.00    +0.149 HD
BRANCH  21  28
ATOM     28  C   UNL     1       6.538  -1.583   3.125  0.00  0.00    +0.061 C 
BRANCH  28  29
ATOM     29  C   UNL     1       6.971  -0.150   2.953  0.00  0.00    -0.038 A 
ATOM     30  C   UNL     1       7.088   0.384   1.707  0.00  0.00    +0.004 A 
ATOM     31  C   UNL     1       7.487   1.707   1.528  0.00  0.00    +0.001 A 
ATOM     32  C   UNL     1       7.772   2.503   2.595  0.00  0.00    +0.008 A 
ATOM     33  C   UNL     1       7.664   1.987   3.897  0.00  0.00    -0.018 A 
ATOM     34  C   UNL     1       7.252   0.643   4.079  0.00  0.00    -0.015 A 
ATOM     35  C   UNL     1       7.137   0.128   5.381  0.00  0.00    +0.009 A 
ATOM     36  C   UNL     1       7.417   0.925   6.448  0.00  0.00    +0.001 A 
ATOM     37  C   UNL     1       7.816   2.249   6.269  0.00  0.00    +0.001 A 
ATOM     38  C   UNL     1       7.950   2.778   5.022  0.00  0.00    +0.008 A 
ENDBRANCH  28  29
ENDBRANCH  21  28
ENDBRANCH  20  21
ENDBRANCH   1  20
TORSDOF 8
