REMARK  Name = ZINC40917044
REMARK  7 active torsions:
REMARK  status: ('A' for Active; 'I' for Inactive)
REMARK    1  A    between atoms: C_5  and  C_7
REMARK    2  A    between atoms: C_8  and  C_25
REMARK    3  A    between atoms: C_10  and  C_13
REMARK    4  A    between atoms: C_13  and  C_14
REMARK    5  A    between atoms: C_14  and  C_15
REMARK    6  A    between atoms: C_18  and  S_21
REMARK    7  A    between atoms: S_21  and  N_24
REMARK                            x       y       z     vdW  Elec       q    Type
REMARK                         _______ _______ _______ _____ _____    ______ ____
ROOT
ATOM      1  C   UNL     1       1.271  -2.140  -0.023  0.00  0.00    +0.092 A 
ATOM      2  C   UNL     1       2.293  -2.943  -0.501  0.00  0.00    +0.098 A 
ATOM      3  N   UNL     1       1.918  -4.222  -0.316  0.00  0.00    -0.232 NA
ATOM      4  C   UNL     1       0.740  -4.256   0.240  0.00  0.00    +0.109 A 
ATOM      5  N   UNL     1       0.301  -2.996   0.447  0.00  0.00    -0.340 N 
ATOM      6  H   UNL     1      -0.544  -2.740   0.850  0.00  0.00    +0.167 HD
ENDROOT
BRANCH   2   7
ATOM      7  C   UNL     1       3.563  -2.479  -1.104  0.00  0.00    +0.005 A 
ATOM      8  C   UNL     1       3.578  -1.312  -1.888  0.00  0.00    +0.012 A 
ATOM      9  C   UNL     1       4.729  -0.867  -2.451  0.00  0.00    +0.030 A 
ATOM     10  C   UNL     1       5.929  -1.575  -2.255  0.00  0.00    +0.089 A 
ATOM     11  C   UNL     1       5.927  -2.754  -1.466  0.00  0.00    +0.090 A 
ATOM     12  C   UNL     1       4.727  -3.194  -0.887  0.00  0.00    +0.040 A 
ATOM     13  N   UNL     1       7.069  -3.427  -1.280  0.00  0.00    -0.252 NA
ATOM     14  C   UNL     1       8.180  -2.989  -1.829  0.00  0.00    +0.131 A 
ATOM     15  C   UNL     1       8.182  -1.829  -2.604  0.00  0.00    +0.131 A 
ATOM     16  N   UNL     1       7.073  -1.151  -2.803  0.00  0.00    -0.252 NA
ENDBRANCH   2   7
BRANCH   1  21
ATOM     17  C   UNL     1      -0.017   1.379   0.010  0.00  0.00    +0.004 A 
ATOM     18  C   UNL     1       1.194   2.059   0.002  0.00  0.00    +0.020 A 
ATOM     19  C   UNL     1       2.376   1.342  -0.013  0.00  0.00    +0.111 A 
ATOM     20  N   UNL     1       2.369   0.024  -0.021  0.00  0.00    -0.253 NA
ATOM     21  C   UNL     1       1.232  -0.666  -0.014  0.00  0.00    +0.089 A 
ATOM     22  C   UNL     1       0.002  -0.004   0.002  0.00  0.00    +0.030 A 
ENDBRANCH   1  21
BRANCH   4  23
ATOM     23  C   UNL     1      -0.014  -5.509   0.604  0.00  0.00    +0.079 C 
BRANCH  23  24
ATOM     24  C   UNL     1      -0.150  -6.399  -0.633  0.00  0.00    +0.043 C 
BRANCH  24  25
ATOM     25  C   UNL     1      -0.904  -7.652  -0.270  0.00  0.00    -0.047 A 
ATOM     26  C   UNL     1      -0.218  -8.766   0.179  0.00  0.00    +0.005 A 
ATOM     27  C   UNL     1      -0.910  -9.916   0.512  0.00  0.00    +0.029 A 
ATOM     28  C   UNL     1      -2.287  -9.951   0.398  0.00  0.00    +0.105 A 
ATOM     29  C   UNL     1      -2.973  -8.838  -0.049  0.00  0.00    +0.029 A 
ATOM     30  C   UNL     1      -2.282  -7.686  -0.379  0.00  0.00    +0.005 A 
BRANCH  28  31
ATOM     31  S   UNL     1      -3.168 -11.417   0.822  0.00  0.00    +0.056 S 
ATOM     32  O   UNL     1      -4.397 -11.373   0.109  0.00  0.00    -0.153 OA
ATOM     33  O   UNL     1      -2.251 -12.495   0.692  0.00  0.00    -0.153 OA
BRANCH  31  34
ATOM     34  N   UNL     1      -3.550 -11.311   2.429  0.00  0.00    -0.204 NA
ATOM     35  H   UNL     1      -4.353 -11.739   2.767  0.00  0.00    +0.144 HD
ATOM     36  H   UNL     1      -2.971 -10.821   3.034  0.00  0.00    +0.144 HD
ENDBRANCH  31  34
ENDBRANCH  28  31
ENDBRANCH  24  25
ENDBRANCH  23  24
ENDBRANCH   4  23
TORSDOF 7
