REMARK  Name = ZINC09345460
REMARK  13 active torsions:
REMARK  status: ('A' for Active; 'I' for Inactive)
REMARK    1  A    between atoms: C_1  and  C_2
REMARK    2  A    between atoms: C_9  and  O_27
REMARK    3  A    between atoms: C_10  and  C_13
REMARK    4  A    between atoms: C_14  and  C_15
REMARK    5  A    between atoms: C_14  and  C_17
REMARK    6  A    between atoms: N_19  and  C_20
REMARK    7  A    between atoms: C_20  and  C_21
REMARK    8  A    between atoms: C_21  and  C_22
REMARK    9  A    between atoms: C_22  and  O_23
REMARK   10  A    between atoms: O_23  and  C_24
REMARK   11  A    between atoms: C_24  and  C_25
REMARK   12  A    between atoms: C_24  and  C_26
REMARK   13  A    between atoms: O_27  and  C_28
REMARK                            x       y       z     vdW  Elec       q    Type
REMARK                         _______ _______ _______ _____ _____    ______ ____
ROOT
ATOM      1  C   UNL     1      -1.327   2.112   0.519  0.00  0.00    +0.047 C 
ATOM      2  C   UNL     1      -0.012   1.408   0.304  0.00  0.00    -0.007 A 
ATOM      3  C   UNL     1       0.022   0.055   0.136  0.00  0.00    +0.008 A 
ATOM      4  C   UNL     1       1.252  -0.584  -0.069  0.00  0.00    +0.019 A 
ATOM      5  C   UNL     1       2.395   0.139  -0.100  0.00  0.00    +0.096 A 
ATOM      6  N   UNL     1       2.370   1.491   0.066  0.00  0.00    -0.267 N 
ATOM      7  C   UNL     1       1.186   2.143   0.268  0.00  0.00    +0.147 A 
ATOM      8  N   UNL     1       1.140   3.466   0.433  0.00  0.00    -0.194 NA
ATOM      9  C   UNL     1       2.234   4.208   0.410  0.00  0.00    +0.235 A 
ATOM     10  C   UNL     1       3.492   3.591   0.204  0.00  0.00    +0.103 A 
ATOM     11  C   UNL     1       3.529   2.182   0.030  0.00  0.00    +0.269 A 
ATOM     12  O   UNL     1       4.588   1.608  -0.149  0.00  0.00    -0.266 OA
ENDROOT
BRANCH  10  13
ATOM     13  C   UNL     1       4.674   4.353   0.174  0.00  0.00    +0.042 C 
ATOM     14  C   UNL     1       4.800   5.403  -0.724  0.00  0.00    +0.114 C 
BRANCH  14  15
ATOM     15  C   UNL     1       5.976   6.277  -0.671  0.00  0.00    +0.254 C 
ATOM     16  O   UNL     1       6.843   6.081   0.161  0.00  0.00    -0.269 OA
ATOM     17  N   UNL     1       6.099   7.297  -1.544  0.00  0.00    -0.311 N 
ATOM     18  H   UNL     1       5.408   7.453  -2.207  0.00  0.00    +0.149 HD
BRANCH  17  19
ATOM     19  C   UNL     1       7.274   8.169  -1.491  0.00  0.00    +0.107 C 
BRANCH  19  20
ATOM     20  C   UNL     1       7.166   9.237  -2.581  0.00  0.00    +0.047 C 
BRANCH  20  21
ATOM     21  C   UNL     1       8.394  10.149  -2.526  0.00  0.00    +0.161 C 
BRANCH  21  22
ATOM     22  O   UNL     1       8.293  11.146  -3.544  0.00  0.00    -0.377 OA
BRANCH  22  23
ATOM     23  C   UNL     1       9.395  12.055  -3.579  0.00  0.00    +0.112 C 
ATOM     24  C   UNL     1      10.477  11.508  -4.513  0.00  0.00    +0.037 C 
ATOM     25  C   UNL     1       8.919  13.415  -4.092  0.00  0.00    +0.037 C 
ENDBRANCH  22  23
ENDBRANCH  21  22
ENDBRANCH  20  21
ENDBRANCH  19  20
ENDBRANCH  17  19
ENDBRANCH  14  15
BRANCH  14  26
ATOM     26  C   UNL     1       3.781   5.633  -1.704  0.00  0.00    +0.104 C 
ATOM     27  N   UNL     1       2.972   5.816  -2.481  0.00  0.00    -0.191 NA
ENDBRANCH  14  26
ENDBRANCH  10  13
BRANCH   9  28
ATOM     28  O   UNL     1       2.153   5.546   0.581  0.00  0.00    -0.436 OA
BRANCH  28  29
ATOM     29  C   UNL     1       0.919   6.096   0.740  0.00  0.00    +0.149 A 
ATOM     30  C   UNL     1       0.236   6.600  -0.357  0.00  0.00    +0.049 A 
ATOM     31  C   UNL     1      -1.017   7.157  -0.193  0.00  0.00    +0.023 A 
ATOM     32  C   UNL     1      -1.592   7.213   1.064  0.00  0.00    +0.043 A 
ATOM     33  C   UNL     1      -0.913   6.710   2.160  0.00  0.00    +0.043 A 
ATOM     34  C   UNL     1       0.339   6.147   2.000  0.00  0.00    +0.085 A 
ATOM     35 CL   UNL     1       1.187   5.511   3.374  0.00  0.00    -0.080 Cl
ATOM     36 CL   UNL     1      -3.167   7.914   1.267  0.00  0.00    -0.083 Cl
ENDBRANCH  28  29
ENDBRANCH   9  28
TORSDOF 10
