REMARK  Name = ZINC04237002
REMARK  13 active torsions:
REMARK  status: ('A' for Active; 'I' for Inactive)
REMARK    1  A    between atoms: C_1  and  C_2
REMARK    2  A    between atoms: C_5  and  O_40
REMARK    3  A    between atoms: C_7  and  C_37
REMARK    4  A    between atoms: C_7  and  C_38
REMARK    5  A    between atoms: C_17  and  O_19
REMARK    6  A    between atoms: O_19  and  C_20
REMARK    7  A    between atoms: C_20  and  C_21
REMARK    8  A    between atoms: C_23  and  C_25
REMARK    9  A    between atoms: C_25  and  C_26
REMARK   10  A    between atoms: N_28  and  C_29
REMARK   11  A    between atoms: N_28  and  C_30
REMARK   12  A    between atoms: C_30  and  C_31
REMARK   13  A    between atoms: C_38  and  O_39
REMARK                            x       y       z     vdW  Elec       q    Type
REMARK                         _______ _______ _______ _____ _____    ______ ____
ROOT
ATOM      1  C   UNL     1       6.014   3.949  -5.413  0.00  0.00    +0.012 C 
ATOM      2  C   UNL     1       5.506   2.540  -5.098  0.00  0.00    -0.019 C 
ATOM      3  C   UNL     1       4.105   2.346  -5.687  0.00  0.00    +0.010 C 
ATOM      4  C   UNL     1       4.147   2.461  -7.210  0.00  0.00    +0.032 C 
ATOM      5  C   UNL     1       5.068   1.368  -7.761  0.00  0.00    +0.123 C 
ATOM      6  C   UNL     1       6.476   1.589  -7.212  0.00  0.00    +0.021 C 
ATOM      7  C   UNL     1       6.470   1.504  -5.682  0.00  0.00    +0.011 C 
ATOM      8  C   UNL     1       7.900   1.826  -5.203  0.00  0.00    +0.049 C 
ATOM      9  C   UNL     1       7.871   2.097  -3.740  0.00  0.00    +0.015 A 
ATOM     10  C   UNL     1       6.785   2.344  -2.963  0.00  0.00    +0.058 A 
ATOM     11  N   UNL     1       7.029   2.560  -1.672  0.00  0.00    -0.229 NA
ATOM     12  C   UNL     1       8.248   2.535  -1.175  0.00  0.00    +0.167 A 
ATOM     13  S   UNL     1       9.208   2.183  -2.580  0.00  0.00    -0.057 S 
ATOM     14  N   UNL     1       8.660   2.737   0.138  0.00  0.00    -0.230 N 
ATOM     15  C   UNL     1       9.969   2.669   0.451  0.00  0.00    +0.406 C 
ATOM     16  O   UNL     1      10.789   2.431  -0.414  0.00  0.00    -0.226 OA
ATOM     17  C   UNL     1       5.394   2.362  -3.579  0.00  0.00    +0.054 C 
ATOM     18  C   UNL     1       7.414   0.520  -7.775  0.00  0.00    +0.016 C 
ATOM     19  H   UNL     1       8.006   2.927   0.828  0.00  0.00    +0.160 HD
ENDROOT
BRANCH   5  20
ATOM     20  O   UNL     1       5.094   1.438  -9.188  0.00  0.00    -0.391 OA
ATOM     21  H   UNL     1       4.229   1.317  -9.603  0.00  0.00    +0.210 HD
ENDBRANCH   5  20
BRANCH  15  22
ATOM     22  O   UNL     1      10.369   2.865   1.721  0.00  0.00    -0.446 OA
BRANCH  22  23
ATOM     23  C   UNL     1      11.794   2.776   1.985  0.00  0.00    +0.261 C 
BRANCH  23  24
ATOM     24  C   UNL     1      12.050   3.022   3.450  0.00  0.00    +0.006 C 
ATOM     25  C   UNL     1      12.872   2.245   4.111  0.00  0.00    +0.007 C 
ENDBRANCH  23  24
ENDBRANCH  22  23
ENDBRANCH  15  22
BRANCH  17  26
ATOM     26  C   UNL     1       4.590   3.522  -2.987  0.00  0.00    +0.106 C 
BRANCH  26  27
ATOM     27  C   UNL     1       4.314   3.250  -1.531  0.00  0.00    +0.216 C 
ATOM     28  O   UNL     1       4.720   2.229  -1.017  0.00  0.00    -0.276 OA
ATOM     29  N   UNL     1       3.615   4.141  -0.800  0.00  0.00    -0.300 N 
ATOM     30  C   UNL     1       3.125   5.374  -1.421  0.00  0.00    +0.132 C 
BRANCH  29  31
ATOM     31  C   UNL     1       3.346   3.877   0.616  0.00  0.00    +0.142 C 
BRANCH  31  32
ATOM     32  C   UNL     1       2.045   3.129   0.749  0.00  0.00    -0.030 A 
ATOM     33  C   UNL     1       2.038   1.746   0.728  0.00  0.00    +0.005 A 
ATOM     34  C   UNL     1       0.844   1.060   0.849  0.00  0.00    +0.000 A 
ATOM     35  C   UNL     1      -0.342   1.755   0.986  0.00  0.00    +0.000 A 
ATOM     36  C   UNL     1      -0.335   3.137   1.013  0.00  0.00    +0.000 A 
ATOM     37  C   UNL     1       0.859   3.824   0.891  0.00  0.00    +0.005 A 
ENDBRANCH  31  32
ENDBRANCH  29  31
ENDBRANCH  26  27
ENDBRANCH  17  26
BRANCH   6  38
ATOM     38  C   UNL     1       6.974   2.971  -7.640  0.00  0.00    +0.165 C 
BRANCH  38  39
ATOM     39  O   UNL     1       7.135   3.001  -9.059  0.00  0.00    -0.394 OA
ATOM     40  H   UNL     1       7.449   3.848  -9.402  0.00  0.00    +0.209 HD
ENDBRANCH  38  39
ENDBRANCH   6  38
TORSDOF 10
