REMARK  Name = ZINC14151988
REMARK  9 active torsions:
REMARK  status: ('A' for Active; 'I' for Inactive)
REMARK    1  A    between atoms: C_1  and  C_2
REMARK    2  A    between atoms: C_4  and  C_31
REMARK    3  A    between atoms: C_8  and  N_30
REMARK    4  A    between atoms: C_9  and  C_11
REMARK    5  A    between atoms: C_11  and  O_13
REMARK    6  A    between atoms: O_13  and  C_14
REMARK    7  A    between atoms: C_14  and  C_15
REMARK    8  A    between atoms: N_20  and  C_21
REMARK    9  A    between atoms: C_27  and  C_29
REMARK                            x       y       z     vdW  Elec       q    Type
REMARK                         _______ _______ _______ _____ _____    ______ ____
ROOT
ATOM      1  O   UNL     1       0.421  -6.480  -4.938  0.00  0.00    -0.451 OA
ENDROOT
BRANCH   1   2
ATOM      2  C   UNL     1       0.458  -7.819  -5.105  0.00  0.00    +0.348 C 
ATOM      3  O   UNL     1       0.339  -8.556  -4.144  0.00  0.00    -0.244 OA
BRANCH   2  12
ATOM      4  C   UNL     1       0.882 -12.544  -7.952  0.00  0.00    +0.044 C 
ATOM      5  C   UNL     1       0.976 -11.289  -8.781  0.00  0.00    -0.037 A 
ATOM      6  C   UNL     1       1.155 -11.364 -10.143  0.00  0.00    +0.027 A 
ATOM      7  C   UNL     1       1.242 -10.207 -10.903  0.00  0.00    +0.040 A 
ATOM      8  N   UNL     1       1.155  -9.023 -10.330  0.00  0.00    -0.245 NA
ATOM      9  C   UNL     1       0.984  -8.899  -9.032  0.00  0.00    +0.111 A 
ATOM     10  C   UNL     1       0.883 -10.015  -8.170  0.00  0.00    +0.032 A 
ATOM     11  C   UNL     1       0.695  -9.694  -6.763  0.00  0.00    +0.056 A 
ATOM     12  C   UNL     1       0.633  -8.366  -6.398  0.00  0.00    +0.119 A 
ATOM     13  S   UNL     1       0.820  -7.503  -7.946  0.00  0.00    -0.060 S 
ATOM     14  C   UNL     1       1.438 -10.305 -12.394  0.00  0.00    +0.065 C 
BRANCH  11  15
ATOM     15  N   UNL     1       0.581 -10.699  -5.814  0.00  0.00    -0.356 N 
ATOM     16  H   UNL     1       0.256 -11.575  -6.072  0.00  0.00    +0.142 HD
ATOM     17  H   UNL     1       0.827 -10.525  -4.892  0.00  0.00    +0.142 HD
ENDBRANCH  11  15
ENDBRANCH   2  12
ENDBRANCH   1   2
BRANCH   1  18
ATOM     18  C   UNL     1       0.241  -5.998  -3.605  0.00  0.00    +0.328 C 
BRANCH  18  19
ATOM     19  C   UNL     1       0.226  -4.491  -3.614  0.00  0.00    +0.258 C 
ATOM     20  O   UNL     1       0.357  -3.890  -4.659  0.00  0.00    -0.272 OA
ATOM     21  N   UNL     1       0.067  -3.812  -2.461  0.00  0.00    -0.237 N 
ATOM     22  C   UNL     1       0.054  -2.464  -2.469  0.00  0.00    +0.306 C 
ATOM     23  O   UNL     1       0.186  -1.861  -3.516  0.00  0.00    -0.252 OA
ATOM     24  N   UNL     1      -0.105  -1.785  -1.316  0.00  0.00    -0.296 N 
ATOM     25  H   UNL     1      -0.037  -4.293  -1.625  0.00  0.00    +0.159 HD
ATOM     26  H   UNL     1      -0.209  -2.266  -0.480  0.00  0.00    +0.151 HD
BRANCH  24  27
ATOM     27  C   UNL     1      -0.119  -0.320  -1.325  0.00  0.00    +0.077 C 
ATOM     28  C   UNL     1       1.317   0.205  -1.265  0.00  0.00    +0.022 C 
ATOM     29  C   UNL     1       1.302   1.735  -1.274  0.00  0.00    +0.002 C 
ATOM     30  C   UNL     1       0.522   2.244  -0.060  0.00  0.00    +0.000 C 
ATOM     31  C   UNL     1      -0.914   1.720  -0.120  0.00  0.00    +0.005 C 
ATOM     32  C   UNL     1      -0.899   0.190  -0.111  0.00  0.00    +0.006 C 
ATOM     33  C   UNL     1      -2.335  -0.334  -0.171  0.00  0.00    +0.009 C 
ENDBRANCH  24  27
ENDBRANCH  18  19
ENDBRANCH   1  18
TORSDOF 6
