REMARK  Name = ZINC32860140
REMARK  11 active torsions:
REMARK  status: ('A' for Active; 'I' for Inactive)
REMARK    1  A    between atoms: C_1  and  C_2
REMARK    2  A    between atoms: C_15  and  C_17
REMARK    3  A    between atoms: C_17  and  N_18
REMARK    4  A    between atoms: N_18  and  C_19
REMARK    5  A    between atoms: N_18  and  C_20
REMARK    6  A    between atoms: C_20  and  C_22
REMARK    7  A    between atoms: C_20  and  C_23
REMARK    8  A    between atoms: N_25  and  C_26
REMARK    9  A    between atoms: C_29  and  C_32
REMARK   10  A    between atoms: C_32  and  C_33
REMARK   11  A    between atoms: C_32  and  C_34
REMARK                            x       y       z     vdW  Elec       q    Type
REMARK                         _______ _______ _______ _____ _____    ______ ____
ROOT
ATOM      1  N   UNL     1      -0.161   4.783  -3.696  0.00  0.00    +0.391 N 
ATOM      2  C   UNL     1       1.034   5.424  -4.260  0.00  0.00    -0.094 C 
ATOM      3  H   UNL     1      -0.909   5.567  -3.508  0.00  0.00    -0.080 HD
ENDROOT
BRANCH   1   4
ATOM      4  C   UNL     1      -0.742   3.824  -4.646  0.00  0.00    +0.017 C 
ATOM      5  C   UNL     1       0.103   2.549  -4.664  0.00  0.00    -0.004 C 
BRANCH   4   6
ATOM      6  C   UNL     1      -2.149   3.489  -4.225  0.00  0.00    +0.203 C 
ATOM      7  O   UNL     1      -2.545   3.808  -3.123  0.00  0.00    -0.277 OA
ATOM      8  N   UNL     1      -2.968   2.835  -5.072  0.00  0.00    -0.287 N 
ATOM      9  H   UNL     1      -2.635   2.608  -6.095  0.00  0.00    +0.155 HD
BRANCH   8  10
ATOM     10  C   UNL     1      -4.244   2.444  -4.649  0.00  0.00    +0.033 A 
ATOM     11  C   UNL     1      -4.792   1.252  -5.104  0.00  0.00    +0.023 A 
ATOM     12  C   UNL     1      -6.049   0.866  -4.681  0.00  0.00    +0.006 A 
ATOM     13  C   UNL     1      -6.766   1.671  -3.814  0.00  0.00    -0.045 A 
ATOM     14  C   UNL     1      -6.224   2.861  -3.364  0.00  0.00    +0.006 A 
ATOM     15  C   UNL     1      -4.966   3.250  -3.779  0.00  0.00    +0.023 A 
BRANCH  13  16
ATOM     16  C   UNL     1      -8.139   1.250  -3.360  0.00  0.00    +0.013 C 
ATOM     17  C   UNL     1      -9.057   1.105  -4.575  0.00  0.00    +0.012 C 
ATOM     18  C   UNL     1      -8.046  -0.091  -2.629  0.00  0.00    +0.012 C 
ENDBRANCH  13  16
ENDBRANCH   8  10
ENDBRANCH   4   6
ENDBRANCH   1   4
BRANCH   1  19
ATOM     19  C   UNL     1       0.144   4.134  -2.414  0.00  0.00    +0.020 C 
BRANCH  19  33
ATOM     20  C   UNL     1      -0.018   6.051   1.798  0.00  0.00    +0.029 C 
ATOM     21  C   UNL     1       1.174   5.826   0.866  0.00  0.00    +0.087 C 
ATOM     22  C   UNL     1       2.375   5.349   1.684  0.00  0.00    +0.118 C 
ATOM     23  C   UNL     1       3.415   4.748   0.775  0.00  0.00    +0.219 C 
ATOM     24  O   UNL     1       4.419   5.375   0.512  0.00  0.00    -0.275 OA
ATOM     25  N   UNL     1       3.236   3.516   0.252  0.00  0.00    -0.284 N 
ATOM     26  C   UNL     1       2.040   2.821   0.467  0.00  0.00    +0.055 A 
ATOM     27  C   UNL     1       2.052   1.502   0.888  0.00  0.00    +0.025 A 
ATOM     28  C   UNL     1       0.859   0.825   1.065  0.00  0.00    +0.002 A 
ATOM     29  C   UNL     1      -0.345   1.460   0.817  0.00  0.00    +0.002 A 
ATOM     30  C   UNL     1      -0.365   2.778   0.402  0.00  0.00    +0.025 A 
ATOM     31  C   UNL     1       0.825   3.467   0.235  0.00  0.00    +0.058 A 
ATOM     32  N   UNL     1       0.823   4.817  -0.136  0.00  0.00    -0.268 N 
ATOM     33  C   UNL     1       0.503   5.183  -1.393  0.00  0.00    +0.204 C 
ATOM     34  O   UNL     1       0.505   6.355  -1.703  0.00  0.00    -0.277 OA
ATOM     35  H   UNL     1       4.033   3.052  -0.348  0.00  0.00    +0.155 HD
ENDBRANCH  19  33
ENDBRANCH   1  19
TORSDOF 6
