REMARK  Name = ZINC35934794
REMARK  10 active torsions:
REMARK  status: ('A' for Active; 'I' for Inactive)
REMARK    1  A    between atoms: C_1  and  N_2
REMARK    2  A    between atoms: C_5  and  C_10
REMARK    3  A    between atoms: C_15  and  O_16
REMARK    4  A    between atoms: O_16  and  C_17
REMARK    5  A    between atoms: N_20  and  C_22
REMARK    6  A    between atoms: C_22  and  C_23
REMARK    7  A    between atoms: C_23  and  C_24
REMARK    8  A    between atoms: N_29  and  C_32
REMARK    9  A    between atoms: C_32  and  C_33
REMARK   10  A    between atoms: C_33  and  C_34
REMARK                            x       y       z     vdW  Elec       q    Type
REMARK                         _______ _______ _______ _____ _____    ______ ____
ROOT
ATOM      1  C   UNL     1      -0.018   1.461   0.010  0.00  0.00    +0.139 C 
ATOM      2  N   UNL     1       0.002  -0.004   0.002  0.00  0.00    -0.260 N 
ATOM      3  C   UNL     1      -1.193  -0.666   0.004  0.00  0.00    +0.042 C 
ATOM      4  C   UNL     1      -1.245  -2.013  -0.003  0.00  0.00    +0.058 C 
ATOM      5  C   UNL     1       0.068  -2.769  -0.014  0.00  0.00    +0.145 C 
ATOM      6  N   UNL     1       1.301  -1.964  -0.016  0.00  0.00    -0.288 N 
ATOM      7  C   UNL     1       1.191  -0.621  -0.013  0.00  0.00    +0.307 C 
ATOM      8  O   UNL     1       2.203   0.052  -0.018  0.00  0.00    -0.252 OA
ATOM      9  C   UNL     1      -2.585  -2.452   0.002  0.00  0.00    +0.247 C 
ATOM     10  O   UNL     1      -2.927  -3.620  -0.003  0.00  0.00    -0.270 OA
ATOM     11  N   UNL     1      -3.437  -1.411   0.012  0.00  0.00    -0.292 N 
ATOM     12  C   UNL     1      -2.626  -0.184   0.015  0.00  0.00    +0.159 C 
ATOM     13  H   UNL     1       2.172  -2.391  -0.023  0.00  0.00    +0.151 HD
ENDROOT
BRANCH   5  14
ATOM     14  C   UNL     1       0.087  -3.650  -1.237  0.00  0.00    +0.019 A 
ATOM     15  C   UNL     1       0.785  -3.255  -2.362  0.00  0.00    +0.009 A 
ATOM     16  C   UNL     1       0.803  -4.062  -3.485  0.00  0.00    +0.001 A 
ATOM     17  C   UNL     1       0.122  -5.266  -3.485  0.00  0.00    +0.004 A 
ATOM     18  C   UNL     1      -0.577  -5.665  -2.362  0.00  0.00    +0.046 A 
ATOM     19  C   UNL     1      -0.592  -4.859  -1.233  0.00  0.00    +0.125 A 
BRANCH  19  20
ATOM     20  O   UNL     1      -1.274  -5.253  -0.125  0.00  0.00    -0.495 OA
ATOM     21  C   UNL     1      -1.949  -6.510  -0.192  0.00  0.00    +0.277 C 
ENDBRANCH  19  20
ENDBRANCH   5  14
BRANCH  11  22
ATOM     22  C   UNL     1      -4.900  -1.485   0.019  0.00  0.00    +0.117 C 
BRANCH  22  23
ATOM     23  C   UNL     1      -5.402  -1.519   1.464  0.00  0.00    +0.115 C 
BRANCH  23  24
ATOM     24  C   UNL     1      -6.907  -1.596   1.471  0.00  0.00    +0.217 C 
ATOM     25  O   UNL     1      -7.518  -1.621   0.424  0.00  0.00    -0.276 OA
ATOM     26  N   UNL     1      -7.574  -1.636   2.642  0.00  0.00    -0.299 N 
ATOM     27  C   UNL     1      -6.853  -1.601   3.923  0.00  0.00    +0.123 C 
ATOM     28  C   UNL     1      -7.469  -0.504   4.798  0.00  0.00    +0.103 C 
ATOM     29  N   UNL     1      -8.917  -0.724   4.906  0.00  0.00    -0.299 NA
ATOM     30  C   UNL     1      -9.572  -0.616   3.596  0.00  0.00    +0.103 C 
ATOM     31  C   UNL     1      -9.043  -1.711   2.672  0.00  0.00    +0.123 C 
BRANCH  29  32
ATOM     32  C   UNL     1      -9.520   0.203   5.874  0.00  0.00    +0.089 C 
BRANCH  32  33
ATOM     33  C   UNL     1     -10.967  -0.213   6.146  0.00  0.00    +0.050 C 
BRANCH  33  34
ATOM     34  C   UNL     1     -11.585   0.738   7.139  0.00  0.00    -0.046 A 
ATOM     35  C   UNL     1     -11.493   0.478   8.493  0.00  0.00    +0.003 A 
ATOM     36  C   UNL     1     -12.060   1.351   9.404  0.00  0.00    +0.000 A 
ATOM     37  C   UNL     1     -12.718   2.482   8.959  0.00  0.00    +0.000 A 
ATOM     38  C   UNL     1     -12.809   2.742   7.605  0.00  0.00    +0.000 A 
ATOM     39  C   UNL     1     -12.238   1.872   6.694  0.00  0.00    +0.003 A 
ENDBRANCH  33  34
ENDBRANCH  32  33
ENDBRANCH  29  32
ENDBRANCH  23  24
ENDBRANCH  22  23
ENDBRANCH  11  22
TORSDOF 8
