REMARK  Name = ZINC21221508
REMARK  11 active torsions:
REMARK  status: ('A' for Active; 'I' for Inactive)
REMARK    1  A    between atoms: C_1  and  C_2
REMARK    2  A    between atoms: C_2  and  O_3
REMARK    3  A    between atoms: O_3  and  C_4
REMARK    4  A    between atoms: C_7  and  C_12
REMARK    5  A    between atoms: C_9  and  O_10
REMARK    6  A    between atoms: O_10  and  C_11
REMARK    7  A    between atoms: C_17  and  C_27
REMARK    8  A    between atoms: C_32  and  O_33
REMARK    9  A    between atoms: O_33  and  C_34
REMARK   10  A    between atoms: C_34  and  C_35
REMARK   11  A    between atoms: C_34  and  C_36
REMARK                            x       y       z     vdW  Elec       q    Type
REMARK                         _______ _______ _______ _____ _____    ______ ____
ROOT
ATOM      1  C   UNL     1      -0.688   5.981  -4.154  0.00  0.00    +0.032 C 
ATOM      2  C   UNL     1       0.341   6.921  -3.529  0.00  0.00    +0.059 C 
ATOM      3  C   UNL     1       0.680   6.459  -2.122  0.00  0.00    +0.017 C 
ATOM      4  C   UNL     1      -0.242   5.845  -1.364  0.00  0.00    +0.037 C 
ATOM      5  C   UNL     1      -0.046   5.351   0.049  0.00  0.00    +0.139 C 
ATOM      6  N   UNL     1       1.173   5.808   0.681  0.00  0.00    -0.331 N 
ATOM      7  C   UNL     1       2.421   5.422   0.195  0.00  0.00    +0.049 A 
ATOM      8  C   UNL     1       3.280   4.635   0.946  0.00  0.00    +0.025 A 
ATOM      9  C   UNL     1       4.489   4.238   0.401  0.00  0.00    +0.002 A 
ATOM     10  C   UNL     1       4.838   4.619  -0.882  0.00  0.00    +0.002 A 
ATOM     11  C   UNL     1       3.990   5.420  -1.627  0.00  0.00    +0.025 A 
ATOM     12  C   UNL     1       2.791   5.837  -1.076  0.00  0.00    +0.052 A 
ATOM     13  N   UNL     1       1.948   6.733  -1.722  0.00  0.00    -0.316 N 
ATOM     14  C   UNL     1      -1.543   5.609  -1.875  0.00  0.00    +0.163 C 
ATOM     15  O   UNL     1      -2.365   5.069  -1.162  0.00  0.00    -0.292 OA
ATOM     16  C   UNL     1      -1.939   6.002  -3.267  0.00  0.00    +0.088 C 
ATOM     17  H   UNL     1       1.123   6.470   1.558  0.00  0.00    +0.147 HD
ATOM     18  H   UNL     1       2.379   7.729  -1.903  0.00  0.00    +0.152 HD
ENDROOT
BRANCH   1  22
ATOM     19  C   UNL     1      -1.678   7.331  -8.089  0.00  0.00    +0.162 A 
ATOM     20  C   UNL     1      -1.904   8.151  -6.995  0.00  0.00    +0.050 A 
ATOM     21  C   UNL     1      -1.583   7.711  -5.724  0.00  0.00    +0.008 A 
ATOM     22  C   UNL     1      -1.037   6.455  -5.541  0.00  0.00    -0.040 A 
ATOM     23  C   UNL     1      -0.803   5.634  -6.629  0.00  0.00    +0.053 A 
ATOM     24  C   UNL     1      -1.128   6.066  -7.905  0.00  0.00    +0.162 A 
BRANCH  24  25
ATOM     25  O   UNL     1      -0.904   5.258  -8.976  0.00  0.00    -0.491 OA
ATOM     26  C   UNL     1      -0.337   3.973  -8.711  0.00  0.00    +0.277 C 
ENDBRANCH  24  25
BRANCH  19  27
ATOM     27  O   UNL     1      -1.992   7.762  -9.340  0.00  0.00    -0.489 OA
BRANCH  27  29
ATOM     28  C   UNL     1      -2.838   9.379 -10.925  0.00  0.00    +0.048 C 
ATOM     29  C   UNL     1      -2.553   9.072  -9.453  0.00  0.00    +0.226 C 
ENDBRANCH  27  29
ENDBRANCH  19  27
ENDBRANCH   1  22
BRANCH   5  30
ATOM     30  C   UNL     1      -0.037   3.844   0.030  0.00  0.00    +0.019 A 
ATOM     31  C   UNL     1       0.257   3.169  -1.139  0.00  0.00    +0.009 A 
ATOM     32  C   UNL     1       0.266   1.786  -1.157  0.00  0.00    +0.001 A 
ATOM     33  C   UNL     1      -0.020   1.076  -0.005  0.00  0.00    +0.004 A 
ATOM     34  C   UNL     1      -0.320   1.746   1.165  0.00  0.00    +0.046 A 
ATOM     35  C   UNL     1      -0.325   3.133   1.186  0.00  0.00    +0.126 A 
BRANCH  35  36
ATOM     36  O   UNL     1      -0.615   3.795   2.337  0.00  0.00    -0.489 OA
BRANCH  36  37
ATOM     37  C   UNL     1      -0.788   3.004   3.514  0.00  0.00    +0.167 C 
ATOM     38  C   UNL     1      -0.489   3.855   4.750  0.00  0.00    +0.051 C 
ATOM     39  C   UNL     1      -2.231   2.498   3.581  0.00  0.00    +0.051 C 
ENDBRANCH  36  37
ENDBRANCH  35  36
ENDBRANCH   5  30
TORSDOF 7
