REMARK  Name = ZINC00902341
REMARK  8 active torsions:
REMARK  status: ('A' for Active; 'I' for Inactive)
REMARK    1  A    between atoms: C_1  and  C_2
REMARK    2  A    between atoms: C_2  and  N_50
REMARK    3  A    between atoms: C_8  and  N_13
REMARK    4  A    between atoms: C_9  and  C_10
REMARK    5  A    between atoms: N_13  and  C_14
REMARK    6  A    between atoms: C_14  and  N_16
REMARK    7  A    between atoms: C_17  and  C_19
REMARK    8  A    between atoms: C_20  and  C_21
REMARK                            x       y       z     vdW  Elec       q    Type
REMARK                         _______ _______ _______ _____ _____    ______ ____
ROOT
ATOM      1  C   UNL     1       4.701  -4.033  -0.506  0.00  0.00    -0.074 C 
ATOM      2  C   UNL     1       3.239  -3.969  -0.053  0.00  0.00    +0.018 C 
ATOM      3  C   UNL     1       2.811  -2.506  -0.039  0.00  0.00    -0.027 A 
ATOM      4  C   UNL     1       3.742  -1.526  -0.042  0.00  0.00    -0.021 A 
ATOM      5  S   UNL     1       2.814  -0.021  -0.024  0.00  0.00    -0.079 S 
ATOM      6  C   UNL     1       1.211  -0.680  -0.013  0.00  0.00    +0.084 A 
ATOM      7  C   UNL     1       1.433  -2.052  -0.017  0.00  0.00    +0.068 A 
ATOM      8  C   UNL     1       5.227  -1.712  -0.054  0.00  0.00    -0.035 C 
ATOM      9  N   UNL     1       5.512  -3.118   0.323  0.00  0.00    +0.383 N 
ATOM     10  H   UNL     1       5.267  -3.255   1.310  0.00  0.00    -0.081 HD
ENDROOT
BRANCH   7  11
ATOM     11  C   UNL     1       0.318  -3.003  -0.004  0.00  0.00    +0.244 C 
ATOM     12  O   UNL     1      -0.158  -3.398  -1.052  0.00  0.00    -0.270 OA
ATOM     13  N   UNL     1      -0.180  -3.441   1.170  0.00  0.00    -0.325 N 
ATOM     14  H   UNL     1       0.199  -3.127   2.005  0.00  0.00    +0.145 HD
ATOM     15  H   UNL     1      -0.918  -4.070   1.179  0.00  0.00    +0.145 HD
ENDBRANCH   7  11
BRANCH   9  17
ATOM     16  C   UNL     1       7.330  -3.318  -1.340  0.00  0.00    -0.017 C 
ATOM     17  C   UNL     1       6.950  -3.409   0.139  0.00  0.00    -0.082 C 
ENDBRANCH   9  17
BRANCH   6  18
ATOM     18  N   UNL     1       0.002  -0.004   0.002  0.00  0.00    -0.291 N 
ATOM     19  H   UNL     1      -0.831  -0.500   0.007  0.00  0.00    +0.154 HD
BRANCH  18  20
ATOM     20  C   UNL     1      -0.016   1.344   0.009  0.00  0.00    +0.141 C 
ATOM     21  S   UNL     1       1.455   2.220   0.000  0.00  0.00    -0.018 S 
BRANCH  20  22
ATOM     22  N   UNL     1      -1.192   2.002   0.019  0.00  0.00    -0.264 N 
ATOM     23  C   UNL     1      -1.211   3.349   0.026  0.00  0.00    +0.242 C 
ATOM     24  O   UNL     1      -0.165   3.972   0.024  0.00  0.00    -0.270 OA
ATOM     25  H   UNL     1      -2.026   1.505   0.020  0.00  0.00    +0.157 HD
BRANCH  23  26
ATOM     26  C   UNL     1      -2.488   4.063   0.036  0.00  0.00    +0.068 C 
ATOM     27  C   UNL     1      -2.506   5.412   0.043  0.00  0.00    +0.013 C 
BRANCH  27  28
ATOM     28  C   UNL     1      -3.790   6.131   0.053  0.00  0.00    -0.025 A 
ATOM     29  C   UNL     1      -4.994   5.419   0.049  0.00  0.00    +0.008 A 
ATOM     30  C   UNL     1      -6.193   6.099   0.064  0.00  0.00    +0.001 A 
ATOM     31  C   UNL     1      -6.208   7.483   0.072  0.00  0.00    +0.000 A 
ATOM     32  C   UNL     1      -5.021   8.195   0.070  0.00  0.00    +0.001 A 
ATOM     33  C   UNL     1      -3.813   7.529   0.061  0.00  0.00    +0.008 A 
ENDBRANCH  27  28
ENDBRANCH  23  26
ENDBRANCH  20  22
ENDBRANCH  18  20
ENDBRANCH   6  18
TORSDOF 7
