REMARK  Name = ZINC20882326
REMARK  4 active torsions:
REMARK  status: ('A' for Active; 'I' for Inactive)
REMARK    1  A    between atoms: C_1  and  O_2
REMARK    2  A    between atoms: O_2  and  C_3
REMARK    3  A    between atoms: C_7  and  C_9
REMARK    4  A    between atoms: C_14  and  C_20
REMARK                            x       y       z     vdW  Elec       q    Type
REMARK                         _______ _______ _______ _____ _____    ______ ____
ROOT
ATOM      1  C   UNL     1      -0.728   1.579   1.268  0.00  0.00    +0.032 C 
ATOM      2  C   UNL     1      -0.013   1.086   0.008  0.00  0.00    +0.059 C 
ATOM      3  C   UNL     1      -0.741   1.585  -1.215  0.00  0.00    +0.018 C 
ATOM      4  C   UNL     1      -1.407   2.758  -1.192  0.00  0.00    +0.020 C 
ATOM      5  C   UNL     1      -2.125   3.241  -2.431  0.00  0.00    +0.064 C 
ATOM      6  C   UNL     1      -1.335   2.821  -3.672  0.00  0.00    +0.109 C 
ATOM      7  C   UNL     1      -0.976   1.362  -3.558  0.00  0.00    +0.218 C 
ATOM      8  O   UNL     1      -0.924   0.673  -4.554  0.00  0.00    -0.275 OA
ATOM      9  N   UNL     1      -0.714   0.823  -2.355  0.00  0.00    -0.289 N 
ATOM     10  C   UNL     1      -1.454   3.551  -0.033  0.00  0.00    +0.162 C 
ATOM     11  O   UNL     1      -2.052   4.608  -0.055  0.00  0.00    -0.292 OA
ATOM     12  C   UNL     1      -0.775   3.110   1.236  0.00  0.00    +0.088 C 
ATOM     13  H   UNL     1      -0.475  -0.249  -2.295  0.00  0.00    +0.155 HD
ENDROOT
BRANCH   5  14
ATOM     14  C   UNL     1      -3.503   2.632  -2.483  0.00  0.00    -0.021 A 
ATOM     15  C   UNL     1      -3.651   1.259  -2.530  0.00  0.00    +0.007 A 
ATOM     16  C   UNL     1      -4.914   0.700  -2.572  0.00  0.00    +0.020 A 
ATOM     17  C   UNL     1      -6.032   1.516  -2.579  0.00  0.00    +0.042 A 
ATOM     18  C   UNL     1      -5.885   2.890  -2.538  0.00  0.00    +0.040 A 
ATOM     19  C   UNL     1      -4.620   3.449  -2.490  0.00  0.00    +0.046 A 
ATOM     20 CL   UNL     1      -4.434   5.174  -2.438  0.00  0.00    -0.083 Cl
ATOM     21 CL   UNL     1      -7.618   0.814  -2.640  0.00  0.00    -0.083 Cl
ENDBRANCH   5  14
BRANCH   1  26
ATOM     22  C   UNL     1       0.103  -0.109   4.545  0.00  0.00    +0.120 A 
ATOM     23  C   UNL     1       1.420   0.287   4.731  0.00  0.00    +0.045 A 
ATOM     24  C   UNL     1       2.035   1.097   3.797  0.00  0.00    +0.004 A 
ATOM     25  C   UNL     1       1.341   1.510   2.675  0.00  0.00    +0.004 A 
ATOM     26  C   UNL     1       0.027   1.122   2.490  0.00  0.00    -0.040 A 
ATOM     27  C   UNL     1      -0.593   0.311   3.421  0.00  0.00    +0.049 A 
BRANCH  22  29
ATOM     28  C   UNL     1       0.273  -1.299   6.596  0.00  0.00    +0.277 C 
ATOM     29  O   UNL     1      -0.504  -0.906   5.463  0.00  0.00    -0.495 OA
ENDBRANCH  22  29
ENDBRANCH   1  26
TORSDOF 3
