REMARK  Name = ZINC36624486
REMARK  11 active torsions:
REMARK  status: ('A' for Active; 'I' for Inactive)
REMARK    1  A    between atoms: C_1  and  C_2
REMARK    2  A    between atoms: C_2  and  O_3
REMARK    3  A    between atoms: O_3  and  C_4
REMARK    4  A    between atoms: C_4  and  C_6
REMARK    5  A    between atoms: C_7  and  C_33
REMARK    6  A    between atoms: C_12  and  C_14
REMARK    7  A    between atoms: C_19  and  O_20
REMARK    8  A    between atoms: O_20  and  C_21
REMARK    9  A    between atoms: C_21  and  C_22
REMARK   10  A    between atoms: N_24  and  C_25
REMARK   11  A    between atoms: C_25  and  C_26
REMARK                            x       y       z     vdW  Elec       q    Type
REMARK                         _______ _______ _______ _____ _____    ______ ____
ROOT
ATOM      1  C   UNL     1       0.970  -0.752  -3.973  0.00  0.00    +0.020 A 
ATOM      2  C   UNL     1       0.229  -1.172  -5.061  0.00  0.00    +0.024 A 
ATOM      3  C   UNL     1      -0.771  -0.364  -5.571  0.00  0.00    +0.018 A 
ATOM      4  C   UNL     1      -1.031   0.866  -4.994  0.00  0.00    +0.019 A 
ATOM      5  C   UNL     1      -0.293   1.290  -3.906  0.00  0.00    +0.047 A 
ATOM      6  C   UNL     1       0.707   0.479  -3.390  0.00  0.00    +0.127 A 
ATOM      7 BR   UNL     1      -1.784  -0.941  -7.060  0.00  0.00    -0.050 Br
ENDROOT
BRANCH   1  14
ATOM      8  C   UNL     1       1.461  -2.473  -2.308  0.00  0.00    +0.078 C 
ATOM      9  C   UNL     1       1.530  -3.816  -2.430  0.00  0.00    +0.021 C 
ATOM     10  N   UNL     1       2.125  -4.396  -3.514  0.00  0.00    -0.273 N 
ATOM     11  C   UNL     1       2.674  -3.702  -4.519  0.00  0.00    +0.304 C 
ATOM     12  O   UNL     1       3.181  -4.307  -5.443  0.00  0.00    -0.252 OA
ATOM     13  N   UNL     1       2.683  -2.354  -4.540  0.00  0.00    -0.288 N 
ATOM     14  C   UNL     1       2.060  -1.632  -3.418  0.00  0.00    +0.147 C 
ATOM     15  C   UNL     1       0.942  -4.689  -1.352  0.00  0.00    +0.061 C 
ATOM     16  H   UNL     1       2.151  -5.364  -3.558  0.00  0.00    +0.156 HD
ATOM     17  H   UNL     1       3.087  -1.872  -5.278  0.00  0.00    +0.151 HD
BRANCH   8  18
ATOM     18  C   UNL     1       0.845  -1.871  -1.186  0.00  0.00    +0.339 C 
ATOM     19  O   UNL     1       1.527  -1.440  -0.276  0.00  0.00    -0.245 OA
BRANCH  18  20
ATOM     20  O   UNL     1      -0.500  -1.774  -1.125  0.00  0.00    -0.462 OA
BRANCH  20  22
ATOM     21  C   UNL     1      -2.576  -1.159  -0.052  0.00  0.00    +0.048 C 
ATOM     22  C   UNL     1      -1.050  -1.058  -0.018  0.00  0.00    +0.229 C 
ENDBRANCH  20  22
ENDBRANCH  18  20
ENDBRANCH   8  18
ENDBRANCH   1  14
BRANCH   6  23
ATOM     23  O   UNL     1       1.432   0.892  -2.316  0.00  0.00    -0.482 OA
BRANCH  23  24
ATOM     24  C   UNL     1       1.039   2.121  -1.702  0.00  0.00    +0.324 C 
BRANCH  24  25
ATOM     25  C   UNL     1       2.018   2.473  -0.612  0.00  0.00    +0.251 C 
ATOM     26  O   UNL     1       3.008   1.794  -0.444  0.00  0.00    -0.272 OA
ATOM     27  N   UNL     1       1.792   3.543   0.176  0.00  0.00    -0.308 N 
ATOM     28  H   UNL     1       1.000   4.087   0.041  0.00  0.00    +0.149 HD
BRANCH  27  29
ATOM     29  C   UNL     1       2.744   3.886   1.236  0.00  0.00    +0.139 C 
BRANCH  29  30
ATOM     30  C   UNL     1       2.263   5.114   1.965  0.00  0.00    -0.030 A 
ATOM     31  C   UNL     1       2.643   6.370   1.529  0.00  0.00    +0.005 A 
ATOM     32  C   UNL     1       2.202   7.496   2.197  0.00  0.00    +0.000 A 
ATOM     33  C   UNL     1       1.381   7.367   3.302  0.00  0.00    +0.000 A 
ATOM     34  C   UNL     1       1.000   6.112   3.737  0.00  0.00    +0.000 A 
ATOM     35  C   UNL     1       1.438   4.985   3.066  0.00  0.00    +0.005 A 
ENDBRANCH  29  30
ENDBRANCH  27  29
ENDBRANCH  24  25
ENDBRANCH  23  24
ENDBRANCH   6  23
TORSDOF 9
