REMARK  Name = ZINC64392169
REMARK  7 active torsions:
REMARK  status: ('A' for Active; 'I' for Inactive)
REMARK    1  A    between atoms: C_1  and  C_2
REMARK    2  A    between atoms: C_5  and  C_9
REMARK    3  A    between atoms: C_7  and  C_8
REMARK    4  A    between atoms: C_11  and  C_15
REMARK    5  A    between atoms: N_25  and  C_28
REMARK    6  A    between atoms: C_28  and  C_29
REMARK    7  A    between atoms: C_29  and  C_30
REMARK                            x       y       z     vdW  Elec       q    Type
REMARK                         _______ _______ _______ _____ _____    ______ ____
ROOT
ATOM      1  C   UNL     1       0.567  -7.069  -1.693  0.00  0.00    +0.006 A 
ATOM      2  C   UNL     1       1.494  -6.330  -2.412  0.00  0.00    +0.009 A 
ATOM      3  C   UNL     1       2.251  -6.928  -3.398  0.00  0.00    +0.016 A 
ATOM      4  C   UNL     1       2.077  -8.284  -3.668  0.00  0.00    +0.063 A 
ATOM      5  C   UNL     1       1.137  -9.032  -2.939  0.00  0.00    +0.056 A 
ATOM      6  C   UNL     1       0.390  -8.415  -1.948  0.00  0.00    +0.034 A 
ATOM      7  N   UNL     1       0.987 -10.380  -3.230  0.00  0.00    -0.307 N 
ATOM      8  H   UNL     1       0.341 -10.909  -2.735  0.00  0.00    +0.170 HD
ATOM      9  C   UNL     1       1.726 -10.960  -4.191  0.00  0.00    +0.330 A 
ATOM     10  O   UNL     1       1.563 -12.144  -4.415  0.00  0.00    -0.246 OA
ATOM     11  N   UNL     1       2.635 -10.289  -4.914  0.00  0.00    -0.260 N 
ATOM     12  C   UNL     1       2.860  -8.972  -4.710  0.00  0.00    +0.264 A 
ATOM     13  O   UNL     1       3.686  -8.371  -5.369  0.00  0.00    -0.267 OA
ENDROOT
BRANCH   1  16
ATOM     14  C   UNL     1       0.059  -4.253  -0.021  0.00  0.00    +0.134 C 
ATOM     15  N   UNL     1      -0.467  -4.986  -0.954  0.00  0.00    -0.339 N 
ATOM     16  C   UNL     1      -0.251  -6.399  -0.620  0.00  0.00    +0.274 C 
ATOM     17  O   UNL     1       0.467  -6.393   0.624  0.00  0.00    -0.243 OA
ATOM     18  N   UNL     1       0.642  -5.024   0.954  0.00  0.00    -0.247 N 
ATOM     19  H   UNL     1       1.097  -4.688   1.741  0.00  0.00    +0.196 HD
ATOM     20  H   UNL     1      -0.928  -4.655  -1.740  0.00  0.00    +0.164 HD
BRANCH  14  25
ATOM     21  C   UNL     1      -0.018   1.503   0.010  0.00  0.00    +0.044 C 
ATOM     22  C   UNL     1       0.002  -0.004   0.002  0.00  0.00    -0.047 A 
ATOM     23  C   UNL     1       0.006  -0.686  -1.202  0.00  0.00    +0.004 A 
ATOM     24  C   UNL     1       0.024  -2.066  -1.216  0.00  0.00    +0.012 A 
ATOM     25  C   UNL     1       0.040  -2.773  -0.013  0.00  0.00    +0.017 A 
ATOM     26  C   UNL     1       0.036  -2.079   1.196  0.00  0.00    +0.015 A 
ATOM     27  C   UNL     1       0.023  -0.699   1.198  0.00  0.00    -0.047 A 
ATOM     28  C   UNL     1       0.025   0.052   2.504  0.00  0.00    +0.044 C 
ENDBRANCH  14  25
ENDBRANCH   1  16
BRANCH  11  29
ATOM     29  C   UNL     1       3.400 -10.997  -5.944  0.00  0.00    +0.134 C 
BRANCH  29  30
ATOM     30  C   UNL     1       2.653 -10.920  -7.277  0.00  0.00    +0.057 C 
BRANCH  30  31
ATOM     31  C   UNL     1       3.439 -11.649  -8.336  0.00  0.00    -0.046 A 
ATOM     32  C   UNL     1       4.383 -10.971  -9.084  0.00  0.00    +0.004 A 
ATOM     33  C   UNL     1       5.104 -11.639 -10.056  0.00  0.00    +0.000 A 
ATOM     34  C   UNL     1       4.882 -12.985 -10.279  0.00  0.00    +0.000 A 
ATOM     35  C   UNL     1       3.938 -13.663  -9.530  0.00  0.00    +0.000 A 
ATOM     36  C   UNL     1       3.220 -12.996  -8.555  0.00  0.00    +0.004 A 
ENDBRANCH  30  31
ENDBRANCH  29  30
ENDBRANCH  11  29
TORSDOF 5
