REMARK  Name = ZINC15707407
REMARK  9 active torsions:
REMARK  status: ('A' for Active; 'I' for Inactive)
REMARK    1  A    between atoms: C_1  and  C_2
REMARK    2  A    between atoms: C_2  and  C_3
REMARK    3  A    between atoms: C_2  and  N_4
REMARK    4  A    between atoms: C_5  and  C_7
REMARK    5  A    between atoms: C_7  and  C_8
REMARK    6  A    between atoms: C_8  and  C_9
REMARK    7  A    between atoms: C_18  and  N_21
REMARK    8  A    between atoms: N_21  and  S_22
REMARK    9  A    between atoms: S_22  and  C_25
REMARK                            x       y       z     vdW  Elec       q    Type
REMARK                         _______ _______ _______ _____ _____    ______ ____
ROOT
ATOM      1  C   UNL     1       0.127   1.499   2.845  0.00  0.00    -0.050 C 
ATOM      2  C   UNL     1      -0.395   1.607   4.285  0.00  0.00    +0.089 C 
ATOM      3  N   UNL     1       0.648   1.362   5.262  0.00  0.00    -0.318 N 
ATOM      4  C   UNL     1       1.962   1.282   4.979  0.00  0.00    +0.200 C 
ATOM      5  O   UNL     1       2.779   1.193   5.872  0.00  0.00    -0.278 OA
ATOM      6  C   UNL     1       2.401   1.303   3.552  0.00  0.00    +0.021 C 
ATOM      7  C   UNL     1       2.072   2.335   1.500  0.00  0.00    -0.057 C 
ATOM      8  C   UNL     1       3.553   2.622   1.873  0.00  0.00    +0.059 C 
ATOM      9  C   UNL     1       3.745   1.975   3.270  0.00  0.00    +0.012 C 
ATOM     10  H   UNL     1       0.379   1.257   6.189  0.00  0.00    +0.149 HD
ATOM     11  N   UNL     1       1.488   2.147   2.843  0.00  0.00    +0.391 N 
ATOM     12  H   UNL     1       1.415   3.061   3.306  0.00  0.00    -0.080 HD
ENDROOT
BRANCH   8  13
ATOM     13  N   UNL     1       3.790   4.066   1.943  0.00  0.00    -0.189 NA
ATOM     14  H   UNL     1       3.518   4.564   2.729  0.00  0.00    +0.148 HD
BRANCH  13  15
ATOM     15  S   UNL     1       4.523   4.848   0.680  0.00  0.00    +0.059 S 
ATOM     16  O   UNL     1       4.553   6.227   1.019  0.00  0.00    -0.153 OA
ATOM     17  O   UNL     1       5.699   4.112   0.375  0.00  0.00    -0.153 OA
BRANCH  15  18
ATOM     18  C   UNL     1       3.457   4.695  -0.715  0.00  0.00    +0.105 A 
ATOM     19  C   UNL     1       3.532   3.576  -1.523  0.00  0.00    +0.028 A 
ATOM     20  C   UNL     1       2.693   3.455  -2.615  0.00  0.00    +0.002 A 
ATOM     21  C   UNL     1       1.786   4.457  -2.905  0.00  0.00    +0.000 A 
ATOM     22  C   UNL     1       1.714   5.578  -2.099  0.00  0.00    +0.002 A 
ATOM     23  C   UNL     1       2.550   5.697  -1.005  0.00  0.00    +0.028 A 
ENDBRANCH  15  18
ENDBRANCH  13  15
ENDBRANCH   8  13
BRANCH   1  24
ATOM     24  C   UNL     1      -0.835   2.205   1.888  0.00  0.00    -0.005 C 
BRANCH  24  25
ATOM     25  C   UNL     1      -2.167   1.452   1.858  0.00  0.00    +0.094 C 
BRANCH  25  27
ATOM     26  N   UNL     1      -4.263   1.508   0.545  0.00  0.00    -0.313 N 
ATOM     27  C   UNL     1      -3.071   2.073   0.824  0.00  0.00    +0.213 C 
ATOM     28  O   UNL     1      -2.726   3.079   0.242  0.00  0.00    -0.276 OA
ATOM     29  H   UNL     1      -4.568   0.742   1.055  0.00  0.00    +0.149 HD
BRANCH  26  31
ATOM     30  C   UNL     1      -4.615   1.512  -1.875  0.00  0.00    +0.027 C 
ATOM     31  C   UNL     1      -5.098   2.053  -0.528  0.00  0.00    +0.067 C 
ATOM     32  C   UNL     1      -6.553   1.637  -0.303  0.00  0.00    +0.027 C 
ENDBRANCH  26  31
ENDBRANCH  25  27
ENDBRANCH  24  25
ENDBRANCH   1  24
TORSDOF 7
