REMARK  Name = ZINC09009348
REMARK  6 active torsions:
REMARK  status: ('A' for Active; 'I' for Inactive)
REMARK    1  A    between atoms: C_1  and  C_2
REMARK    2  A    between atoms: C_5  and  N_9
REMARK    3  A    between atoms: C_7  and  C_8
REMARK    4  A    between atoms: C_11  and  N_25
REMARK    5  A    between atoms: C_12  and  N_24
REMARK    6  A    between atoms: N_16  and  C_17
REMARK                            x       y       z     vdW  Elec       q    Type
REMARK                         _______ _______ _______ _____ _____    ______ ____
ROOT
ATOM      1  N   UNL     1       4.687   0.918   0.310  0.00  0.00    -0.297 N 
ATOM      2  C   UNL     1       3.505   1.638   0.224  0.00  0.00    +0.160 A 
ATOM      3  C   UNL     1       3.506   3.020   0.396  0.00  0.00    +0.205 A 
ATOM      4  C   UNL     1       2.295   3.700   0.301  0.00  0.00    +0.154 A 
ATOM      5  N   UNL     1       1.183   3.012   0.051  0.00  0.00    -0.197 NA
ATOM      6  C   UNL     1       1.220   1.697  -0.107  0.00  0.00    +0.223 A 
ATOM      7  N   UNL     1       2.353   1.017  -0.018  0.00  0.00    -0.197 NA
ATOM      8  N   UNL     1       0.042   1.016  -0.365  0.00  0.00    -0.284 N 
ATOM      9  H   UNL     1       5.642   1.445   0.456  0.00  0.00    +0.154 HD
ATOM     10  H   UNL     1       0.040  -0.084  -0.403  0.00  0.00    +0.155 HD
ENDROOT
BRANCH   1  15
ATOM     11  C   UNL     1       4.600  -4.739  -0.088  0.00  0.00    +0.044 C 
ATOM     12  C   UNL     1       4.623  -3.236   0.018  0.00  0.00    -0.047 A 
ATOM     13  C   UNL     1       3.585  -2.572   0.645  0.00  0.00    +0.005 A 
ATOM     14  C   UNL     1       3.605  -1.195   0.749  0.00  0.00    +0.023 A 
ATOM     15  C   UNL     1       4.666  -0.476   0.212  0.00  0.00    +0.033 A 
ATOM     16  C   UNL     1       5.707  -1.145  -0.417  0.00  0.00    +0.027 A 
ATOM     17  C   UNL     1       5.683  -2.523  -0.512  0.00  0.00    -0.046 A 
ATOM     18  C   UNL     1       6.812  -3.250  -1.195  0.00  0.00    +0.044 C 
ENDBRANCH   1  15
BRANCH   8  19
ATOM     19  C   UNL     1      -1.144   1.726  -0.579  0.00  0.00    +0.034 A 
ATOM     20  C   UNL     1      -2.342   1.249  -0.063  0.00  0.00    +0.025 A 
ATOM     21  C   UNL     1      -3.511   1.954  -0.271  0.00  0.00    +0.022 A 
ATOM     22  C   UNL     1      -3.491   3.130  -1.001  0.00  0.00    +0.041 A 
ATOM     23  C   UNL     1      -2.300   3.604  -1.521  0.00  0.00    +0.022 A 
ATOM     24  C   UNL     1      -1.127   2.905  -1.311  0.00  0.00    +0.025 A 
ATOM     25 CL   UNL     1      -4.963   4.011  -1.266  0.00  0.00    -0.084 Cl
ENDBRANCH   8  19
BRANCH   4  26
ATOM     26  N   UNL     1       2.248   5.075   0.465  0.00  0.00    -0.341 N 
ATOM     27  H   UNL     1       1.287   5.606   0.389  0.00  0.00    +0.144 HD
ATOM     28  H   UNL     1       3.171   5.637   0.672  0.00  0.00    +0.144 HD
ENDBRANCH   4  26
BRANCH   3  29
ATOM     29  N   UNL     1       4.764   3.748   0.673  0.00  0.00    +0.063 N 
ATOM     30  O   UNL     1       5.128   3.918   1.823  0.00  0.00    -0.126 OA
ATOM     31  O   UNL     1       5.435   4.176  -0.248  0.00  0.00    -0.126 OA
ENDBRANCH   3  29
TORSDOF 4
