REMARK  Name = ZINC21006435
REMARK  5 active torsions:
REMARK  status: ('A' for Active; 'I' for Inactive)
REMARK    1  A    between atoms: C_3  and  O_29
REMARK    2  A    between atoms: C_4  and  N_15
REMARK    3  A    between atoms: C_6  and  S_7
REMARK    4  A    between atoms: S_7  and  N_10
REMARK    5  A    between atoms: C_16  and  C_18
REMARK                            x       y       z     vdW  Elec       q    Type
REMARK                         _______ _______ _______ _____ _____    ______ ____
ROOT
ATOM      1  C   UNL     1       6.322   8.462  -2.148  0.00  0.00    +0.032 A 
ATOM      2  C   UNL     1       7.069   7.735  -1.240  0.00  0.00    +0.049 A 
ATOM      3  C   UNL     1       6.485   6.693  -0.538  0.00  0.00    +0.138 A 
ATOM      4  C   UNL     1       5.147   6.374  -0.758  0.00  0.00    +0.077 A 
ATOM      5  C   UNL     1       4.404   7.108  -1.670  0.00  0.00    +0.055 A 
ATOM      6  C   UNL     1       4.993   8.149  -2.362  0.00  0.00    +0.107 A 
ENDROOT
BRANCH   4   7
ATOM      7  N   UNL     1       4.552   5.318  -0.054  0.00  0.00    -0.279 N 
ATOM      8  C   UNL     1       3.611   4.558  -0.649  0.00  0.00    +0.258 C 
ATOM      9  O   UNL     1       3.221   4.837  -1.763  0.00  0.00    -0.271 OA
ATOM     10  H   UNL     1       4.852   5.110   0.983  0.00  0.00    +0.155 HD
BRANCH   8  11
ATOM     11  C   UNL     1       3.043   3.361   0.070  0.00  0.00    +0.263 C 
ATOM     12  C   UNL     1       4.135   2.288   0.295  0.00  0.00    +0.093 C 
ATOM     13  C   UNL     1       3.352   1.002   0.115  0.00  0.00    -0.000 A 
ATOM     14  C   UNL     1       3.634  -0.306   0.443  0.00  0.00    +0.027 A 
ATOM     15  C   UNL     1       2.713  -1.302   0.168  0.00  0.00    +0.041 A 
ATOM     16  C   UNL     1       1.510  -0.977  -0.434  0.00  0.00    +0.023 A 
ATOM     17  C   UNL     1       1.227   0.332  -0.765  0.00  0.00    +0.047 A 
ATOM     18  C   UNL     1       2.151   1.339  -0.496  0.00  0.00    +0.125 A 
ATOM     19  O   UNL     1       2.086   2.674  -0.753  0.00  0.00    -0.479 OA
ATOM     20 CL   UNL     1       3.065  -2.952   0.577  0.00  0.00    -0.084 Cl
ENDBRANCH   8  11
ENDBRANCH   4   7
BRANCH   6  21
ATOM     21  S   UNL     1       4.047   9.080  -3.522  0.00  0.00    +0.061 S 
ATOM     22  O   UNL     1       4.973   9.649  -4.437  0.00  0.00    -0.153 OA
ATOM     23  O   UNL     1       2.979   8.242  -3.941  0.00  0.00    -0.153 OA
BRANCH  21  24
ATOM     24  N   UNL     1       3.363  10.341  -2.695  0.00  0.00    -0.177 NA
ATOM     25  C   UNL     1       2.049  10.320  -2.035  0.00  0.00    +0.109 C 
ATOM     26  C   UNL     1       1.823  11.717  -1.419  0.00  0.00    +0.018 C 
ATOM     27  C   UNL     1       2.766  12.620  -2.257  0.00  0.00    +0.018 C 
ATOM     28  C   UNL     1       3.966  11.672  -2.505  0.00  0.00    +0.109 C 
ENDBRANCH  21  24
ENDBRANCH   6  21
BRANCH   3  29
ATOM     29  O   UNL     1       7.217   5.981   0.360  0.00  0.00    -0.505 OA
ATOM     30  H   UNL     1       6.752   5.154   0.916  0.00  0.00    +0.292 HD
ENDBRANCH   3  29
TORSDOF 5
