REMARK  Name = ZINC22851836
REMARK  5 active torsions:
REMARK  status: ('A' for Active; 'I' for Inactive)
REMARK    1  A    between atoms: C_1  and  C_2
REMARK    2  A    between atoms: N_7  and  C_9
REMARK    3  A    between atoms: C_9  and  C_11
REMARK    4  A    between atoms: C_9  and  C_18
REMARK    5  A    between atoms: C_24  and  C_26
REMARK                            x       y       z     vdW  Elec       q    Type
REMARK                         _______ _______ _______ _____ _____    ______ ____
ROOT
ATOM      1  C   UNL     1      -1.292  -0.775   0.011  0.00  0.00    +0.007 C 
ENDROOT
BRANCH   1   2
ATOM      2  C   UNL     1      -1.647  -1.147   1.428  0.00  0.00    +0.050 A 
ATOM      3  C   UNL     1      -1.562  -2.336   2.035  0.00  0.00    +0.282 A 
ATOM      4  N   UNL     1      -1.932  -2.480   3.350  0.00  0.00    -0.169 N 
ATOM      5  C   UNL     1      -2.395  -1.365   3.993  0.00  0.00    +0.200 A 
ATOM      6  S   UNL     1      -2.296  -0.115   2.733  0.00  0.00    -0.050 S 
ATOM      7  N   UNL     1      -2.708  -1.664   5.222  0.00  0.00    -0.197 NA
ATOM      8  C   UNL     1      -2.469  -2.965   5.436  0.00  0.00    +0.218 A 
ATOM      9  N   UNL     1      -1.998  -3.502   4.332  0.00  0.00    -0.138 NA
ATOM     10  O   UNL     1      -1.101  -3.413   1.343  0.00  0.00    -0.265 OA
BRANCH   8  11
ATOM     11  C   UNL     1      -2.697  -3.681   6.709  0.00  0.00    +0.173 A 
ATOM     12  C   UNL     1      -3.183  -3.135   7.855  0.00  0.00    +0.053 A 
ATOM     13  C   UNL     1      -3.236  -4.172   8.808  0.00  0.00    +0.042 A 
ATOM     14  C   UNL     1      -2.785  -5.288   8.202  0.00  0.00    +0.196 A 
ATOM     15  O   UNL     1      -2.465  -4.989   6.933  0.00  0.00    -0.460 OA
ENDBRANCH   8  11
ENDBRANCH   1   2
BRANCH   1  21
ATOM     16  C   UNL     1      -6.087  -0.477  -1.048  0.00  0.00    +0.005 C 
ATOM     17  C   UNL     1      -4.756   0.279  -1.025  0.00  0.00    -0.031 C 
ATOM     18  C   UNL     1      -4.434   0.789  -2.432  0.00  0.00    -0.001 C 
ATOM     19  C   UNL     1      -3.073   1.491  -2.412  0.00  0.00    -0.018 C 
ATOM     20  C   UNL     1      -2.008   0.514  -1.909  0.00  0.00    -0.077 C 
ATOM     21  N   UNL     1      -2.361   0.055  -0.560  0.00  0.00    +0.388 N 
ATOM     22  C   UNL     1      -3.642  -0.663  -0.562  0.00  0.00    -0.074 C 
ATOM     23  H   UNL     1      -2.477   0.945   0.078  0.00  0.00    -0.080 HD
ENDBRANCH   1  21
BRANCH   1  24
ATOM     24  C   UNL     1       0.002  -0.004   0.002  0.00  0.00    -0.038 A 
ATOM     25  C   UNL     1      -0.017   1.378   0.010  0.00  0.00    +0.004 A 
ATOM     26  C   UNL     1       1.171   2.086   0.002  0.00  0.00    +0.000 A 
ATOM     27  C   UNL     1       2.378   1.412  -0.013  0.00  0.00    +0.001 A 
ATOM     28  C   UNL     1       2.398   0.030  -0.021  0.00  0.00    +0.020 A 
ATOM     29  C   UNL     1       1.209  -0.679  -0.013  0.00  0.00    +0.043 A 
ATOM     30 CL   UNL     1       1.234  -2.415  -0.023  0.00  0.00    -0.083 Cl
ENDBRANCH   1  24
TORSDOF 4
