REMARK  Name = ZINC11999689
REMARK  13 active torsions:
REMARK  status: ('A' for Active; 'I' for Inactive)
REMARK    1  A    between atoms: C_1  and  C_2
REMARK    2  A    between atoms: C_2  and  C_3
REMARK    3  A    between atoms: C_2  and  C_4
REMARK    4  A    between atoms: C_2  and  C_33
REMARK    5  A    between atoms: C_4  and  N_5
REMARK    6  A    between atoms: C_6  and  C_8
REMARK    7  A    between atoms: N_10  and  C_26
REMARK    8  A    between atoms: C_12  and  C_15
REMARK    9  A    between atoms: N_17  and  C_18
REMARK   10  A    between atoms: C_26  and  C_27
REMARK   11  A    between atoms: C_33  and  N_79
REMARK   12  A    between atoms: C_34  and  N_79
REMARK   13  A    between atoms: C_35  and  N_79
REMARK                            x       y       z     vdW  Elec       q    Type
REMARK                         _______ _______ _______ _____ _____    ______ ____
ROOT
ATOM      1  C   UNL     1       7.652  -1.004   3.398  0.00  0.00    +0.100 A 
ATOM      2  C   UNL     1       7.693  -0.058   2.398  0.00  0.00    +0.102 A 
ATOM      3  N   UNL     1       6.575   0.350   1.774  0.00  0.00    -0.349 N 
ATOM      4  C   UNL     1       5.352  -0.122   2.067  0.00  0.00    +0.102 A 
ATOM      5  C   UNL     1       5.165  -1.073   3.046  0.00  0.00    +0.100 A 
ATOM      6  C   UNL     1       6.344  -1.564   3.778  0.00  0.00    +0.206 A 
ATOM      7  O   UNL     1       6.242  -2.401   4.659  0.00  0.00    -0.286 OA
ENDROOT
BRANCH   1   9
ATOM      8  N   UNL     1      10.073  -0.915   3.716  0.00  0.00    -0.311 N 
ATOM      9  C   UNL     1       8.886  -1.442   4.074  0.00  0.00    +0.249 C 
ATOM     10  O   UNL     1       8.832  -2.279   4.955  0.00  0.00    -0.270 OA
ATOM     11  H   UNL     1      10.116  -0.248   3.014  0.00  0.00    +0.149 HD
BRANCH   8  12
ATOM     12  C   UNL     1      11.300  -1.351   4.389  0.00  0.00    +0.109 C 
BRANCH  12  14
ATOM     13  C   UNL     1      12.601  -0.907   2.302  0.00  0.00    +0.010 C 
ATOM     14  C   UNL     1      12.498  -0.604   3.799  0.00  0.00    -0.034 C 
ATOM     15  C   UNL     1      12.311   0.901   4.002  0.00  0.00    +0.010 C 
BRANCH  14  16
ATOM     16  C   UNL     1      13.779  -1.058   4.500  0.00  0.00    -0.072 C 
BRANCH  16  19
ATOM     17  C   UNL     1      14.443  -1.902   6.671  0.00  0.00    -0.097 C 
ATOM     18  C   UNL     1      13.922   0.447   6.392  0.00  0.00    -0.097 C 
ATOM     19  N   UNL     1      13.588  -0.927   5.960  0.00  0.00    +0.376 N 
ATOM     20  H   UNL     1      12.605  -1.119   6.187  0.00  0.00    -0.083 HD
ENDBRANCH  16  19
ENDBRANCH  14  16
ENDBRANCH  12  14
ENDBRANCH   8  12
ENDBRANCH   1   9
BRANCH   5  21
ATOM     21  C   UNL     1       3.817  -1.581   3.357  0.00  0.00    +0.249 C 
ATOM     22  O   UNL     1       3.669  -2.420   4.224  0.00  0.00    -0.270 OA
ATOM     23  N   UNL     1       2.749  -1.116   2.680  0.00  0.00    -0.308 N 
ATOM     24  H   UNL     1       2.867  -0.446   1.988  0.00  0.00    +0.149 HD
BRANCH  23  25
ATOM     25  C   UNL     1       1.409  -1.621   2.989  0.00  0.00    +0.073 C 
ATOM     26  C   UNL     1       0.824  -0.832   4.162  0.00  0.00    +0.022 C 
ATOM     27  C   UNL     1      -0.372  -1.591   4.741  0.00  0.00    +0.002 C 
ATOM     28  C   UNL     1      -0.026  -3.076   4.859  0.00  0.00    +0.000 C 
ATOM     29  C   UNL     1      -0.885  -3.879   3.881  0.00  0.00    +0.000 C 
ATOM     30  C   UNL     1      -0.343  -3.700   2.461  0.00  0.00    +0.000 C 
ATOM     31  C   UNL     1      -0.744  -2.322   1.932  0.00  0.00    +0.002 C 
ATOM     32  C   UNL     1       0.507  -1.457   1.764  0.00  0.00    +0.022 C 
ENDBRANCH  23  25
ENDBRANCH   5  21
BRANCH   3  33
ATOM     33  C   UNL     1       6.697   1.361   0.721  0.00  0.00    +0.152 C 
BRANCH  33  34
ATOM     34  C   UNL     1       6.572   2.756   1.337  0.00  0.00    +0.138 C 
ATOM     35  C   UNL     1       6.752   3.843   0.247  0.00  0.00    +0.035 C 
ATOM     36  C   UNL     1       5.979   5.030   0.884  0.00  0.00    +0.031 C 
ATOM     37  C   UNL     1       4.837   4.313   1.635  0.00  0.00    +0.160 C 
ATOM     38  O   UNL     1       5.246   2.957   1.851  0.00  0.00    -0.375 OA
ENDBRANCH  33  34
ENDBRANCH   3  33
TORSDOF 9
