REMARK  Name = ZINC26538820
REMARK  11 active torsions:
REMARK  status: ('A' for Active; 'I' for Inactive)
REMARK    1  A    between atoms: C_1  and  C_2
REMARK    2  A    between atoms: C_2  and  C_3
REMARK    3  A    between atoms: C_3  and  C_4
REMARK    4  A    between atoms: C_4  and  C_6
REMARK    5  A    between atoms: C_4  and  N_23
REMARK    6  A    between atoms: N_8  and  N_9
REMARK    7  A    between atoms: C_10  and  C_12
REMARK    8  A    between atoms: C_12  and  C_13
REMARK    9  A    between atoms: N_21  and  C_22
REMARK   10  A    between atoms: N_26  and  C_27
REMARK   11  A    between atoms: C_27  and  C_28
REMARK                            x       y       z     vdW  Elec       q    Type
REMARK                         _______ _______ _______ _____ _____    ______ ____
ROOT
ATOM      1  C   UNL     1       1.147   1.655   0.000  0.00  0.00    +0.249 C 
ATOM      2  O   UNL     1       1.130   2.868   0.007  0.00  0.00    -0.272 OA
ATOM      3  N   UNL     1      -0.011   0.966   0.007  0.00  0.00    -0.233 N 
ATOM      4  H   UNL     1       0.004  -0.134   0.006  0.00  0.00    +0.173 HD
ENDROOT
BRANCH   3   5
ATOM      5  N   UNL     1      -1.234   1.650   0.017  0.00  0.00    -0.234 N 
ATOM      6  C   UNL     1      -2.392   0.960   0.019  0.00  0.00    +0.236 C 
ATOM      7  O   UNL     1      -2.375  -0.253   0.012  0.00  0.00    -0.274 OA
ATOM      8  H   UNL     1      -1.249   2.750   0.023  0.00  0.00    +0.173 HD
BRANCH   6   9
ATOM      9  C   UNL     1      -3.707   1.696   0.029  0.00  0.00    +0.171 C 
BRANCH   9  10
ATOM     10  C   UNL     1      -4.839   0.701   0.029  0.00  0.00    +0.119 A 
ATOM     11  N   UNL     1      -5.408   0.219  -1.038  0.00  0.00    -0.232 NA
ATOM     12  C   UNL     1      -6.387  -0.651  -0.679  0.00  0.00    +0.089 A 
ATOM     13  C   UNL     1      -7.290  -1.436  -1.401  0.00  0.00    +0.030 A 
ATOM     14  C   UNL     1      -8.184  -2.228  -0.738  0.00  0.00    +0.002 A 
ATOM     15  C   UNL     1      -8.207  -2.262   0.649  0.00  0.00    +0.002 A 
ATOM     16  C   UNL     1      -7.326  -1.496   1.381  0.00  0.00    +0.028 A 
ATOM     17  C   UNL     1      -6.410  -0.685   0.725  0.00  0.00    +0.069 A 
ATOM     18  N   UNL     1      -5.419   0.180   1.144  0.00  0.00    -0.330 N 
ATOM     19  C   UNL     1      -5.059   0.482   2.531  0.00  0.00    +0.150 C 
ENDBRANCH   9  10
ENDBRANCH   6   9
ENDBRANCH   3   5
BRANCH   1  20
ATOM     20  C   UNL     1       2.462   0.920  -0.017  0.00  0.00    +0.162 C 
BRANCH  20  21
ATOM     21  N   UNL     1       3.562   1.887  -0.022  0.00  0.00    -0.288 N 
ATOM     22  C   UNL     1       4.762   1.540  -0.528  0.00  0.00    +0.300 C 
ATOM     23  O   UNL     1       4.931   0.424  -0.981  0.00  0.00    -0.253 OA
ATOM     24  N   UNL     1       5.774   2.429  -0.533  0.00  0.00    -0.295 N 
ATOM     25  H   UNL     1       3.409   2.896   0.388  0.00  0.00    +0.151 HD
ATOM     26  H   UNL     1       5.622   3.439  -0.124  0.00  0.00    +0.151 HD
BRANCH  24  27
ATOM     27  C   UNL     1       7.079   2.052  -1.084  0.00  0.00    +0.141 C 
BRANCH  27  28
ATOM     28  C   UNL     1       8.028   3.217  -0.971  0.00  0.00    -0.030 A 
ATOM     29  C   UNL     1       8.123   4.134  -2.001  0.00  0.00    +0.008 A 
ATOM     30  C   UNL     1       8.989   5.205  -1.896  0.00  0.00    +0.038 A 
ATOM     31  C   UNL     1       9.771   5.354  -0.762  0.00  0.00    +0.123 A 
ATOM     32  C   UNL     1       9.679   4.433   0.267  0.00  0.00    +0.038 A 
ATOM     33  C   UNL     1       8.807   3.365   0.162  0.00  0.00    +0.008 A 
ATOM     34  F   UNL     1      10.622   6.399  -0.661  0.00  0.00    -0.205 F 
ENDBRANCH  27  28
ENDBRANCH  24  27
ENDBRANCH  20  21
BRANCH  20  35
ATOM     35  C   UNL     1       2.567   0.035   1.227  0.00  0.00    +0.031 C 
BRANCH  35  37
ATOM     36  C   UNL     1       3.948  -1.690   2.393  0.00  0.00    +0.004 C 
ATOM     37  C   UNL     1       3.843  -0.805   1.149  0.00  0.00    -0.001 C 
ENDBRANCH  35  37
ENDBRANCH  20  35
ENDBRANCH   1  20
TORSDOF 9
