REMARK  Name = ZINC16636908
REMARK  5 active torsions:
REMARK  status: ('A' for Active; 'I' for Inactive)
REMARK    1  A    between atoms: C_4  and  C_7
REMARK    2  A    between atoms: C_7  and  C_8
REMARK    3  A    between atoms: C_7  and  N_14
REMARK    4  A    between atoms: C_15  and  C_17
REMARK    5  A    between atoms: C_17  and  C_18
REMARK                            x       y       z     vdW  Elec       q    Type
REMARK                         _______ _______ _______ _____ _____    ______ ____
ROOT
ATOM      1  N   UNL     1      -0.698   1.558   1.213  0.00  0.00    -0.304 N 
ATOM      2  C   UNL     1      -0.575   0.877   2.369  0.00  0.00    +0.215 C 
ATOM      3  O   UNL     1       0.103  -0.128   2.412  0.00  0.00    -0.276 OA
ATOM      4  H   UNL     1      -1.241   2.362   1.179  0.00  0.00    +0.150 HD
ENDROOT
BRANCH   1   5
ATOM      5  C   UNL     1      -0.013   1.086   0.008  0.00  0.00    +0.134 C 
BRANCH   5   9
ATOM      6  C   UNL     1       3.995   2.565  -0.023  0.00  0.00    +0.000 A 
ATOM      7  C   UNL     1       3.732   1.272  -0.437  0.00  0.00    +0.000 A 
ATOM      8  C   UNL     1       2.435   0.793  -0.426  0.00  0.00    +0.006 A 
ATOM      9  C   UNL     1       1.401   1.607  -0.003  0.00  0.00    -0.023 A 
ATOM     10  C   UNL     1       1.663   2.902   0.406  0.00  0.00    +0.006 A 
ATOM     11  C   UNL     1       2.961   3.379   0.401  0.00  0.00    +0.000 A 
ENDBRANCH   5   9
BRANCH   5  12
ATOM     12  C   UNL     1      -0.742   1.585  -1.213  0.00  0.00    -0.023 A 
ATOM     13  C   UNL     1      -1.257   2.868  -1.234  0.00  0.00    +0.006 A 
ATOM     14  C   UNL     1      -1.922   3.327  -2.356  0.00  0.00    +0.000 A 
ATOM     15  C   UNL     1      -2.079   2.501  -3.452  0.00  0.00    +0.000 A 
ATOM     16  C   UNL     1      -1.568   1.216  -3.429  0.00  0.00    +0.000 A 
ATOM     17  C   UNL     1      -0.899   0.759  -2.310  0.00  0.00    +0.006 A 
ENDBRANCH   5  12
ENDBRANCH   1   5
BRANCH   2  18
ATOM     18  C   UNL     1      -1.281   1.363   3.609  0.00  0.00    +0.119 C 
BRANCH  18  19
ATOM     19  C   UNL     1      -0.978   0.416   4.773  0.00  0.00    +0.146 C 
ATOM     20  C   UNL     1      -1.777   0.827   5.982  0.00  0.00    +0.231 C 
ATOM     21  O   UNL     1      -2.811   0.238   6.218  0.00  0.00    -0.274 OA
ATOM     22  N   UNL     1      -1.404   1.804   6.803  0.00  0.00    -0.284 N 
ATOM     23  C   UNL     1      -0.208   2.514   6.762  0.00  0.00    +0.047 A 
ATOM     24  C   UNL     1      -0.098   3.706   7.470  0.00  0.00    +0.024 A 
ATOM     25  C   UNL     1       1.077   4.430   7.439  0.00  0.00    +0.002 A 
ATOM     26  C   UNL     1       2.162   3.974   6.712  0.00  0.00    +0.001 A 
ATOM     27  C   UNL     1       2.074   2.781   6.019  0.00  0.00    +0.016 A 
ATOM     28  C   UNL     1       0.898   2.049   6.050  0.00  0.00    +0.030 A 
ATOM     29  S   UNL     1       0.790   0.509   5.193  0.00  0.00    -0.110 S 
ATOM     30  H   UNL     1      -2.030   2.046   7.503  0.00  0.00    +0.155 HD
ENDBRANCH  18  19
ENDBRANCH   2  18
TORSDOF 5
