REMARK  Name = ZINC66444010
REMARK  10 active torsions:
REMARK  status: ('A' for Active; 'I' for Inactive)
REMARK    1  A    between atoms: C_1  and  C_2
REMARK    2  A    between atoms: C_5  and  C_9
REMARK    3  A    between atoms: C_6  and  C_8
REMARK    4  A    between atoms: C_9  and  C_10
REMARK    5  A    between atoms: C_10  and  C_12
REMARK    6  A    between atoms: C_10  and  N_13
REMARK    7  A    between atoms: C_14  and  C_16
REMARK    8  A    between atoms: C_16  and  C_18
REMARK    9  A    between atoms: C_16  and  N_25
REMARK   10  A    between atoms: C_18  and  C_19
REMARK                            x       y       z     vdW  Elec       q    Type
REMARK                         _______ _______ _______ _____ _____    ______ ____
ROOT
ATOM      1  N   UNL     1      -2.602  -4.318   1.758  0.00  0.00    -0.311 N 
ATOM      2  C   UNL     1      -3.904  -3.969   1.733  0.00  0.00    +0.234 C 
ATOM      3  O   UNL     1      -4.569  -4.180   0.741  0.00  0.00    -0.274 OA
ATOM      4  H   UNL     1      -2.070  -4.149   2.551  0.00  0.00    +0.149 HD
ENDROOT
BRANCH   1   5
ATOM      5  C   UNL     1      -1.990  -4.951   0.587  0.00  0.00    +0.074 C 
ATOM      6  C   UNL     1      -2.220  -6.463   0.647  0.00  0.00    +0.028 C 
BRANCH   5   7
ATOM      7  C   UNL     1      -0.488  -4.663   0.578  0.00  0.00    +0.057 C 
BRANCH   7  12
ATOM      8  C   UNL     1       0.386   1.003  -0.144  0.00  0.00    +0.044 C 
ATOM      9  C   UNL     1       0.158  -0.475   0.044  0.00  0.00    -0.050 A 
ATOM     10  C   UNL     1       0.245  -1.032   1.307  0.00  0.00    +0.003 A 
ATOM     11  C   UNL     1       0.036  -2.388   1.479  0.00  0.00    +0.004 A 
ATOM     12  C   UNL     1      -0.261  -3.186   0.390  0.00  0.00    -0.043 A 
ATOM     13  C   UNL     1      -0.348  -2.628  -0.872  0.00  0.00    -0.047 A 
ATOM     14  C   UNL     1      -0.143  -1.272  -1.044  0.00  0.00    +0.007 A 
ATOM     15  C   UNL     1      -0.671  -3.498  -2.059  0.00  0.00    +0.044 C 
ENDBRANCH   7  12
ENDBRANCH   5   7
ENDBRANCH   1   5
BRANCH   2  16
ATOM     16  C   UNL     1      -4.532  -3.317   2.937  0.00  0.00    +0.165 C 
BRANCH  16  17
ATOM     17  N   UNL     1      -5.988  -3.468   2.869  0.00  0.00    -0.288 N 
ATOM     18  C   UNL     1      -6.671  -2.954   1.827  0.00  0.00    +0.298 C 
ATOM     19  O   UNL     1      -6.079  -2.366   0.943  0.00  0.00    -0.253 OA
ATOM     20  N   UNL     1      -8.010  -3.093   1.765  0.00  0.00    -0.313 N 
ATOM     21  H   UNL     1      -6.460  -3.938   3.575  0.00  0.00    +0.151 HD
ATOM     22  H   UNL     1      -8.483  -3.563   2.471  0.00  0.00    +0.146 HD
ATOM     23  H   UNL     1      -8.502  -2.724   1.015  0.00  0.00    +0.146 HD
ENDBRANCH  16  17
BRANCH  16  24
ATOM     24  C   UNL     1      -4.174  -1.830   2.957  0.00  0.00    +0.067 C 
BRANCH  24  25
ATOM     25  C   UNL     1      -4.699  -1.204   4.223  0.00  0.00    -0.045 A 
ATOM     26  C   UNL     1      -5.972  -0.666   4.253  0.00  0.00    +0.004 A 
ATOM     27  C   UNL     1      -6.454  -0.092   5.414  0.00  0.00    +0.000 A 
ATOM     28  C   UNL     1      -5.662  -0.056   6.547  0.00  0.00    +0.000 A 
ATOM     29  C   UNL     1      -4.389  -0.594   6.518  0.00  0.00    +0.000 A 
ATOM     30  C   UNL     1      -3.909  -1.172   5.358  0.00  0.00    +0.004 A 
ENDBRANCH  24  25
ENDBRANCH  16  24
ENDBRANCH   2  16
TORSDOF 7
