REMARK  Name = ZINC20528176
REMARK  7 active torsions:
REMARK  status: ('A' for Active; 'I' for Inactive)
REMARK    1  A    between atoms: C_5  and  C_7
REMARK    2  A    between atoms: N_8  and  N_9
REMARK    3  A    between atoms: C_13  and  S_16
REMARK    4  A    between atoms: N_14  and  N_15
REMARK    5  A    between atoms: S_16  and  C_17
REMARK    6  A    between atoms: C_17  and  C_18
REMARK    7  A    between atoms: N_20  and  C_21
REMARK                            x       y       z     vdW  Elec       q    Type
REMARK                         _______ _______ _______ _____ _____    ______ ____
ROOT
ATOM      1  N   UNL     1      -3.756   5.854   0.134  0.00  0.00    -0.204 N 
ATOM      2  C   UNL     1      -3.769   7.242   0.131  0.00  0.00    +0.254 A 
ATOM      3  N   UNL     1      -2.716   8.022   0.128  0.00  0.00    -0.109 NA
ATOM      4  N   UNL     1      -3.162   9.351   0.122  0.00  0.00    -0.119 NA
ATOM      5  C   UNL     1      -4.473   9.338   0.131  0.00  0.00    +0.210 A 
ATOM      6  N   UNL     1      -4.883   8.034   0.136  0.00  0.00    -0.211 N 
ATOM      7  H   UNL     1      -4.703   5.295   0.141  0.00  0.00    +0.177 HD
ENDROOT
BRANCH   6   8
ATOM      8  N   UNL     1      -6.178   7.600   0.145  0.00  0.00    -0.294 N 
ATOM      9  H   UNL     1      -7.002   8.328   0.148  0.00  0.00    +0.163 HD
ATOM     10  H   UNL     1      -6.396   6.522   0.149  0.00  0.00    +0.163 HD
ENDBRANCH   6   8
BRANCH   1  12
ATOM     11  C   UNL     1      -2.523   3.867   0.131  0.00  0.00    +0.141 C 
ATOM     12  N   UNL     1      -2.536   5.166   0.128  0.00  0.00    -0.187 NA
BRANCH  11  17
ATOM     13  C   UNL     1      -0.017   1.074   0.120  0.00  0.00    +0.001 A 
ATOM     14  C   UNL     1       1.174   1.780   0.112  0.00  0.00    +0.003 A 
ATOM     15  C   UNL     1       1.166   3.163   0.109  0.00  0.00    +0.039 A 
ATOM     16  C   UNL     1      -0.033   3.850   0.115  0.00  0.00    +0.132 A 
ATOM     17  C   UNL     1      -1.239   3.142   0.124  0.00  0.00    +0.030 A 
ATOM     18  C   UNL     1      -1.222   1.745   0.121  0.00  0.00    +0.012 A 
ATOM     19  F   UNL     1      -0.039   5.201   0.112  0.00  0.00    -0.205 F 
ENDBRANCH  11  17
ENDBRANCH   1  12
BRANCH   5  20
ATOM     20  S   UNL     1      -5.523  10.753   0.135  0.00  0.00    -0.075 S 
BRANCH  20  21
ATOM     21  C   UNL     1      -4.371  12.154   0.124  0.00  0.00    +0.173 C 
BRANCH  21  22
ATOM     22  C   UNL     1      -5.149  13.444   0.127  0.00  0.00    +0.228 C 
ATOM     23  O   UNL     1      -6.362  13.421   0.134  0.00  0.00    -0.275 OA
ATOM     24  N   UNL     1      -4.497  14.624   0.120  0.00  0.00    -0.284 N 
ATOM     25  H   UNL     1      -3.400  14.647   0.187  0.00  0.00    +0.155 HD
BRANCH  24  26
ATOM     26  C   UNL     1      -5.218  15.821   0.027  0.00  0.00    +0.052 A 
ATOM     27  C   UNL     1      -6.463  15.932   0.631  0.00  0.00    +0.026 A 
ATOM     28  C   UNL     1      -7.172  17.114   0.539  0.00  0.00    +0.022 A 
ATOM     29  C   UNL     1      -6.642  18.188  -0.154  0.00  0.00    +0.042 A 
ATOM     30  C   UNL     1      -5.401  18.081  -0.757  0.00  0.00    +0.041 A 
ATOM     31  C   UNL     1      -4.685  16.902  -0.664  0.00  0.00    +0.064 A 
ATOM     32 CL   UNL     1      -3.126  16.771  -1.415  0.00  0.00    -0.082 Cl
ATOM     33 CL   UNL     1      -7.535  19.672  -0.268  0.00  0.00    -0.083 Cl
ENDBRANCH  24  26
ENDBRANCH  21  22
ENDBRANCH  20  21
ENDBRANCH   5  20
TORSDOF 7
