REMARK  Name = ZINC36207664
REMARK  13 active torsions:
REMARK  status: ('A' for Active; 'I' for Inactive)
REMARK    1  A    between atoms: C_1  and  C_2
REMARK    2  A    between atoms: C_7  and  C_8
REMARK    3  A    between atoms: C_17  and  C_19
REMARK    4  A    between atoms: C_19  and  N_20
REMARK    5  A    between atoms: N_20  and  C_21
REMARK    6  A    between atoms: N_20  and  C_28
REMARK    7  A    between atoms: C_21  and  C_22
REMARK    8  A    between atoms: C_28  and  C_29
REMARK    9  A    between atoms: C_29  and  C_31
REMARK   10  A    between atoms: C_29  and  O_36
REMARK   11  A    between atoms: C_31  and  O_32
REMARK   12  A    between atoms: O_32  and  C_33
REMARK   13  A    between atoms: C_33  and  C_34
REMARK                            x       y       z     vdW  Elec       q    Type
REMARK                         _______ _______ _______ _____ _____    ______ ____
ROOT
ATOM      1  C   UNL     1      -3.981   3.384   4.529  0.00  0.00    -0.003 C 
ENDROOT
BRANCH   1  11
ATOM      2  C   UNL     1      -4.138   7.979   1.160  0.00  0.00    +0.004 A 
ATOM      3  C   UNL     1      -3.653   9.087   1.771  0.00  0.00    +0.056 A 
ATOM      4  S   UNL     1      -3.191   8.497   3.389  0.00  0.00    -0.076 S 
ATOM      5  C   UNL     1      -3.655   6.794   3.209  0.00  0.00    +0.116 A 
ATOM      6  C   UNL     1      -4.162   6.724   1.901  0.00  0.00    +0.080 A 
ATOM      7  C   UNL     1      -4.624   5.434   1.484  0.00  0.00    +0.260 A 
ATOM      8  O   UNL     1      -5.077   5.272   0.364  0.00  0.00    -0.267 OA
ATOM      9  N   UNL     1      -4.549   4.404   2.347  0.00  0.00    -0.312 N 
ATOM     10  H   UNL     1      -4.860   3.528   2.070  0.00  0.00    +0.170 HD
ATOM     11  C   UNL     1      -4.045   4.567   3.597  0.00  0.00    +0.094 A 
ATOM     12  N   UNL     1      -3.608   5.728   4.004  0.00  0.00    -0.229 NA
BRANCH   2  19
ATOM     13  C   UNL     1      -6.941   7.503   0.624  0.00  0.00    +0.044 C 
ATOM     14  C   UNL     1      -5.989   7.816  -0.502  0.00  0.00    -0.043 A 
ATOM     15  C   UNL     1      -6.452   7.883  -1.800  0.00  0.00    +0.004 A 
ATOM     16  C   UNL     1      -5.579   8.170  -2.834  0.00  0.00    +0.000 A 
ATOM     17  C   UNL     1      -4.238   8.391  -2.574  0.00  0.00    +0.001 A 
ATOM     18  C   UNL     1      -3.764   8.326  -1.280  0.00  0.00    +0.009 A 
ATOM     19  C   UNL     1      -4.640   8.044  -0.233  0.00  0.00    -0.014 A 
ENDBRANCH   2  19
ENDBRANCH   1  11
BRANCH   1  20
ATOM     20  N   UNL     1      -3.539   3.830   5.857  0.00  0.00    +0.389 N 
ATOM     21  H   UNL     1      -2.679   4.349   5.768  0.00  0.00    -0.081 HD
BRANCH  20  22
ATOM     22  C   UNL     1      -3.320   2.661   6.719  0.00  0.00    -0.042 C 
BRANCH  22  23
ATOM     23  C   UNL     1      -2.171   1.848   6.179  0.00  0.00    -0.064 A 
ATOM     24  C   UNL     1      -2.419   0.752   5.373  0.00  0.00    +0.002 A 
ATOM     25  C   UNL     1      -1.365   0.007   4.878  0.00  0.00    +0.000 A 
ATOM     26  C   UNL     1      -0.065   0.357   5.188  0.00  0.00    +0.000 A 
ATOM     27  C   UNL     1       0.183   1.453   5.993  0.00  0.00    +0.000 A 
ATOM     28  C   UNL     1      -0.870   2.201   6.485  0.00  0.00    +0.002 A 
ENDBRANCH  22  23
ENDBRANCH  20  22
BRANCH  20  29
ATOM     29  C   UNL     1      -4.571   4.691   6.453  0.00  0.00    -0.044 C 
BRANCH  29  30
ATOM     30  C   UNL     1      -4.059   5.256   7.779  0.00  0.00    +0.124 C 
BRANCH  30  31
ATOM     31  O   UNL     1      -2.945   6.116   7.533  0.00  0.00    -0.391 OA
ATOM     32  H   UNL     1      -3.149   6.869   6.962  0.00  0.00    +0.210 HD
ENDBRANCH  30  31
BRANCH  30  33
ATOM     33  C   UNL     1      -5.176   6.050   8.460  0.00  0.00    +0.190 C 
BRANCH  33  34
ATOM     34  O   UNL     1      -4.738   6.479   9.750  0.00  0.00    -0.365 OA
BRANCH  34  35
ATOM     35  C   UNL     1      -5.712   7.234  10.474  0.00  0.00    +0.248 C 
BRANCH  35  36
ATOM     36  C   UNL     1      -5.159   7.623  11.781  0.00  0.00    -0.077 C 
ATOM     37  C   UNL     1      -4.718   7.933  12.824  0.00  0.00    +0.006 C 
ENDBRANCH  35  36
ENDBRANCH  34  35
ENDBRANCH  33  34
ENDBRANCH  30  33
ENDBRANCH  29  30
ENDBRANCH  20  29
ENDBRANCH   1  20
TORSDOF 12
