REMARK  Name = ZINC32960761
REMARK  7 active torsions:
REMARK  status: ('A' for Active; 'I' for Inactive)
REMARK    1  A    between atoms: C_1  and  C_2
REMARK    2  A    between atoms: C_2  and  C_3
REMARK    3  A    between atoms: C_3  and  C_5
REMARK    4  A    between atoms: C_3  and  C_6
REMARK    5  A    between atoms: C_6  and  C_8
REMARK    6  A    between atoms: C_6  and  N_25
REMARK    7  A    between atoms: C_14  and  C_16
REMARK                            x       y       z     vdW  Elec       q    Type
REMARK                         _______ _______ _______ _____ _____    ______ ____
ROOT
ATOM      1  C   UNL     1       1.751  -1.804   0.565  0.00  0.00    +0.237 C 
ATOM      2  O   UNL     1       1.293  -2.603  -0.223  0.00  0.00    -0.274 OA
ATOM      3  N   UNL     1       1.008  -0.755   0.970  0.00  0.00    -0.291 N 
ATOM      4  C   UNL     1       1.403   0.235   1.988  0.00  0.00    +0.108 C 
ATOM      5  C   UNL     1       0.571   1.499   1.656  0.00  0.00    +0.021 C 
ATOM      6  C   UNL     1      -0.775   0.876   1.200  0.00  0.00    +0.031 C 
ATOM      7  C   UNL     1      -0.331  -0.409   0.470  0.00  0.00    +0.132 C 
ENDROOT
BRANCH   7   8
ATOM      8  C   UNL     1      -1.294  -1.528   0.770  0.00  0.00    +0.100 A 
ATOM      9  N   UNL     1      -1.424  -2.209   1.874  0.00  0.00    -0.242 NA
ATOM     10  C   UNL     1      -2.337  -3.193   2.016  0.00  0.00    +0.079 A 
ATOM     11  C   UNL     1      -2.599  -4.009   3.138  0.00  0.00    +0.029 A 
ATOM     12  C   UNL     1      -3.567  -4.963   3.092  0.00  0.00    +0.002 A 
ATOM     13  C   UNL     1      -4.330  -5.172   1.951  0.00  0.00    +0.001 A 
ATOM     14  C   UNL     1      -4.104  -4.394   0.832  0.00  0.00    +0.017 A 
ATOM     15  C   UNL     1      -3.129  -3.427   0.869  0.00  0.00    +0.039 A 
ATOM     16  S   UNL     1      -2.494  -2.225  -0.273  0.00  0.00    -0.070 S 
ENDBRANCH   7   8
BRANCH   1  17
ATOM     17  C   UNL     1       3.152  -1.982   1.090  0.00  0.00    +0.163 C 
BRANCH  17  18
ATOM     18  N   UNL     1       3.990  -2.588   0.052  0.00  0.00    -0.288 N 
ATOM     19  C   UNL     1       3.673  -3.799  -0.448  0.00  0.00    +0.298 C 
ATOM     20  O   UNL     1       2.692  -4.388  -0.038  0.00  0.00    -0.253 OA
ATOM     21  N   UNL     1       4.444  -4.356  -1.403  0.00  0.00    -0.313 N 
ATOM     22  H   UNL     1       4.878  -2.055  -0.319  0.00  0.00    +0.151 HD
ATOM     23  H   UNL     1       4.185  -5.344  -1.812  0.00  0.00    +0.146 HD
ATOM     24  H   UNL     1       5.331  -3.822  -1.775  0.00  0.00    +0.146 HD
ENDBRANCH  17  18
BRANCH  17  25
ATOM     25  C   UNL     1       3.123  -2.894   2.319  0.00  0.00    +0.015 C 
ATOM     26  C   UNL     1       2.265  -2.252   3.410  0.00  0.00    +0.010 C 
BRANCH  25  28
ATOM     27  C   UNL     1       4.535  -4.101   3.991  0.00  0.00    +0.004 C 
ATOM     28  C   UNL     1       4.548  -3.091   2.841  0.00  0.00    +0.002 C 
ENDBRANCH  25  28
ENDBRANCH  17  25
ENDBRANCH   1  17
TORSDOF 5
