REMARK  Name = ZINC36811893
REMARK  4 active torsions:
REMARK  status: ('A' for Active; 'I' for Inactive)
REMARK    1  A    between atoms: C_3  and  S_6
REMARK    2  A    between atoms: S_6  and  N_9
REMARK    3  A    between atoms: C_12  and  C_15
REMARK    4  A    between atoms: C_21  and  C_23
REMARK                            x       y       z     vdW  Elec       q    Type
REMARK                         _______ _______ _______ _____ _____    ______ ____
ROOT
ATOM      1  C   UNL     1       3.550   1.710   5.665  0.00  0.00    +0.222 C 
ATOM      2  O   UNL     1       2.524   2.302   5.926  0.00  0.00    -0.275 OA
ATOM      3  N   UNL     1       4.045   0.805   6.533  0.00  0.00    -0.263 N 
ATOM      4  C   UNL     1       3.380   0.550   7.727  0.00  0.00    +0.188 A 
ATOM      5  N   UNL     1       2.262   1.079   8.185  0.00  0.00    -0.126 NA
ATOM      6  N   UNL     1       1.773   0.744   9.301  0.00  0.00    -0.144 NA
ATOM      7  C   UNL     1       2.398  -0.160  10.029  0.00  0.00    +0.110 A 
ATOM      8  S   UNL     1       3.787  -0.520   8.964  0.00  0.00    -0.035 S 
ATOM      9  H   UNL     1       4.866   0.332   6.324  0.00  0.00    +0.157 HD
ENDROOT
BRANCH   7  10
ATOM     10  C   UNL     1       2.039  -0.732  11.377  0.00  0.00    +0.022 C 
ATOM     11  C   UNL     1       1.984   0.395  12.411  0.00  0.00    +0.017 C 
ATOM     12  C   UNL     1       1.620  -0.186  13.778  0.00  0.00    -0.010 C 
ATOM     13  C   UNL     1       0.253  -0.869  13.695  0.00  0.00    +0.007 C 
ATOM     14  C   UNL     1       0.308  -1.996  12.661  0.00  0.00    -0.010 C 
ATOM     15  C   UNL     1       0.672  -1.415  11.293  0.00  0.00    +0.017 C 
ATOM     16  C   UNL     1       1.365  -3.020  13.078  0.00  0.00    +0.007 C 
ATOM     17  C   UNL     1       2.732  -2.337  13.162  0.00  0.00    -0.010 C 
ATOM     18  C   UNL     1       2.677  -1.210  14.196  0.00  0.00    +0.007 C 
ATOM     19  C   UNL     1       3.096  -1.756  11.794  0.00  0.00    +0.017 C 
ENDBRANCH   7  10
BRANCH   1  23
ATOM     20  N   UNL     1       4.477   2.089   1.552  0.00  0.00    -0.176 NA
ATOM     21  C   UNL     1       4.259   3.348   2.277  0.00  0.00    +0.110 C 
ATOM     22  C   UNL     1       3.505   3.045   3.576  0.00  0.00    +0.030 C 
ATOM     23  C   UNL     1       4.272   1.986   4.371  0.00  0.00    +0.078 C 
ATOM     24  C   UNL     1       4.361   0.696   3.552  0.00  0.00    +0.030 C 
ATOM     25  C   UNL     1       5.120   0.971   2.255  0.00  0.00    +0.110 C 
BRANCH  20  26
ATOM     26  S   UNL     1       4.001   1.932  -0.026  0.00  0.00    +0.067 S 
ATOM     27  O   UNL     1       4.799   0.900  -0.590  0.00  0.00    -0.152 OA
ATOM     28  O   UNL     1       3.957   3.244  -0.570  0.00  0.00    -0.152 OA
BRANCH  26  31
ATOM     29  C   UNL     1      -0.016   1.351   0.009  0.00  0.00    +0.010 A 
ATOM     30  C   UNL     1       1.183   2.038   0.002  0.00  0.00    +0.036 A 
ATOM     31  C   UNL     1       2.343   1.336  -0.013  0.00  0.00    +0.143 A 
ATOM     32  S   UNL     1       1.754  -0.349  -0.017  0.00  0.00    -0.077 S 
ATOM     33  C   UNL     1       0.002  -0.004   0.002  0.00  0.00    +0.047 A 
ENDBRANCH  26  31
ENDBRANCH  20  26
ENDBRANCH   1  23
TORSDOF 4
