REMARK  Name = ZINC39666366
REMARK  10 active torsions:
REMARK  status: ('A' for Active; 'I' for Inactive)
REMARK    1  A    between atoms: C_1  and  C_2
REMARK    2  A    between atoms: C_2  and  C_4
REMARK    3  A    between atoms: C_2  and  O_31
REMARK    4  A    between atoms: C_4  and  N_5
REMARK    5  A    between atoms: C_6  and  C_8
REMARK    6  A    between atoms: C_19  and  C_21
REMARK    7  A    between atoms: C_26  and  O_27
REMARK    8  A    between atoms: O_27  and  C_28
REMARK    9  A    between atoms: C_28  and  C_30
REMARK   10  A    between atoms: O_31  and  C_32
REMARK                            x       y       z     vdW  Elec       q    Type
REMARK                         _______ _______ _______ _____ _____    ______ ____
ROOT
ATOM      1  C   UNL     1       2.410  -1.870  -4.088  0.00  0.00    +0.100 C 
ATOM      2  C   UNL     1       3.125  -2.729  -3.020  0.00  0.00    +0.121 C 
ATOM      3  N   UNL     1       4.114  -3.528  -3.783  0.00  0.00    -0.296 N 
ATOM      4  C   UNL     1       4.640  -2.588  -4.801  0.00  0.00    +0.115 C 
ATOM      5  C   UNL     1       3.408  -1.779  -5.254  0.00  0.00    -0.004 C 
ATOM      6  C   UNL     1       3.796  -0.325  -5.506  0.00  0.00    -0.010 C 
ATOM      7  C   UNL     1       4.743  -0.255  -6.707  0.00  0.00    -0.082 C 
ATOM      8  N   UNL     1       4.079  -0.817  -7.890  0.00  0.00    +0.379 N 
ATOM      9  C   UNL     1       3.793  -2.241  -7.674  0.00  0.00    -0.082 C 
ATOM     10  C   UNL     1       2.806  -2.395  -6.514  0.00  0.00    -0.010 C 
ATOM     11  C   UNL     1       4.456  -4.817  -3.593  0.00  0.00    +0.250 C 
ATOM     12  O   UNL     1       5.352  -5.311  -4.250  0.00  0.00    -0.270 OA
ATOM     13  H   UNL     1       3.215  -0.323  -8.055  0.00  0.00    -0.086 HD
ATOM     14  H   UNL     1       4.681  -0.714  -8.693  0.00  0.00    -0.086 HD
ENDROOT
BRANCH  11  15
ATOM     15  C   UNL     1       3.743  -5.630  -2.589  0.00  0.00    +0.079 A 
ATOM     16  C   UNL     1       3.425  -5.086  -1.342  0.00  0.00    +0.017 A 
ATOM     17  C   UNL     1       2.759  -5.851  -0.409  0.00  0.00    +0.001 A 
ATOM     18  C   UNL     1       2.403  -7.157  -0.701  0.00  0.00    +0.004 A 
ATOM     19  C   UNL     1       2.711  -7.707  -1.929  0.00  0.00    +0.047 A 
ATOM     20  C   UNL     1       3.377  -6.950  -2.882  0.00  0.00    +0.144 A 
BRANCH  20  21
ATOM     21  O   UNL     1       3.676  -7.488  -4.092  0.00  0.00    -0.425 OA
BRANCH  21  22
ATOM     22  C   UNL     1       2.836  -7.251  -5.113  0.00  0.00    +0.309 C 
ATOM     23  O   UNL     1       1.893  -6.511  -4.960  0.00  0.00    -0.251 OA
ATOM     24  C   UNL     1       3.069  -7.907  -6.449  0.00  0.00    +0.136 C 
ENDBRANCH  21  22
ENDBRANCH  20  21
ENDBRANCH  11  15
BRANCH   1  26
ATOM     25  N   UNL     1       1.045   0.190  -3.995  0.00  0.00    -0.312 N 
ATOM     26  C   UNL     1       2.113  -0.497  -3.543  0.00  0.00    +0.218 C 
ATOM     27  O   UNL     1       2.834  -0.010  -2.699  0.00  0.00    -0.275 OA
ATOM     28  H   UNL     1       0.468  -0.199  -4.670  0.00  0.00    +0.149 HD
BRANCH  25  29
ATOM     29  C   UNL     1       0.756   1.525  -3.466  0.00  0.00    +0.148 C 
BRANCH  29  31
ATOM     30  C   UNL     1      -0.802   3.475  -3.588  0.00  0.00    +0.053 C 
ATOM     31  C   UNL     1      -0.500   2.080  -4.140  0.00  0.00    +0.187 C 
BRANCH  31  32
ATOM     32  O   UNL     1      -0.286   2.163  -5.551  0.00  0.00    -0.486 OA
BRANCH  32  33
ATOM     33  C   UNL     1      -1.384   2.079  -6.348  0.00  0.00    +0.139 A 
ATOM     34  C   UNL     1      -2.647   1.991  -5.782  0.00  0.00    +0.047 A 
ATOM     35  C   UNL     1      -3.762   1.906  -6.595  0.00  0.00    +0.004 A 
ATOM     36  C   UNL     1      -3.619   1.908  -7.970  0.00  0.00    +0.002 A 
ATOM     37  C   UNL     1      -2.361   1.995  -8.537  0.00  0.00    +0.023 A 
ATOM     38  C   UNL     1      -1.243   2.086  -7.729  0.00  0.00    +0.083 A 
ATOM     39 CL   UNL     1       0.336   2.203  -8.440  0.00  0.00    -0.080 Cl
ENDBRANCH  32  33
ENDBRANCH  31  32
ENDBRANCH  29  31
ENDBRANCH  25  29
ENDBRANCH   1  26
TORSDOF 8
