REMARK  Name = ZINC12393542
REMARK  9 active torsions:
REMARK  status: ('A' for Active; 'I' for Inactive)
REMARK    1  A    between atoms: C_1  and  N_2
REMARK    2  A    between atoms: C_6  and  C_7
REMARK    3  A    between atoms: N_9  and  N_10
REMARK    4  A    between atoms: C_11  and  C_13
REMARK    5  A    between atoms: C_13  and  C_14
REMARK    6  A    between atoms: C_14  and  N_15
REMARK    7  A    between atoms: C_16  and  C_22
REMARK    8  A    between atoms: C_25  and  O_28
REMARK    9  A    between atoms: O_28  and  C_29
REMARK                            x       y       z     vdW  Elec       q    Type
REMARK                         _______ _______ _______ _____ _____    ______ ____
ROOT
ATOM      1  C   UNL     1      -5.923  -1.568   0.027  0.00  0.00    +0.119 C 
ENDROOT
BRANCH   1   3
ATOM      2  N   UNL     1      -3.491  -1.115   0.004  0.00  0.00    -0.234 N 
ATOM      3  C   UNL     1      -4.746  -0.635  -0.104  0.00  0.00    +0.231 C 
ATOM      4  O   UNL     1      -4.929   0.546  -0.308  0.00  0.00    -0.274 OA
ATOM      5  H   UNL     1      -3.346  -2.060   0.167  0.00  0.00    +0.173 HD
BRANCH   2   8
ATOM      6  C   UNL     1      -1.143  -0.728  -0.009  0.00  0.00    +0.277 C 
ATOM      7  O   UNL     1      -0.956  -1.925   0.103  0.00  0.00    -0.267 OA
ATOM      8  N   UNL     1      -2.397  -0.248  -0.118  0.00  0.00    -0.229 N 
ATOM      9  H   UNL     1      -2.543   0.697  -0.280  0.00  0.00    +0.173 HD
BRANCH   6  15
ATOM     10  C   UNL     1       1.850  -1.528   0.008  0.00  0.00    +0.149 C 
ATOM     11  N   UNL     1       1.329  -0.159  -0.021  0.00  0.00    -0.345 N 
ATOM     12  C   UNL     1       2.077   0.972  -0.041  0.00  0.00    +0.101 A 
ATOM     13  C   UNL     1       1.250   2.045  -0.058  0.00  0.00    +0.036 A 
ATOM     14  C   UNL     1      -0.067   1.571  -0.049  0.00  0.00    +0.047 A 
ATOM     15  C   UNL     1      -0.002   0.194  -0.026  0.00  0.00    +0.107 A 
ATOM     16 BR   UNL     1       1.780   3.860  -0.090  0.00  0.00    -0.049 Br
ENDBRANCH   6  15
ENDBRANCH   2   8
ENDBRANCH   1   3
BRANCH   1  17
ATOM     17  C   UNL     1      -7.222  -0.776  -0.136  0.00  0.00    +0.135 C 
BRANCH  17  18
ATOM     18  N   UNL     1      -8.366  -1.682  -0.008  0.00  0.00    -0.303 N 
ATOM     19  C   UNL     1      -9.028  -2.300  -1.050  0.00  0.00    +0.163 A 
ATOM     20  N   UNL     1      -9.987  -3.033  -0.555  0.00  0.00    -0.153 NA
ATOM     21  N   UNL     1      -9.967  -2.890   0.839  0.00  0.00    -0.254 N 
ATOM     22  H   UNL     1     -10.569  -3.317   1.468  0.00  0.00    +0.191 HD
ATOM     23  C   UNL     1      -8.956  -2.051   1.146  0.00  0.00    +0.176 A 
ATOM     24  S   UNL     1      -8.504  -1.547   2.719  0.00  0.00    -0.011 S 
BRANCH  19  25
ATOM     25  C   UNL     1      -8.702  -2.159  -2.486  0.00  0.00    +0.019 A 
ATOM     26  C   UNL     1      -7.433  -1.730  -2.876  0.00  0.00    +0.015 A 
ATOM     27  C   UNL     1      -7.131  -1.604  -4.215  0.00  0.00    +0.046 A 
ATOM     28  C   UNL     1      -8.091  -1.894  -5.175  0.00  0.00    +0.120 A 
ATOM     29  C   UNL     1      -9.357  -2.316  -4.791  0.00  0.00    +0.046 A 
ATOM     30  C   UNL     1      -9.665  -2.449  -3.454  0.00  0.00    +0.015 A 
BRANCH  28  31
ATOM     31  O   UNL     1      -7.792  -1.764  -6.494  0.00  0.00    -0.495 OA
ATOM     32  C   UNL     1      -6.471  -1.325  -6.819  0.00  0.00    +0.277 C 
ENDBRANCH  28  31
ENDBRANCH  19  25
ENDBRANCH  17  18
ENDBRANCH   1  17
TORSDOF 7
