REMARK  Name = ZINC39532697
REMARK  10 active torsions:
REMARK  status: ('A' for Active; 'I' for Inactive)
REMARK    1  A    between atoms: C_1  and  C_2
REMARK    2  A    between atoms: C_4  and  C_21
REMARK    3  A    between atoms: C_7  and  C_10
REMARK    4  A    between atoms: C_15  and  N_16
REMARK    5  A    between atoms: N_16  and  S_17
REMARK    6  A    between atoms: S_17  and  C_20
REMARK    7  A    between atoms: C_21  and  N_22
REMARK    8  A    between atoms: N_22  and  C_23
REMARK    9  A    between atoms: N_22  and  C_24
REMARK   10  A    between atoms: C_24  and  C_25
REMARK                            x       y       z     vdW  Elec       q    Type
REMARK                         _______ _______ _______ _____ _____    ______ ____
ROOT
ATOM      1  C   UNL     1      -0.998   0.892   1.210  0.00  0.00    +0.039 C 
ATOM      2  C   UNL     1      -0.583  -0.535   0.848  0.00  0.00    +0.133 C 
ATOM      3  C   UNL     1       0.093  -0.576  -0.545  0.00  0.00    +0.068 C 
ATOM      4  N   UNL     1       1.488  -0.171  -0.242  0.00  0.00    -0.284 NA
ATOM      5  C   UNL     1       1.686  -0.435   1.197  0.00  0.00    +0.220 C 
ATOM      6  O   UNL     1       0.469  -1.003   1.724  0.00  0.00    -0.353 OA
ATOM      7  H   UNL     1       2.146  -0.696  -0.799  0.00  0.00    +0.125 HD
ENDROOT
BRANCH   5   8
ATOM      8  C   UNL     1       2.821  -1.408   1.384  0.00  0.00    +0.018 A 
ATOM      9  C   UNL     1       3.019  -2.425   0.471  0.00  0.00    +0.009 A 
ATOM     10  C   UNL     1       4.060  -3.318   0.643  0.00  0.00    +0.001 A 
ATOM     11  C   UNL     1       4.908  -3.196   1.729  0.00  0.00    +0.002 A 
ATOM     12  C   UNL     1       4.717  -2.181   2.645  0.00  0.00    +0.025 A 
ATOM     13  C   UNL     1       3.674  -1.279   2.473  0.00  0.00    +0.055 A 
BRANCH  13  14
ATOM     14  N   UNL     1       3.481  -0.248   3.396  0.00  0.00    -0.220 N 
ATOM     15  H   UNL     1       2.587   0.085   3.570  0.00  0.00    +0.173 HD
BRANCH  14  16
ATOM     16  S   UNL     1       4.778   0.405   4.191  0.00  0.00    +0.040 S 
ATOM     17  O   UNL     1       4.235   1.473   4.955  0.00  0.00    -0.155 OA
ATOM     18  O   UNL     1       5.404  -0.699   4.832  0.00  0.00    -0.155 OA
ATOM     19  C   UNL     1       5.849   1.056   2.880  0.00  0.00    +0.218 C 
ENDBRANCH  14  16
ENDBRANCH  13  14
ENDBRANCH   5   8
BRANCH   3  20
ATOM     20  C   UNL     1      -0.570   0.420  -1.499  0.00  0.00    -0.057 C 
BRANCH  20  21
ATOM     21  N   UNL     1       0.130   0.400  -2.791  0.00  0.00    +0.382 N 
ATOM     22  C   UNL     1      -0.417   1.451  -3.659  0.00  0.00    -0.096 C 
ATOM     23  H   UNL     1       1.114   0.565  -2.643  0.00  0.00    -0.082 HD
BRANCH  21  24
ATOM     24  C   UNL     1      -0.057  -0.910  -3.429  0.00  0.00    -0.041 C 
BRANCH  24  25
ATOM     25  C   UNL     1       0.759  -0.973  -4.694  0.00  0.00    -0.039 A 
ATOM     26  C   UNL     1       2.196  -1.241  -4.791  0.00  0.00    +0.001 A 
ATOM     27  C   UNL     1       3.200  -1.501  -3.856  0.00  0.00    +0.010 A 
ATOM     28  C   UNL     1       4.482  -1.716  -4.279  0.00  0.00    +0.001 A 
ATOM     29  C   UNL     1       4.794  -1.676  -5.631  0.00  0.00    +0.002 A 
ATOM     30  C   UNL     1       3.819  -1.421  -6.570  0.00  0.00    +0.026 A 
ATOM     31  C   UNL     1       2.508  -1.200  -6.162  0.00  0.00    +0.047 A 
ATOM     32  N   UNL     1       1.338  -0.928  -6.836  0.00  0.00    -0.360 N 
ATOM     33  C   UNL     1       0.307  -0.801  -5.946  0.00  0.00    +0.085 A 
ATOM     34  H   UNL     1       1.257  -0.842  -7.799  0.00  0.00    +0.165 HD
ENDBRANCH  24  25
ENDBRANCH  21  24
ENDBRANCH  20  21
ENDBRANCH   3  20
TORSDOF 7
