REMARK  Name = ZINC65591861
REMARK  9 active torsions:
REMARK  status: ('A' for Active; 'I' for Inactive)
REMARK    1  A    between atoms: C_1  and  C_2
REMARK    2  A    between atoms: C_2  and  C_3
REMARK    3  A    between atoms: C_3  and  C_4
REMARK    4  A    between atoms: C_4  and  C_5
REMARK    5  A    between atoms: C_5  and  C_6
REMARK    6  A    between atoms: C_5  and  N_22
REMARK    7  A    between atoms: N_8  and  C_9
REMARK    8  A    between atoms: C_9  and  C_10
REMARK    9  A    between atoms: C_10  and  C_15
REMARK                            x       y       z     vdW  Elec       q    Type
REMARK                         _______ _______ _______ _____ _____    ______ ____
ROOT
ATOM      1  C   UNL     1      -2.784  -4.071   0.144  0.00  0.00    +0.233 C 
ATOM      2  O   UNL     1      -2.949  -4.749  -0.848  0.00  0.00    -0.274 OA
ATOM      3  N   UNL     1      -2.606  -4.662   1.343  0.00  0.00    -0.313 N 
ATOM      4  H   UNL     1      -2.474  -4.120   2.136  0.00  0.00    +0.149 HD
ENDROOT
BRANCH   1   5
ATOM      5  C   UNL     1      -2.777  -2.567   0.037  0.00  0.00    +0.160 C 
BRANCH   5   6
ATOM      6  N   UNL     1      -3.442  -2.163  -1.204  0.00  0.00    -0.288 N 
ATOM      7  C   UNL     1      -2.959  -2.577  -2.393  0.00  0.00    +0.298 C 
ATOM      8  O   UNL     1      -1.972  -3.285  -2.435  0.00  0.00    -0.253 OA
ATOM      9  N   UNL     1      -3.571  -2.205  -3.534  0.00  0.00    -0.313 N 
ATOM     10  H   UNL     1      -4.229  -1.598  -1.170  0.00  0.00    +0.151 HD
ATOM     11  H   UNL     1      -4.359  -1.640  -3.501  0.00  0.00    +0.146 HD
ATOM     12  H   UNL     1      -3.224  -2.503  -4.390  0.00  0.00    +0.146 HD
ENDBRANCH   5   6
BRANCH   5  13
ATOM     13  C   UNL     1      -1.332  -2.064   0.029  0.00  0.00    +0.032 C 
BRANCH  13  14
ATOM     14  C   UNL     1      -1.326  -0.534   0.046  0.00  0.00    +0.002 C 
BRANCH  14  16
ATOM     15  C   UNL     1       0.126   1.500   0.055  0.00  0.00    +0.004 C 
ATOM     16  C   UNL     1       0.119  -0.030   0.038  0.00  0.00    -0.003 C 
ENDBRANCH  14  16
ENDBRANCH  13  14
ENDBRANCH   5  13
ENDBRANCH   1   5
BRANCH   3  17
ATOM     17  C   UNL     1      -2.613  -6.123   1.447  0.00  0.00    +0.115 C 
BRANCH  17  18
ATOM     18  C   UNL     1      -2.270  -6.534   2.880  0.00  0.00    +0.011 C 
ATOM     19  C   UNL     1      -0.906  -5.947   3.285  0.00  0.00    +0.013 C 
ATOM     20  C   UNL     1       0.010  -7.145   3.608  0.00  0.00    +0.001 C 
ATOM     21  C   UNL     1      -0.615  -8.324   2.823  0.00  0.00    +0.001 C 
ATOM     22  C   UNL     1      -2.135  -8.068   2.972  0.00  0.00    +0.013 C 
BRANCH  18  23
ATOM     23  C   UNL     1      -3.341  -6.052   3.825  0.00  0.00    -0.040 A 
ATOM     24  C   UNL     1      -4.486  -5.459   3.327  0.00  0.00    +0.007 A 
ATOM     25  C   UNL     1      -5.469  -5.018   4.192  0.00  0.00    +0.038 A 
ATOM     26  C   UNL     1      -5.307  -5.170   5.559  0.00  0.00    +0.123 A 
ATOM     27  C   UNL     1      -4.160  -5.764   6.057  0.00  0.00    +0.038 A 
ATOM     28  C   UNL     1      -3.180  -6.210   5.189  0.00  0.00    +0.007 A 
ATOM     29  F   UNL     1      -6.267  -4.738   6.406  0.00  0.00    -0.205 F 
ENDBRANCH  18  23
ENDBRANCH  17  18
ENDBRANCH   3  17
TORSDOF 8
