REMARK  Name = ZINC10435213
REMARK  11 active torsions:
REMARK  status: ('A' for Active; 'I' for Inactive)
REMARK    1  A    between atoms: C_1  and  C_2
REMARK    2  A    between atoms: C_2  and  O_3
REMARK    3  A    between atoms: O_3  and  C_4
REMARK    4  A    between atoms: C_6  and  C_19
REMARK    5  A    between atoms: C_9  and  O_10
REMARK    6  A    between atoms: O_10  and  C_11
REMARK    7  A    between atoms: C_11  and  C_12
REMARK    8  A    between atoms: C_19  and  N_64
REMARK    9  A    between atoms: C_20  and  N_64
REMARK   10  A    between atoms: C_25  and  C_26
REMARK   11  A    between atoms: C_25  and  N_67
REMARK                            x       y       z     vdW  Elec       q    Type
REMARK                         _______ _______ _______ _____ _____    ______ ____
ROOT
ATOM      1  C   UNL     1      -1.237   3.144   0.029  0.00  0.00    +0.162 A 
ATOM      2  C   UNL     1      -0.043   3.847   0.022  0.00  0.00    +0.051 A 
ATOM      3  C   UNL     1       1.160   3.166   0.008  0.00  0.00    -0.061 A 
ATOM      4  C   UNL     1       1.175   1.783   0.000  0.00  0.00    +0.005 A 
ATOM      5  C   UNL     1      -0.013   1.076   0.008  0.00  0.00    +0.049 A 
ATOM      6  C   UNL     1      -1.222   1.752   0.017  0.00  0.00    +0.162 A 
ENDROOT
BRANCH   1   7
ATOM      7  O   UNL     1      -2.421   3.812   0.043  0.00  0.00    -0.489 OA
BRANCH   7   9
ATOM      8  C   UNL     1      -3.780   5.811   0.066  0.00  0.00    +0.048 C 
ATOM      9  C   UNL     1      -2.361   5.240   0.050  0.00  0.00    +0.226 C 
ENDBRANCH   7   9
ENDBRANCH   1   7
BRANCH   6  10
ATOM     10  O   UNL     1      -2.391   1.058   0.020  0.00  0.00    -0.484 OA
BRANCH  10  11
ATOM     11  C   UNL     1      -2.299  -0.368   0.012  0.00  0.00    +0.264 C 
BRANCH  11  12
ATOM     12  C   UNL     1      -3.684  -0.961   0.016  0.00  0.00    -0.010 A 
ATOM     13  C   UNL     1      -4.311  -1.244   1.215  0.00  0.00    +0.008 A 
ATOM     14  C   UNL     1      -5.584  -1.783   1.219  0.00  0.00    +0.020 A 
ATOM     15  C   UNL     1      -6.226  -2.050   0.023  0.00  0.00    +0.041 A 
ATOM     16  C   UNL     1      -5.596  -1.771  -1.177  0.00  0.00    +0.020 A 
ATOM     17  C   UNL     1      -4.325  -1.227  -1.180  0.00  0.00    +0.008 A 
ATOM     18 CL   UNL     1      -7.822  -2.732   0.027  0.00  0.00    -0.084 Cl
ENDBRANCH  11  12
ENDBRANCH  10  11
ENDBRANCH   6  10
BRANCH   3  19
ATOM     19  C   UNL     1       2.458   3.932   0.000  0.00  0.00    -0.046 C 
BRANCH  19  20
ATOM     20  N   UNL     1       2.861   4.185  -1.396  0.00  0.00    +0.383 N 
ATOM     21  H   UNL     1       2.130   4.732  -1.866  0.00  0.00    -0.085 HD
ATOM     22  H   UNL     1       2.982   3.288  -1.881  0.00  0.00    -0.085 HD
BRANCH  20  23
ATOM     23  C   UNL     1       4.131   4.935  -1.434  0.00  0.00    -0.075 C 
ATOM     24  C   UNL     1       3.844   6.435  -1.319  0.00  0.00    -0.034 C 
ATOM     25  C   UNL     1       5.158   7.211  -1.430  0.00  0.00    -0.080 C 
ATOM     26  C   UNL     1       6.125   5.487  -2.832  0.00  0.00    -0.080 C 
ATOM     27  C   UNL     1       4.839   4.659  -2.763  0.00  0.00    -0.034 C 
ATOM     28  N   UNL     1       5.777   6.921  -2.740  0.00  0.00    +0.382 N 
ATOM     29  H   UNL     1       5.107   7.149  -3.484  0.00  0.00    -0.081 HD
BRANCH  28  30
ATOM     30  C   UNL     1       6.990   7.746  -2.919  0.00  0.00    -0.043 C 
BRANCH  30  31
ATOM     31  C   UNL     1       6.580   9.191  -3.040  0.00  0.00    -0.064 A 
ATOM     32  C   UNL     1       6.290   9.725  -4.282  0.00  0.00    +0.002 A 
ATOM     33  C   UNL     1       5.909  11.049  -4.392  0.00  0.00    +0.000 A 
ATOM     34  C   UNL     1       5.829  11.842  -3.263  0.00  0.00    +0.000 A 
ATOM     35  C   UNL     1       6.125  11.310  -2.022  0.00  0.00    +0.000 A 
ATOM     36  C   UNL     1       6.501   9.984  -1.911  0.00  0.00    +0.002 A 
ENDBRANCH  30  31
ENDBRANCH  28  30
ENDBRANCH  20  23
ENDBRANCH  19  20
ENDBRANCH   3  19
TORSDOF 10
