REMARK  Name = ZINC44707871
REMARK  8 active torsions:
REMARK  status: ('A' for Active; 'I' for Inactive)
REMARK    1  A    between atoms: C_1  and  C_2
REMARK    2  A    between atoms: C_8  and  C_12
REMARK    3  A    between atoms: C_12  and  C_13
REMARK    4  A    between atoms: C_13  and  N_14
REMARK    5  A    between atoms: C_15  and  C_17
REMARK    6  A    between atoms: C_28  and  C_30
REMARK    7  A    between atoms: C_32  and  C_36
REMARK    8  A    between atoms: N_33  and  C_35
REMARK                            x       y       z     vdW  Elec       q    Type
REMARK                         _______ _______ _______ _____ _____    ______ ____
ROOT
ATOM      1  C   UNL     1      -2.531  -2.013   7.793  0.00  0.00    +0.100 C 
ATOM      2  C   UNL     1      -1.673  -0.774   8.135  0.00  0.00    +0.121 C 
ATOM      3  N   UNL     1      -2.642   0.344   8.209  0.00  0.00    -0.295 N 
ATOM      4  C   UNL     1      -3.830  -0.242   8.874  0.00  0.00    +0.115 C 
ATOM      5  C   UNL     1      -3.945  -1.661   8.283  0.00  0.00    -0.004 C 
ATOM      6  C   UNL     1      -4.926  -1.666   7.114  0.00  0.00    -0.010 C 
ATOM      7  C   UNL     1      -6.335  -1.369   7.635  0.00  0.00    -0.082 C 
ATOM      8  N   UNL     1      -6.717  -2.383   8.624  0.00  0.00    +0.379 N 
ATOM      9  C   UNL     1      -5.824  -2.310   9.787  0.00  0.00    -0.082 C 
ATOM     10  C   UNL     1      -4.394  -2.646   9.358  0.00  0.00    -0.010 C 
ATOM     11  C   UNL     1      -2.480   1.608   7.771  0.00  0.00    +0.267 C 
ATOM     12  O   UNL     1      -3.376   2.418   7.906  0.00  0.00    -0.268 OA
ATOM     13  H   UNL     1      -7.668  -2.221   8.921  0.00  0.00    -0.086 HD
ATOM     14  H   UNL     1      -6.649  -3.300   8.208  0.00  0.00    -0.086 HD
ENDROOT
BRANCH  11  15
ATOM     15  C   UNL     1      -1.213   2.010   7.127  0.00  0.00    +0.147 A 
ATOM     16  C   UNL     1      -0.893   3.293   6.624  0.00  0.00    +0.057 A 
ATOM     17  C   UNL     1       0.363   3.186   6.130  0.00  0.00    +0.037 A 
ATOM     18  N   UNL     1       0.764   1.912   6.330  0.00  0.00    -0.271 N 
ATOM     19  N   UNL     1      -0.162   1.242   6.916  0.00  0.00    -0.167 NA
ATOM     20  C   UNL     1       2.069   1.374   5.940  0.00  0.00    +0.172 C 
ATOM     21  C   UNL     1       1.164   4.284   5.479  0.00  0.00    +0.065 C 
ENDBRANCH  11  15
BRANCH   1  23
ATOM     22  N   UNL     1      -2.701  -3.502   5.825  0.00  0.00    -0.315 N 
ATOM     23  C   UNL     1      -2.535  -2.253   6.305  0.00  0.00    +0.218 C 
ATOM     24  O   UNL     1      -2.390  -1.324   5.540  0.00  0.00    -0.275 OA
ATOM     25  H   UNL     1      -2.817  -4.245   6.437  0.00  0.00    +0.149 HD
BRANCH  22  26
ATOM     26  C   UNL     1      -2.705  -3.736   4.379  0.00  0.00    +0.109 C 
BRANCH  26  27
ATOM     27  C   UNL     1      -2.908  -5.227   4.104  0.00  0.00    +0.056 C 
BRANCH  27  35
ATOM     28  C   UNL     1       1.981  -5.957   1.210  0.00  0.00    +0.044 C 
ATOM     29  C   UNL     1       0.496  -5.919   0.957  0.00  0.00    -0.050 A 
ATOM     30  C   UNL     1       0.013  -6.102  -0.332  0.00  0.00    +0.005 A 
ATOM     31  C   UNL     1      -1.341  -6.071  -0.585  0.00  0.00    +0.026 A 
ATOM     32  C   UNL     1      -2.235  -5.854   0.459  0.00  0.00    +0.047 A 
ATOM     33  C   UNL     1      -1.740  -5.669   1.763  0.00  0.00    +0.003 A 
ATOM     34  C   UNL     1      -0.364  -5.710   1.998  0.00  0.00    +0.013 A 
ATOM     35  C   UNL     1      -2.913  -5.468   2.616  0.00  0.00    -0.021 A 
ATOM     36  C   UNL     1      -3.993  -5.538   1.822  0.00  0.00    +0.087 A 
ATOM     37  N   UNL     1      -3.607  -5.769   0.530  0.00  0.00    -0.360 N 
ATOM     38  H   UNL     1      -4.211  -5.859  -0.224  0.00  0.00    +0.165 HD
ENDBRANCH  27  35
ENDBRANCH  26  27
ENDBRANCH  22  26
ENDBRANCH   1  23
TORSDOF 5
