REMARK  Name = ZINC38762857
REMARK  7 active torsions:
REMARK  status: ('A' for Active; 'I' for Inactive)
REMARK    1  A    between atoms: C_4  and  C_7
REMARK    2  A    between atoms: C_10  and  N_13
REMARK    3  A    between atoms: C_14  and  C_16
REMARK    4  A    between atoms: C_16  and  C_18
REMARK    5  A    between atoms: C_16  and  N_28
REMARK    6  A    between atoms: C_18  and  C_19
REMARK    7  A    between atoms: C_29  and  C_31
REMARK                            x       y       z     vdW  Elec       q    Type
REMARK                         _______ _______ _______ _____ _____    ______ ____
ROOT
ATOM      1  C   UNL     1       7.110  -5.033   2.400  0.00  0.00    +0.164 C 
ENDROOT
BRANCH   1   3
ATOM      2  N   UNL     1       6.369  -3.044   1.129  0.00  0.00    -0.286 N 
ATOM      3  C   UNL     1       6.539  -4.381   1.167  0.00  0.00    +0.236 C 
ATOM      4  O   UNL     1       6.232  -5.059   0.210  0.00  0.00    -0.274 OA
ATOM      5  H   UNL     1       6.614  -2.502   1.895  0.00  0.00    +0.151 HD
BRANCH   2   9
ATOM      6  C   UNL     1       3.696  -0.685  -0.037  0.00  0.00    +0.125 C 
ATOM      7  N   UNL     1       4.893  -0.179  -0.041  0.00  0.00    -0.177 NA
ATOM      8  N   UNL     1       6.036  -0.947  -0.056  0.00  0.00    -0.238 N 
ATOM      9  C   UNL     1       5.813  -2.410  -0.069  0.00  0.00    +0.241 C 
ATOM     10  S   UNL     1       3.974  -2.449  -0.050  0.00  0.00    -0.061 S 
ATOM     11  H   UNL     1       6.924  -0.557  -0.059  0.00  0.00    +0.171 HD
BRANCH   6  15
ATOM     12  C   UNL     1      -0.017   1.379   0.010  0.00  0.00    +0.000 A 
ATOM     13  C   UNL     1       1.168   2.093   0.002  0.00  0.00    +0.001 A 
ATOM     14  C   UNL     1       2.377   1.429  -0.013  0.00  0.00    +0.010 A 
ATOM     15  C   UNL     1       2.403   0.034  -0.021  0.00  0.00    +0.008 A 
ATOM     16  C   UNL     1       1.204  -0.681  -0.013  0.00  0.00    +0.010 A 
ATOM     17  C   UNL     1       0.002  -0.004   0.002  0.00  0.00    +0.001 A 
ENDBRANCH   6  15
ENDBRANCH   2   9
ENDBRANCH   1   3
BRANCH   1  18
ATOM     18  N   UNL     1       7.636  -6.356   2.054  0.00  0.00    -0.299 N 
ATOM     19  C   UNL     1       6.816  -7.293   1.539  0.00  0.00    +0.251 C 
ATOM     20  O   UNL     1       5.639  -7.042   1.363  0.00  0.00    -0.270 OA
ATOM     21  H   UNL     1       8.575  -6.556   2.194  0.00  0.00    +0.150 HD
BRANCH  19  22
ATOM     22  C   UNL     1       7.342  -8.617   1.193  0.00  0.00    +0.074 A 
ATOM     23  C   UNL     1       6.678  -9.708   0.654  0.00  0.00    +0.021 A 
ATOM     24  C   UNL     1       7.446 -10.826   0.435  0.00  0.00    +0.008 A 
ATOM     25  C   UNL     1       8.764 -10.793   0.751  0.00  0.00    +0.046 A 
ATOM     26  S   UNL     1       9.005  -9.241   1.347  0.00  0.00    -0.092 S 
ENDBRANCH  19  22
ENDBRANCH   1  18
BRANCH   1  27
ATOM     27  C   UNL     1       6.011  -5.181   3.454  0.00  0.00    +0.069 C 
BRANCH  27  28
ATOM     28  C   UNL     1       6.608  -5.720   4.729  0.00  0.00    -0.020 A 
ATOM     29  C   UNL     1       7.250  -4.938   5.789  0.00  0.00    +0.003 A 
ATOM     30  C   UNL     1       7.505  -3.578   5.972  0.00  0.00    +0.010 A 
ATOM     31  C   UNL     1       8.142  -3.154   7.105  0.00  0.00    +0.001 A 
ATOM     32  C   UNL     1       8.537  -4.065   8.075  0.00  0.00    +0.002 A 
ATOM     33  C   UNL     1       8.294  -5.412   7.914  0.00  0.00    +0.026 A 
ATOM     34  C   UNL     1       7.647  -5.865   6.769  0.00  0.00    +0.047 A 
ATOM     35  N   UNL     1       7.269  -7.113   6.326  0.00  0.00    -0.360 N 
ATOM     36  C   UNL     1       6.647  -7.006   5.112  0.00  0.00    +0.087 A 
ATOM     37  H   UNL     1       7.419  -7.943   6.804  0.00  0.00    +0.165 HD
ENDBRANCH  27  28
ENDBRANCH   1  27
TORSDOF 7
