REMARK  Name = ZINC65298123
REMARK  8 active torsions:
REMARK  status: ('A' for Active; 'I' for Inactive)
REMARK    1  A    between atoms: C_1  and  C_2
REMARK    2  A    between atoms: C_2  and  C_3
REMARK    3  A    between atoms: C_2  and  N_4
REMARK    4  A    between atoms: C_11  and  C_24
REMARK    5  A    between atoms: C_14  and  C_16
REMARK    6  A    between atoms: C_20  and  O_22
REMARK    7  A    between atoms: O_22  and  C_23
REMARK    8  A    between atoms: C_29  and  O_30
REMARK                            x       y       z     vdW  Elec       q    Type
REMARK                         _______ _______ _______ _____ _____    ______ ____
ROOT
ATOM      1  N   UNL     1      -1.376  -0.512   0.012  0.00  0.00    +0.381 N 
ATOM      2  C   UNL     1      -1.354  -1.980   0.014  0.00  0.00    -0.075 C 
ATOM      3  C   UNL     1      -2.785  -2.515   0.104  0.00  0.00    +0.027 C 
ATOM      4  C   UNL     1      -3.586  -2.019  -1.104  0.00  0.00    +0.109 C 
ATOM      5  C   UNL     1      -3.543  -0.487  -1.132  0.00  0.00    +0.027 C 
ATOM      6  C   UNL     1      -2.085  -0.025  -1.177  0.00  0.00    -0.075 C 
ATOM      7  N   UNL     1      -4.981  -2.460  -0.975  0.00  0.00    -0.286 NA
ATOM      8  C   UNL     1      -5.725  -2.161  -2.210  0.00  0.00    +0.095 C 
ATOM      9  C   UNL     1      -5.174  -3.051  -3.328  0.00  0.00    +0.079 C 
ATOM     10  C   UNL     1      -3.672  -2.997  -3.317  0.00  0.00    +0.047 C 
ATOM     11  N   UNL     1      -2.996  -2.545  -2.330  0.00  0.00    -0.266 NA
ATOM     12  H   UNL     1      -5.030  -3.443  -0.753  0.00  0.00    +0.125 HD
ATOM     13  H   UNL     1      -1.848  -0.184   0.842  0.00  0.00    -0.081 HD
ENDROOT
BRANCH   8  14
ATOM     14  C   UNL     1      -7.190  -2.449  -2.003  0.00  0.00    +0.012 A 
ATOM     15  C   UNL     1      -7.593  -3.282  -0.977  0.00  0.00    +0.024 A 
ATOM     16  C   UNL     1      -8.937  -3.547  -0.787  0.00  0.00    +0.018 A 
ATOM     17  C   UNL     1      -9.881  -2.980  -1.625  0.00  0.00    +0.019 A 
ATOM     18  C   UNL     1      -9.483  -2.147  -2.652  0.00  0.00    +0.047 A 
ATOM     19  C   UNL     1      -8.135  -1.875  -2.841  0.00  0.00    +0.122 A 
ATOM     20 BR   UNL     1      -9.485  -4.687   0.618  0.00  0.00    -0.050 Br
BRANCH  19  21
ATOM     21  O   UNL     1      -7.742  -1.052  -3.848  0.00  0.00    -0.506 OA
ATOM     22  H   UNL     1      -7.568  -1.507  -4.683  0.00  0.00    +0.292 HD
ENDBRANCH  19  21
ENDBRANCH   8  14
BRANCH  10  23
ATOM     23  C   UNL     1      -2.942  -3.490  -4.502  0.00  0.00    -0.001 A 
ATOM     24  C   UNL     1      -3.646  -3.986  -5.601  0.00  0.00    +0.010 A 
ATOM     25  C   UNL     1      -2.960  -4.446  -6.707  0.00  0.00    +0.004 A 
ATOM     26  C   UNL     1      -1.578  -4.417  -6.731  0.00  0.00    +0.045 A 
ATOM     27  C   UNL     1      -0.870  -3.925  -5.642  0.00  0.00    +0.121 A 
ATOM     28  C   UNL     1      -1.548  -3.456  -4.529  0.00  0.00    +0.055 A 
BRANCH  27  29
ATOM     29  O   UNL     1       0.488  -3.899  -5.671  0.00  0.00    -0.495 OA
ATOM     30  C   UNL     1       1.122  -4.394  -6.853  0.00  0.00    +0.277 C 
ENDBRANCH  27  29
ENDBRANCH  10  23
BRANCH   1  32
ATOM     31  C   UNL     1      -0.019   1.526   0.010  0.00  0.00    -0.014 C 
ATOM     32  C   UNL     1       0.002  -0.004   0.002  0.00  0.00    -0.075 C 
ATOM     33  C   UNL     1       0.742  -0.511   1.242  0.00  0.00    -0.014 C 
ENDBRANCH   1  32
TORSDOF 5
