REMARK  Name = ZINC08817131
REMARK  17 active torsions:
REMARK  status: ('A' for Active; 'I' for Inactive)
REMARK    1  A    between atoms: C_1  and  C_2
REMARK    2  A    between atoms: C_2  and  C_3
REMARK    3  A    between atoms: C_3  and  O_4
REMARK    4  A    between atoms: O_4  and  C_5
REMARK    5  A    between atoms: C_8  and  C_11
REMARK    6  A    between atoms: C_14  and  C_15
REMARK    7  A    between atoms: C_14  and  O_27
REMARK    8  A    between atoms: C_18  and  S_21
REMARK    9  A    between atoms: S_21  and  N_24
REMARK   10  A    between atoms: N_24  and  C_25
REMARK   11  A    between atoms: N_24  and  C_26
REMARK   12  A    between atoms: N_32  and  C_33
REMARK   13  A    between atoms: C_33  and  C_34
REMARK   14  A    between atoms: C_34  and  C_35
REMARK   15  A    between atoms: C_35  and  N_72
REMARK   16  A    between atoms: C_36  and  N_72
REMARK   17  A    between atoms: C_37  and  N_72
REMARK                            x       y       z     vdW  Elec       q    Type
REMARK                         _______ _______ _______ _____ _____    ______ ____
ROOT
ATOM      1  C   UNL     1      -0.716   3.377  -0.328  0.00  0.00    +0.144 C 
ATOM      2  C   UNL     1       0.794   3.450  -0.321  0.00  0.00    +0.071 C 
ATOM      3  C   UNL     1       1.569   4.542   0.011  0.00  0.00    +0.133 C 
ATOM      4  C   UNL     1       1.248   2.182  -0.720  0.00  0.00    +0.249 C 
ATOM      5  O   UNL     1       2.412   1.845  -0.837  0.00  0.00    -0.282 OA
ATOM      6  C   UNL     1       0.060   1.323  -0.975  0.00  0.00    +0.288 C 
ATOM      7  O   UNL     1       0.103   0.165  -1.336  0.00  0.00    -0.266 OA
ATOM      8  N   UNL     1      -1.068   2.019  -0.753  0.00  0.00    -0.284 N 
ENDROOT
BRANCH   1  12
ATOM      9  C   UNL     1      -2.305   6.220  -3.093  0.00  0.00    +0.121 A 
ATOM     10  C   UNL     1      -2.311   6.495  -1.734  0.00  0.00    +0.046 A 
ATOM     11  C   UNL     1      -1.797   5.574  -0.842  0.00  0.00    +0.009 A 
ATOM     12  C   UNL     1      -1.276   4.379  -1.303  0.00  0.00    -0.022 A 
ATOM     13  C   UNL     1      -1.264   4.105  -2.658  0.00  0.00    +0.009 A 
ATOM     14  C   UNL     1      -1.782   5.021  -3.554  0.00  0.00    +0.046 A 
BRANCH   9  15
ATOM     15  O   UNL     1      -2.810   7.125  -3.973  0.00  0.00    -0.492 OA
BRANCH  15  16
ATOM     16  C   UNL     1      -2.771   6.775  -5.358  0.00  0.00    +0.229 C 
BRANCH  16  18
ATOM     17  C   UNL     1      -3.336   7.533  -7.670  0.00  0.00    +0.007 C 
ATOM     18  C   UNL     1      -3.378   7.908  -6.188  0.00  0.00    +0.038 C 
ENDBRANCH  16  18
ENDBRANCH  15  16
ENDBRANCH   9  15
ENDBRANCH   1  12
BRANCH   3  19
ATOM     19  C   UNL     1       3.033   4.404   0.108  0.00  0.00    +0.017 A 
ATOM     20  C   UNL     1       3.593   3.388   0.890  0.00  0.00    +0.013 A 
ATOM     21  C   UNL     1       4.963   3.261   0.971  0.00  0.00    +0.029 A 
ATOM     22  C   UNL     1       5.785   4.144   0.290  0.00  0.00    +0.105 A 
ATOM     23  C   UNL     1       5.238   5.155  -0.480  0.00  0.00    +0.029 A 
ATOM     24  C   UNL     1       3.870   5.291  -0.576  0.00  0.00    +0.013 A 
BRANCH  22  25
ATOM     25  S   UNL     1       7.535   3.978   0.406  0.00  0.00    +0.060 S 
ATOM     26  O   UNL     1       7.793   2.623   0.747  0.00  0.00    -0.153 OA
ATOM     27  O   UNL     1       8.079   4.588  -0.757  0.00  0.00    -0.153 OA
BRANCH  25  28
ATOM     28  N   UNL     1       8.030   4.893   1.695  0.00  0.00    -0.183 NA
ATOM     29  C   UNL     1       8.103   4.297   3.031  0.00  0.00    +0.131 C 
ATOM     30  C   UNL     1       8.393   6.299   1.498  0.00  0.00    +0.131 C 
ENDBRANCH  25  28
ENDBRANCH  22  25
ENDBRANCH   3  19
BRANCH   3  31
ATOM     31  O   UNL     1       0.987   5.736   0.247  0.00  0.00    -0.506 OA
ATOM     32  H   UNL     1       1.690   6.411   0.472  0.00  0.00    +0.292 HD
ENDBRANCH   3  31
BRANCH   8  33
ATOM     33  C   UNL     1      -2.430   1.502  -0.907  0.00  0.00    +0.107 C 
BRANCH  33  34
ATOM     34  C   UNL     1      -2.898   0.894   0.416  0.00  0.00    +0.000 C 
BRANCH  34  35
ATOM     35  C   UNL     1      -4.321   0.355   0.255  0.00  0.00    -0.078 C 
BRANCH  35  38
ATOM     36  C   UNL     1      -6.205  -0.542   1.484  0.00  0.00    -0.097 C 
ATOM     37  C   UNL     1      -3.981  -1.421   1.866  0.00  0.00    -0.097 C 
ATOM     38  N   UNL     1      -4.766  -0.210   1.547  0.00  0.00    +0.376 N 
ATOM     39  H   UNL     1      -4.617   0.488   2.285  0.00  0.00    -0.083 HD
ENDBRANCH  35  38
ENDBRANCH  34  35
ENDBRANCH  33  34
ENDBRANCH   8  33
TORSDOF 12
