REMARK  Name = ZINC63428732
REMARK  9 active torsions:
REMARK  status: ('A' for Active; 'I' for Inactive)
REMARK    1  A    between atoms: C_1  and  C_2
REMARK    2  A    between atoms: C_2  and  C_3
REMARK    3  A    between atoms: C_3  and  C_4
REMARK    4  A    between atoms: C_6  and  C_18
REMARK    5  A    between atoms: C_8  and  C_16
REMARK    6  A    between atoms: C_9  and  N_15
REMARK    7  A    between atoms: C_21  and  O_24
REMARK    8  A    between atoms: O_24  and  C_25
REMARK    9  A    between atoms: C_25  and  C_27
REMARK                            x       y       z     vdW  Elec       q    Type
REMARK                         _______ _______ _______ _____ _____    ______ ____
ROOT
ATOM      1  C   UNL     1       0.668  -1.916  -1.135  0.00  0.00    +0.069 C 
ATOM      2  C   UNL     1      -0.128  -2.714  -1.804  0.00  0.00    +0.030 C 
ATOM      3  C   UNL     1      -1.206  -2.484  -2.828  0.00  0.00    +0.098 C 
ATOM      4  C   UNL     1      -0.995  -3.550  -3.887  0.00  0.00    +0.097 C 
ATOM      5  C   UNL     1      -0.118  -4.560  -3.712  0.00  0.00    +0.195 C 
ATOM      6  O   UNL     1       0.681  -4.755  -2.648  0.00  0.00    -0.448 OA
ATOM      7  C   UNL     1       0.309  -4.128  -1.418  0.00  0.00    +0.343 C 
ATOM      8  N   UNL     1       1.467  -3.865  -0.557  0.00  0.00    -0.138 NA
ATOM      9  N   UNL     1       1.584  -2.638  -0.440  0.00  0.00    -0.155 NA
ENDROOT
BRANCH   3  10
ATOM     10  C   UNL     1      -1.066  -1.111  -3.432  0.00  0.00    -0.035 A 
ATOM     11  C   UNL     1       0.092  -0.767  -4.105  0.00  0.00    +0.008 A 
ATOM     12  C   UNL     1       0.223   0.491  -4.660  0.00  0.00    +0.046 A 
ATOM     13  C   UNL     1      -0.809   1.411  -4.541  0.00  0.00    +0.132 A 
ATOM     14  C   UNL     1      -1.970   1.064  -3.865  0.00  0.00    +0.046 A 
ATOM     15  C   UNL     1      -2.098  -0.197  -3.317  0.00  0.00    +0.008 A 
BRANCH  13  16
ATOM     16  O   UNL     1      -0.683   2.650  -5.086  0.00  0.00    -0.422 OA
BRANCH  16  17
ATOM     17  C   UNL     1      -0.682   2.753  -6.429  0.00  0.00    +0.346 C 
ATOM     18  O   UNL     1      -0.896   1.772  -7.114  0.00  0.00    -0.244 OA
BRANCH  17  19
ATOM     19  C   UNL     1      -0.420   4.057  -7.069  0.00  0.00    +0.078 A 
ATOM     20  C   UNL     1      -0.168   5.186  -6.285  0.00  0.00    +0.016 A 
ATOM     21  C   UNL     1       0.076   6.401  -6.889  0.00  0.00    +0.001 A 
ATOM     22  C   UNL     1       0.071   6.505  -8.270  0.00  0.00    +0.001 A 
ATOM     23  C   UNL     1      -0.178   5.394  -9.053  0.00  0.00    +0.021 A 
ATOM     24  C   UNL     1      -0.418   4.168  -8.462  0.00  0.00    +0.055 A 
ATOM     25 CL   UNL     1      -0.724   2.772  -9.447  0.00  0.00    -0.083 Cl
ENDBRANCH  17  19
ENDBRANCH  16  17
ENDBRANCH  13  16
ENDBRANCH   3  10
BRANCH   5  26
ATOM     26  N   UNL     1      -0.032  -5.483  -4.724  0.00  0.00    -0.329 N 
ATOM     27  H   UNL     1      -0.587  -5.389  -5.514  0.00  0.00    +0.145 HD
ATOM     28  H   UNL     1       0.583  -6.229  -4.649  0.00  0.00    +0.145 HD
ENDBRANCH   5  26
BRANCH   4  29
ATOM     29  C   UNL     1      -1.748  -3.482  -5.104  0.00  0.00    +0.101 C 
ATOM     30  N   UNL     1      -2.344  -3.429  -6.069  0.00  0.00    -0.191 NA
ENDBRANCH   4  29
BRANCH   1  31
ATOM     31  C   UNL     1       0.583  -0.411  -1.141  0.00  0.00    +0.057 C 
BRANCH  31  33
ATOM     32  C   UNL     1      -0.326   1.586   0.054  0.00  0.00    +0.004 C 
ATOM     33  C   UNL     1      -0.239   0.058   0.060  0.00  0.00    +0.003 C 
ENDBRANCH  31  33
ENDBRANCH   1  31
TORSDOF 8
