REMARK  Name = ZINC42955115
REMARK  8 active torsions:
REMARK  status: ('A' for Active; 'I' for Inactive)
REMARK    1  A    between atoms: C_1  and  C_2
REMARK    2  A    between atoms: C_2  and  C_4
REMARK    3  A    between atoms: C_2  and  N_23
REMARK    4  A    between atoms: C_4  and  C_6
REMARK    5  A    between atoms: C_4  and  N_13
REMARK    6  A    between atoms: N_13  and  C_14
REMARK    7  A    between atoms: N_13  and  C_18
REMARK    8  A    between atoms: C_14  and  C_15
REMARK                            x       y       z     vdW  Elec       q    Type
REMARK                         _______ _______ _______ _____ _____    ______ ____
ROOT
ATOM      1  C   UNL     1       0.928  -0.676   1.324  0.00  0.00    +0.073 C 
ENDROOT
BRANCH   1   2
ATOM      2  C   UNL     1       2.301  -0.076   1.160  0.00  0.00    -0.032 A 
ATOM      3  C   UNL     1       2.488   1.282   1.338  0.00  0.00    +0.006 A 
ATOM      4  C   UNL     1       3.747   1.832   1.188  0.00  0.00    +0.015 A 
ATOM      5  C   UNL     1       4.820   1.023   0.859  0.00  0.00    +0.018 A 
ATOM      6  C   UNL     1       4.632  -0.336   0.681  0.00  0.00    +0.015 A 
ATOM      7  C   UNL     1       3.374  -0.886   0.837  0.00  0.00    +0.006 A 
ATOM      8 BR   UNL     1       6.543   1.775   0.653  0.00  0.00    -0.050 Br
ENDBRANCH   1   2
BRANCH   1  10
ATOM      9  C   UNL     1       0.040   1.060  -0.239  0.00  0.00    -0.012 C 
ATOM     10  C   UNL     1       0.113  -0.441   0.050  0.00  0.00    -0.056 C 
BRANCH  10  11
ATOM     11  N   UNL     1       0.759  -1.126  -1.077  0.00  0.00    +0.381 N 
ATOM     12  H   UNL     1       1.692  -0.762  -1.203  0.00  0.00    -0.090 HD
ATOM     13  H   UNL     1       0.807  -2.116  -0.887  0.00  0.00    -0.090 HD
ATOM     14  H   UNL     1       0.222  -0.971  -1.917  0.00  0.00    -0.090 HD
ENDBRANCH  10  11
ENDBRANCH   1  10
BRANCH   1  15
ATOM     15  N   UNL     1       0.250  -0.042   2.462  0.00  0.00    -0.286 NA
BRANCH  15  16
ATOM     16  C   UNL     1      -1.060  -0.660   2.706  0.00  0.00    +0.058 C 
ATOM     17  C   UNL     1      -1.101  -2.073   2.088  0.00  0.00    +0.019 C 
ATOM     18  C   UNL     1      -2.545  -2.209   1.545  0.00  0.00    +0.002 C 
ATOM     19  C   UNL     1      -2.839  -0.790   0.997  0.00  0.00    +0.002 C 
ATOM     20  C   UNL     1      -2.165   0.155   2.013  0.00  0.00    +0.019 C 
ENDBRANCH  15  16
BRANCH  15  21
ATOM     21  C   UNL     1       1.088  -0.091   3.668  0.00  0.00    +0.181 C 
BRANCH  21  22
ATOM     22  C   UNL     1       0.580   0.910   4.674  0.00  0.00    +0.225 C 
ATOM     23  O   UNL     1      -0.427   1.545   4.442  0.00  0.00    -0.275 OA
ATOM     24  N   UNL     1       1.244   1.098   5.831  0.00  0.00    -0.328 N 
ATOM     25  H   UNL     1       2.050   0.590   6.017  0.00  0.00    +0.145 HD
ATOM     26  H   UNL     1       0.917   1.742   6.479  0.00  0.00    +0.145 HD
ENDBRANCH  21  22
ENDBRANCH  15  21
ENDBRANCH   1  15
TORSDOF 7
