REMARK  Name = ZINC20985992
REMARK  2 active torsions:
REMARK  status: ('A' for Active; 'I' for Inactive)
REMARK    1  A    between atoms: C_1  and  C_2
REMARK    2  A    between atoms: N_6  and  N_7
REMARK                            x       y       z     vdW  Elec       q    Type
REMARK                         _______ _______ _______ _____ _____    ______ ____
ROOT
ATOM      1  N   UNL     1       0.921   7.275   0.066  0.00  0.00    -0.221 N 
ATOM      2  C   UNL     1       1.005   5.909  -0.159  0.00  0.00    +0.139 A 
ATOM      3  C   UNL     1       2.262   5.287  -0.139  0.00  0.00    +0.046 A 
ATOM      4  C   UNL     1       2.359   3.946  -0.358  0.00  0.00    +0.013 A 
ATOM      5  C   UNL     1       1.174   3.221  -0.601  0.00  0.00    +0.001 A 
ATOM      6  C   UNL     1       1.201   1.837  -0.834  0.00  0.00    +0.010 A 
ATOM      7  C   UNL     1       0.037   1.169  -1.065  0.00  0.00    +0.001 A 
ATOM      8  C   UNL     1      -1.182   1.843  -1.079  0.00  0.00    +0.002 A 
ATOM      9  C   UNL     1      -1.246   3.184  -0.853  0.00  0.00    +0.028 A 
ATOM     10  C   UNL     1      -0.065   3.907  -0.610  0.00  0.00    +0.073 A 
ATOM     11  N   UNL     1      -0.099   5.226  -0.388  0.00  0.00    -0.231 NA
ATOM     12  H   UNL     1       1.835   7.857   0.258  0.00  0.00    +0.176 HD
ENDROOT
BRANCH   1  18
ATOM     13  C   UNL     1      -0.712  13.088  -1.591  0.00  0.00    +0.007 C 
ATOM     14  C   UNL     1      -0.593  11.922  -0.607  0.00  0.00    -0.013 C 
ATOM     15  C   UNL     1      -1.803  11.000  -0.764  0.00  0.00    +0.009 C 
ATOM     16  C   UNL     1      -1.731   9.884   0.283  0.00  0.00    +0.053 C 
ATOM     17  C   UNL     1      -0.395   9.187   0.152  0.00  0.00    +0.037 C 
ATOM     18  N   UNL     1      -0.326   7.913   0.048  0.00  0.00    -0.190 NA
ATOM     19  C   UNL     1       0.859  10.034   0.155  0.00  0.00    +0.053 C 
ATOM     20  C   UNL     1       0.693  11.145  -0.894  0.00  0.00    +0.009 C 
ENDBRANCH   1  18
TORSDOF 1
