REMARK  Name = ZINC63234525
REMARK  6 active torsions:
REMARK  status: ('A' for Active; 'I' for Inactive)
REMARK    1  A    between atoms: C_7  and  C_10
REMARK    2  A    between atoms: C_10  and  C_11
REMARK    3  A    between atoms: C_11  and  C_12
REMARK    4  A    between atoms: C_12  and  C_13
REMARK    5  A    between atoms: N_15  and  C_16
REMARK    6  A    between atoms: C_19  and  C_22
REMARK                            x       y       z     vdW  Elec       q    Type
REMARK                         _______ _______ _______ _____ _____    ______ ____
ROOT
ATOM      1  C   UNL     1      -1.111  -5.099  -2.897  0.00  0.00    +0.217 C 
ATOM      2  O   UNL     1      -0.917  -4.349  -3.830  0.00  0.00    -0.275 OA
ATOM      3  N   UNL     1      -1.542  -6.356  -3.120  0.00  0.00    -0.285 N 
ATOM      4  H   UNL     1      -1.632  -6.977  -2.381  0.00  0.00    +0.155 HD
ENDROOT
BRANCH   3   5
ATOM      5  C   UNL     1      -1.859  -6.765  -4.419  0.00  0.00    +0.033 A 
ATOM      6  C   UNL     1      -1.122  -6.287  -5.496  0.00  0.00    +0.024 A 
ATOM      7  C   UNL     1      -1.432  -6.689  -6.777  0.00  0.00    +0.013 A 
ATOM      8  C   UNL     1      -2.487  -7.577  -6.993  0.00  0.00    +0.019 A 
ATOM      9  C   UNL     1      -3.225  -8.056  -5.909  0.00  0.00    +0.013 A 
ATOM     10  C   UNL     1      -2.907  -7.654  -4.629  0.00  0.00    +0.024 A 
BRANCH   8  11
ATOM     11  C   UNL     1      -2.822  -8.010  -8.366  0.00  0.00    +0.164 A 
ATOM     12  N   UNL     1      -2.468  -7.415  -9.486  0.00  0.00    -0.129 NA
ATOM     13  N   UNL     1      -2.929  -8.071 -10.492  0.00  0.00    -0.134 NA
ATOM     14  C   UNL     1      -3.594  -9.112 -10.078  0.00  0.00    +0.134 A 
ATOM     15  N   UNL     1      -3.554  -9.107  -8.718  0.00  0.00    -0.311 N 
ATOM     16  C   UNL     1      -4.187 -10.076  -7.824  0.00  0.00    +0.125 C 
ATOM     17  C   UNL     1      -4.294 -11.428  -8.535  0.00  0.00    +0.022 C 
ATOM     18  C   UNL     1      -5.613 -11.504  -9.303  0.00  0.00    +0.002 C 
ATOM     19  C   UNL     1      -5.676 -10.415 -10.370  0.00  0.00    +0.008 C 
ATOM     20  C   UNL     1      -4.279 -10.153 -10.925  0.00  0.00    +0.076 C 
ENDBRANCH   8  11
ENDBRANCH   3   5
BRANCH   1  21
ATOM     21  C   UNL     1      -0.871  -4.625  -1.487  0.00  0.00    +0.096 C 
BRANCH  21  22
ATOM     22  C   UNL     1      -0.390  -3.172  -1.512  0.00  0.00    +0.014 C 
BRANCH  22  23
ATOM     23  C   UNL     1      -0.145  -2.691  -0.081  0.00  0.00    +0.033 C 
BRANCH  23  30
ATOM     24  C   UNL     1      -2.348   1.312   0.349  0.00  0.00    +0.001 A 
ATOM     25  C   UNL     1      -1.505   2.429   0.261  0.00  0.00    +0.002 A 
ATOM     26  C   UNL     1      -0.173   2.325   0.070  0.00  0.00    +0.026 A 
ATOM     27  C   UNL     1       0.437   1.046  -0.054  0.00  0.00    +0.043 A 
ATOM     28  N   UNL     1       1.684   0.689  -0.242  0.00  0.00    -0.380 N 
ATOM     29  C   UNL     1       1.749  -0.776  -0.294  0.00  0.00    +0.144 C 
ATOM     30  C   UNL     1       0.328  -1.260  -0.106  0.00  0.00    -0.042 C 
ATOM     31  C   UNL     1      -0.431  -0.150   0.035  0.00  0.00    -0.001 A 
ATOM     32  C   UNL     1      -1.870   0.051   0.245  0.00  0.00    +0.010 A 
ATOM     33  H   UNL     1       2.439   1.292  -0.332  0.00  0.00    +0.160 HD
ENDBRANCH  23  30
ENDBRANCH  22  23
ENDBRANCH  21  22
ENDBRANCH   1  21
TORSDOF 6
