REMARK  Name = ZINC36570638
REMARK  13 active torsions:
REMARK  status: ('A' for Active; 'I' for Inactive)
REMARK    1  A    between atoms: C_1  and  C_2
REMARK    2  A    between atoms: C_2  and  C_3
REMARK    3  A    between atoms: C_3  and  N_4
REMARK    4  A    between atoms: N_4  and  C_5
REMARK    5  A    between atoms: C_5  and  C_7
REMARK    6  A    between atoms: C_5  and  C_14
REMARK    7  A    between atoms: C_10  and  O_13
REMARK    8  A    between atoms: N_16  and  C_17
REMARK    9  A    between atoms: C_17  and  S_18
REMARK   10  A    between atoms: S_18  and  C_21
REMARK   11  A    between atoms: C_24  and  C_27
REMARK   12  A    between atoms: C_28  and  C_30
REMARK   13  A    between atoms: C_33  and  O_36
REMARK                            x       y       z     vdW  Elec       q    Type
REMARK                         _______ _______ _______ _____ _____    ______ ____
ROOT
ATOM      1  C   UNL     1      -0.461  -2.786  -2.054  0.00  0.00    +0.192 C 
ENDROOT
BRANCH   1   2
ATOM      2  C   UNL     1      -1.733  -2.230  -1.467  0.00  0.00    -0.018 A 
ATOM      3  C   UNL     1      -1.901  -0.863  -1.353  0.00  0.00    +0.009 A 
ATOM      4  C   UNL     1      -3.066  -0.351  -0.815  0.00  0.00    +0.046 A 
ATOM      5  C   UNL     1      -4.068  -1.211  -0.390  0.00  0.00    +0.117 A 
ATOM      6  C   UNL     1      -3.898  -2.583  -0.506  0.00  0.00    +0.046 A 
ATOM      7  C   UNL     1      -2.733  -3.089  -1.049  0.00  0.00    +0.009 A 
BRANCH   5   8
ATOM      8  O   UNL     1      -5.215  -0.710   0.140  0.00  0.00    -0.507 OA
ATOM      9  H   UNL     1      -5.909  -0.541  -0.512  0.00  0.00    +0.292 HD
ENDBRANCH   5   8
ENDBRANCH   1   2
BRANCH   1  10
ATOM     10  C   UNL     1      -0.474  -2.599  -3.549  0.00  0.00    +0.239 C 
ATOM     11  O   UNL     1       0.440  -2.018  -4.096  0.00  0.00    -0.273 OA
ATOM     12  N   UNL     1      -1.501  -3.077  -4.279  0.00  0.00    -0.294 N 
ATOM     13  H   UNL     1      -2.232  -3.542  -3.842  0.00  0.00    +0.150 HD
BRANCH  12  14
ATOM     14  C   UNL     1      -1.513  -2.896  -5.733  0.00  0.00    +0.278 C 
BRANCH  14  15
ATOM     15  S   UNL     1      -0.824  -4.370  -6.533  0.00  0.00    +0.013 S 
ATOM     16  O   UNL     1      -0.887  -4.236  -7.946  0.00  0.00    -0.168 OA
ATOM     17  O   UNL     1       0.388  -4.752  -5.895  0.00  0.00    -0.168 OA
BRANCH  15  18
ATOM     18  C   UNL     1      -1.958  -5.664  -6.153  0.00  0.00    +0.090 A 
ATOM     19  C   UNL     1      -1.789  -6.418  -5.007  0.00  0.00    +0.027 A 
ATOM     20  C   UNL     1      -2.679  -7.432  -4.709  0.00  0.00    +0.005 A 
ATOM     21  C   UNL     1      -3.739  -7.693  -5.557  0.00  0.00    -0.050 A 
ATOM     22  C   UNL     1      -3.909  -6.938  -6.703  0.00  0.00    +0.005 A 
ATOM     23  C   UNL     1      -3.022  -5.921  -6.998  0.00  0.00    +0.027 A 
ATOM     24  C   UNL     1      -4.709  -8.800  -5.233  0.00  0.00    +0.044 C 
ENDBRANCH  15  18
ENDBRANCH  14  15
ENDBRANCH  12  14
ENDBRANCH   1  10
BRANCH   1  25
ATOM     25  N   UNL     1       0.689  -2.080  -1.484  0.00  0.00    -0.282 N 
ATOM     26  C   UNL     1       1.026  -2.273  -0.193  0.00  0.00    +0.247 C 
ATOM     27  O   UNL     1       2.030  -1.756   0.257  0.00  0.00    -0.270 OA
BRANCH  26  28
ATOM     28  C   UNL     1       0.176  -3.113   0.674  0.00  0.00    +0.037 A 
ATOM     29  C   UNL     1      -0.912  -3.803   0.132  0.00  0.00    +0.016 A 
ATOM     30  C   UNL     1      -1.702  -4.585   0.944  0.00  0.00    +0.046 A 
ATOM     31  C   UNL     1      -1.420  -4.689   2.301  0.00  0.00    +0.117 A 
ATOM     32  C   UNL     1      -0.339  -4.004   2.844  0.00  0.00    +0.046 A 
ATOM     33  C   UNL     1       0.460  -3.224   2.038  0.00  0.00    +0.016 A 
BRANCH  31  34
ATOM     34  O   UNL     1      -2.201  -5.460   3.098  0.00  0.00    -0.507 OA
ATOM     35  H   UNL     1      -1.907  -6.379   3.168  0.00  0.00    +0.292 HD
ENDBRANCH  31  34
ENDBRANCH  26  28
BRANCH  25  36
ATOM     36  C   UNL     1       1.473  -1.164  -2.316  0.00  0.00    +0.109 C 
BRANCH  36  38
ATOM     37  C   UNL     1       3.266  -1.019  -4.050  0.00  0.00    +0.005 C 
ATOM     38  C   UNL     1       2.531  -1.955  -3.087  0.00  0.00    +0.016 C 
ENDBRANCH  36  38
ENDBRANCH  25  36
ENDBRANCH   1  25
TORSDOF 11
