REMARK  Name = ZINC52541681
REMARK  13 active torsions:
REMARK  status: ('A' for Active; 'I' for Inactive)
REMARK    1  A    between atoms: C_1  and  C_2
REMARK    2  A    between atoms: C_4  and  C_33
REMARK    3  A    between atoms: C_6  and  C_8
REMARK    4  A    between atoms: C_10  and  C_18
REMARK    5  A    between atoms: C_18  and  C_19
REMARK    6  A    between atoms: C_19  and  N_20
REMARK    7  A    between atoms: N_20  and  C_21
REMARK    8  A    between atoms: C_21  and  C_22
REMARK    9  A    between atoms: C_22  and  C_23
REMARK   10  A    between atoms: C_23  and  C_24
REMARK   11  A    between atoms: C_24  and  C_25
REMARK   12  A    between atoms: C_28  and  O_31
REMARK   13  A    between atoms: O_31  and  C_32
REMARK                            x       y       z     vdW  Elec       q    Type
REMARK                         _______ _______ _______ _____ _____    ______ ____
ROOT
ATOM      1  C   UNL     1       0.054  -2.844   2.489  0.00  0.00    +0.137 C 
ATOM      2  C   UNL     1       1.450  -2.855   3.068  0.00  0.00    -0.036 C 
ATOM      3  C   UNL     1       1.363  -2.237   4.268  0.00  0.00    -0.001 A 
ATOM      4  C   UNL     1       2.357  -1.933   5.305  0.00  0.00    +0.010 A 
ATOM      5  C   UNL     1       1.959  -1.288   6.426  0.00  0.00    +0.001 A 
ATOM      6  C   UNL     1       0.626  -0.904   6.621  0.00  0.00    +0.002 A 
ATOM      7  C   UNL     1      -0.344  -1.148   5.714  0.00  0.00    +0.026 A 
ATOM      8  C   UNL     1      -0.039  -1.820   4.499  0.00  0.00    +0.043 A 
ATOM      9  N   UNL     1      -0.790  -2.168   3.480  0.00  0.00    -0.374 N 
ATOM     10  H   UNL     1      -1.743  -2.006   3.397  0.00  0.00    +0.161 HD
ENDROOT
BRANCH   1  16
ATOM     11  C   UNL     1      -0.018   1.503   0.010  0.00  0.00    +0.044 C 
ATOM     12  C   UNL     1       0.002  -0.004   0.002  0.00  0.00    -0.050 A 
ATOM     13  C   UNL     1       0.006  -0.689  -1.199  0.00  0.00    +0.006 A 
ATOM     14  C   UNL     1       0.025  -2.071  -1.206  0.00  0.00    -0.050 A 
ATOM     15  C   UNL     1       0.040  -2.768  -0.013  0.00  0.00    +0.009 A 
ATOM     16  C   UNL     1       0.037  -2.084   1.188  0.00  0.00    -0.021 A 
ATOM     17  C   UNL     1       0.023  -0.702   1.195  0.00  0.00    +0.009 A 
ATOM     18  C   UNL     1       0.027  -2.817  -2.516  0.00  0.00    +0.044 C 
ENDBRANCH   1  16
BRANCH   2  19
ATOM     19  C   UNL     1       2.689  -3.437   2.437  0.00  0.00    +0.015 C 
BRANCH  19  20
ATOM     20  C   UNL     1       3.883  -3.228   3.370  0.00  0.00    -0.078 C 
BRANCH  20  21
ATOM     21  N   UNL     1       5.091  -3.795   2.755  0.00  0.00    +0.379 N 
ATOM     22  H   UNL     1       4.956  -4.783   2.598  0.00  0.00    -0.086 HD
ATOM     23  H   UNL     1       5.267  -3.336   1.875  0.00  0.00    -0.086 HD
BRANCH  21  24
ATOM     24  C   UNL     1       6.237  -3.595   3.651  0.00  0.00    -0.083 C 
BRANCH  24  25
ATOM     25  C   UNL     1       7.495  -4.185   3.010  0.00  0.00    -0.019 C 
BRANCH  25  26
ATOM     26  C   UNL     1       8.689  -3.976   3.943  0.00  0.00    +0.003 C 
BRANCH  26  27
ATOM     27  C   UNL     1       9.947  -4.567   3.303  0.00  0.00    +0.036 C 
BRANCH  27  28
ATOM     28  C   UNL     1      11.123  -4.361   4.222  0.00  0.00    -0.029 A 
ATOM     29  C   UNL     1      11.894  -3.210   4.128  0.00  0.00    +0.010 A 
ATOM     30  C   UNL     1      12.965  -3.061   4.991  0.00  0.00    +0.067 A 
ATOM     31  C   UNL     1      13.231  -4.061   5.917  0.00  0.00    +0.214 A 
ATOM     32  N   UNL     1      12.474  -5.144   5.976  0.00  0.00    -0.221 NA
ATOM     33  C   UNL     1      11.442  -5.312   5.170  0.00  0.00    +0.118 A 
BRANCH  31  34
ATOM     34  O   UNL     1      14.278  -3.927   6.769  0.00  0.00    -0.480 OA
ATOM     35  C   UNL     1      14.499  -4.990   7.698  0.00  0.00    +0.279 C 
ENDBRANCH  31  34
ENDBRANCH  27  28
ENDBRANCH  26  27
ENDBRANCH  25  26
ENDBRANCH  24  25
ENDBRANCH  21  24
ENDBRANCH  20  21
ENDBRANCH  19  20
ENDBRANCH   2  19
TORSDOF 10
