REMARK  Name = ZINC39518405
REMARK  7 active torsions:
REMARK  status: ('A' for Active; 'I' for Inactive)
REMARK    1  A    between atoms: C_1  and  O_2
REMARK    2  A    between atoms: O_2  and  C_3
REMARK    3  A    between atoms: C_5  and  C_10
REMARK    4  A    between atoms: C_8  and  O_9
REMARK    5  A    between atoms: C_11  and  C_12
REMARK    6  A    between atoms: C_12  and  N_13
REMARK    7  A    between atoms: C_19  and  C_23
REMARK                            x       y       z     vdW  Elec       q    Type
REMARK                         _______ _______ _______ _____ _____    ______ ____
ROOT
ATOM      1  N   UNL     1       3.147   0.098   7.599  0.00  0.00    +0.385 N 
ATOM      2  C   UNL     1       1.710   0.402   7.647  0.00  0.00    -0.072 C 
ATOM      3  C   UNL     1       1.068  -0.296   8.854  0.00  0.00    +0.038 C 
ATOM      4  C   UNL     1       1.898   0.037  10.075  0.00  0.00    +0.059 C 
ATOM      5  C   UNL     1       3.138   0.534   9.971  0.00  0.00    -0.035 C 
ATOM      6  C   UNL     1       3.847   0.814   8.681  0.00  0.00    -0.043 C 
ATOM      7  C   UNL     1       3.598   0.722  11.392  0.00  0.00    +0.155 C 
ATOM      8  N   UNL     1       2.435   0.254  12.172  0.00  0.00    -0.297 N 
ATOM      9  N   UNL     1       1.560  -0.099  11.373  0.00  0.00    -0.182 NA
ATOM     10  H   UNL     1       2.369   0.228  13.139  0.00  0.00    +0.183 HD
ATOM     11  H   UNL     1       3.282  -0.895   7.713  0.00  0.00    -0.081 HD
ENDROOT
BRANCH   7  12
ATOM     12  C   UNL     1       4.813  -0.122  11.677  0.00  0.00    -0.020 A 
ATOM     13  C   UNL     1       4.669  -1.470  11.950  0.00  0.00    +0.006 A 
ATOM     14  C   UNL     1       5.784  -2.244  12.211  0.00  0.00    +0.000 A 
ATOM     15  C   UNL     1       7.042  -1.672  12.199  0.00  0.00    +0.000 A 
ATOM     16  C   UNL     1       7.186  -0.325  11.925  0.00  0.00    +0.000 A 
ATOM     17  C   UNL     1       6.071   0.449  11.659  0.00  0.00    +0.006 A 
ENDBRANCH   7  12
BRANCH   1  18
ATOM     18  C   UNL     1       3.691   0.520   6.302  0.00  0.00    -0.051 C 
BRANCH  18  20
ATOM     19  C   UNL     1       2.456   0.305   4.191  0.00  0.00    +0.002 C 
ATOM     20  C   UNL     1       3.064  -0.298   5.204  0.00  0.00    -0.045 C 
BRANCH  19  23
ATOM     21  C   UNL     1       0.626  -0.619   1.042  0.00  0.00    +0.162 A 
ATOM     22  C   UNL     1       1.200   0.137   2.048  0.00  0.00    +0.057 A 
ATOM     23  C   UNL     1       1.840  -0.497   3.114  0.00  0.00    -0.022 A 
ATOM     24  C   UNL     1       1.898  -1.891   3.160  0.00  0.00    +0.012 A 
ATOM     25  C   UNL     1       1.323  -2.639   2.154  0.00  0.00    +0.050 A 
ATOM     26  C   UNL     1       0.682  -2.009   1.097  0.00  0.00    +0.158 A 
BRANCH  21  28
ATOM     27  C   UNL     1      -0.017   1.425   0.010  0.00  0.00    +0.277 C 
ATOM     28  O   UNL     1       0.002  -0.004   0.002  0.00  0.00    -0.491 OA
ENDBRANCH  21  28
BRANCH  26  29
ATOM     29  O   UNL     1       0.112  -2.751   0.111  0.00  0.00    -0.503 OA
ATOM     30  H   UNL     1       0.708  -2.953  -0.624  0.00  0.00    +0.292 HD
ENDBRANCH  26  29
ENDBRANCH  19  23
ENDBRANCH  18  20
ENDBRANCH   1  18
TORSDOF 6
