REMARK  Name = ZINC42603004
REMARK  5 active torsions:
REMARK  status: ('A' for Active; 'I' for Inactive)
REMARK    1  A    between atoms: C_1  and  C_2
REMARK    2  A    between atoms: C_8  and  N_10
REMARK    3  A    between atoms: N_10  and  C_11
REMARK    4  A    between atoms: N_10  and  C_12
REMARK    5  A    between atoms: C_17  and  N_18
REMARK                            x       y       z     vdW  Elec       q    Type
REMARK                         _______ _______ _______ _____ _____    ______ ____
ROOT
ATOM      1  C   UNL     1      -0.987   0.580   2.498  0.00  0.00    +0.051 A 
ATOM      2  C   UNL     1      -2.135  -0.191   2.595  0.00  0.00    +0.026 A 
ATOM      3  C   UNL     1      -3.374   0.418   2.660  0.00  0.00    +0.017 A 
ATOM      4  C   UNL     1      -3.474   1.798   2.628  0.00  0.00    +0.020 A 
ATOM      5  C   UNL     1      -2.333   2.575   2.533  0.00  0.00    +0.039 A 
ATOM      6  C   UNL     1      -1.086   1.971   2.473  0.00  0.00    +0.047 A 
ATOM      7 BR   UNL     1      -5.172   2.624   2.717  0.00  0.00    -0.050 Br
ENDROOT
BRANCH   6   8
ATOM      8  N   UNL     1       0.070   2.756   2.381  0.00  0.00    -0.357 N 
ATOM      9  H   UNL     1       0.941   2.332   2.335  0.00  0.00    +0.142 HD
ATOM     10  H   UNL     1      -0.000   3.723   2.363  0.00  0.00    +0.142 HD
ENDBRANCH   6   8
BRANCH   1  11
ATOM     11  N   UNL     1       0.269  -0.035   2.433  0.00  0.00    -0.328 N 
ATOM     12  C   UNL     1       1.015  -0.311   3.663  0.00  0.00    +0.129 C 
BRANCH  11  19
ATOM     13  C   UNL     1       0.199   1.832   0.220  0.00  0.00    +0.009 C 
ATOM     14  C   UNL     1       0.077   0.320   0.021  0.00  0.00    +0.006 C 
ATOM     15  C   UNL     1      -1.398  -0.083   0.065  0.00  0.00    +0.005 C 
ATOM     16  C   UNL     1      -1.519  -1.595  -0.135  0.00  0.00    +0.000 C 
ATOM     17  C   UNL     1      -0.759  -2.319   0.978  0.00  0.00    +0.002 C 
ATOM     18  C   UNL     1       0.716  -1.916   0.934  0.00  0.00    +0.023 C 
ATOM     19  C   UNL     1       0.838  -0.404   1.134  0.00  0.00    +0.076 C 
ENDBRANCH  11  19
ENDBRANCH   1  11
TORSDOF 3
