REMARK  Name = ZINC09088390
REMARK  13 active torsions:
REMARK  status: ('A' for Active; 'I' for Inactive)
REMARK    1  A    between atoms: C_1  and  N_61
REMARK    2  A    between atoms: C_2  and  C_3
REMARK    3  A    between atoms: C_2  and  N_61
REMARK    4  A    between atoms: C_9  and  C_10
REMARK    5  A    between atoms: C_9  and  N_61
REMARK    6  A    between atoms: C_11  and  O_33
REMARK    7  A    between atoms: C_18  and  C_19
REMARK    8  A    between atoms: C_22  and  O_29
REMARK    9  A    between atoms: C_23  and  O_27
REMARK   10  A    between atoms: C_24  and  O_25
REMARK   11  A    between atoms: O_25  and  C_26
REMARK   12  A    between atoms: O_27  and  C_28
REMARK   13  A    between atoms: O_29  and  C_30
REMARK                            x       y       z     vdW  Elec       q    Type
REMARK                         _______ _______ _______ _____ _____    ______ ____
ROOT
ATOM      1  C   UNL     1      -1.448   1.993   0.809  0.00  0.00    +0.020 A 
ATOM      2  C   UNL     1      -1.242   3.271   1.301  0.00  0.00    +0.122 A 
ATOM      3  C   UNL     1      -1.845   3.680   2.487  0.00  0.00    +0.046 A 
ATOM      4  C   UNL     1      -2.642   2.816   3.185  0.00  0.00    +0.019 A 
ATOM      5  C   UNL     1      -2.855   1.524   2.704  0.00  0.00    +0.068 A 
ATOM      6  C   UNL     1      -2.256   1.102   1.506  0.00  0.00    +0.144 A 
ATOM      7  O   UNL     1      -2.606  -0.176   1.249  0.00  0.00    -0.451 OA
ATOM      8  C   UNL     1      -3.422  -0.677   2.206  0.00  0.00    +0.176 C 
ATOM      9  C   UNL     1      -3.948  -1.930   2.238  0.00  0.00    +0.062 C 
ATOM     10  C   UNL     1      -3.637   0.378   3.204  0.00  0.00    +0.231 C 
ATOM     11  O   UNL     1      -4.312   0.321   4.218  0.00  0.00    -0.283 OA
ENDROOT
BRANCH   9  12
ATOM     12  C   UNL     1      -3.770  -2.829   1.094  0.00  0.00    +0.024 A 
ATOM     13  C   UNL     1      -2.783  -2.561   0.135  0.00  0.00    +0.015 A 
ATOM     14  C   UNL     1      -2.618  -3.406  -0.937  0.00  0.00    +0.050 A 
ATOM     15  C   UNL     1      -3.427  -4.530  -1.076  0.00  0.00    +0.165 A 
ATOM     16  C   UNL     1      -4.410  -4.808  -0.132  0.00  0.00    +0.204 A 
ATOM     17  C   UNL     1      -4.583  -3.967   0.957  0.00  0.00    +0.172 A 
BRANCH  17  18
ATOM     18  O   UNL     1      -5.538  -4.239   1.883  0.00  0.00    -0.491 OA
ATOM     19  C   UNL     1      -6.837  -3.686   1.658  0.00  0.00    +0.277 C 
ENDBRANCH  17  18
BRANCH  16  20
ATOM     20  O   UNL     1      -5.197  -5.909  -0.274  0.00  0.00    -0.488 OA
ATOM     21  C   UNL     1      -4.734  -7.119   0.329  0.00  0.00    +0.277 C 
ENDBRANCH  16  20
BRANCH  15  22
ATOM     22  O   UNL     1      -3.256  -5.358  -2.139  0.00  0.00    -0.491 OA
ATOM     23  C   UNL     1      -2.229  -5.014  -3.071  0.00  0.00    +0.277 C 
ENDBRANCH  15  22
ENDBRANCH   9  12
BRANCH   2  24
ATOM     24  O   UNL     1      -0.447   4.134   0.619  0.00  0.00    -0.506 OA
ATOM     25  H   UNL     1      -0.919   4.672  -0.032  0.00  0.00    +0.292 HD
ENDBRANCH   2  24
BRANCH   1  26
ATOM     26  C   UNL     1      -0.793   1.566  -0.479  0.00  0.00    -0.035 C 
BRANCH  26  28
ATOM     27  C   UNL     1      -1.852   3.323  -1.764  0.00  0.00    -0.095 C 
ATOM     28  N   UNL     1      -1.709   1.861  -1.600  0.00  0.00    +0.383 N 
ATOM     29  H   UNL     1      -2.630   1.456  -1.394  0.00  0.00    -0.081 HD
BRANCH  28  30
ATOM     30  C   UNL     1      -1.190   1.261  -2.848  0.00  0.00    -0.043 C 
BRANCH  30  31
ATOM     31  C   UNL     1      -2.240   1.385  -3.921  0.00  0.00    -0.064 A 
ATOM     32  C   UNL     1      -3.183   0.387  -4.083  0.00  0.00    +0.002 A 
ATOM     33  C   UNL     1      -4.149   0.502  -5.065  0.00  0.00    +0.000 A 
ATOM     34  C   UNL     1      -4.168   1.611  -5.890  0.00  0.00    +0.000 A 
ATOM     35  C   UNL     1      -3.222   2.607  -5.730  0.00  0.00    +0.000 A 
ATOM     36  C   UNL     1      -2.258   2.494  -4.746  0.00  0.00    +0.002 A 
ENDBRANCH  30  31
ENDBRANCH  28  30
ENDBRANCH  26  28
ENDBRANCH   1  26
TORSDOF 9
