REMARK  Name = ZINC09926616
REMARK  8 active torsions:
REMARK  status: ('A' for Active; 'I' for Inactive)
REMARK    1  A    between atoms: C_1  and  C_2
REMARK    2  A    between atoms: C_2  and  O_3
REMARK    3  A    between atoms: O_3  and  C_4
REMARK    4  A    between atoms: C_4  and  C_6
REMARK    5  A    between atoms: C_16  and  C_18
REMARK    6  A    between atoms: C_22  and  O_24
REMARK    7  A    between atoms: C_28  and  C_30
REMARK    8  A    between atoms: C_28  and  C_31
REMARK                            x       y       z     vdW  Elec       q    Type
REMARK                         _______ _______ _______ _____ _____    ______ ____
ROOT
ATOM      1  C   UNL     1      -1.868   2.813  -3.443  0.00  0.00    +0.075 C 
ATOM      2  C   UNL     1      -0.533   2.689  -3.295  0.00  0.00    +0.107 C 
ATOM      3  C   UNL     1       0.393   3.356  -4.246  0.00  0.00    +0.259 C 
ATOM      4  O   UNL     1      -0.042   3.938  -5.220  0.00  0.00    -0.269 OA
ATOM      5  N   UNL     1       1.715   3.309  -4.020  0.00  0.00    -0.309 N 
ATOM      6  C   UNL     1       2.300   2.628  -2.879  0.00  0.00    +0.124 C 
ATOM      7  C   UNL     1       1.404   1.559  -2.286  0.00  0.00    +0.129 C 
ATOM      8  N   UNL     1      -0.001   1.958  -2.257  0.00  0.00    -0.297 N 
ATOM      9  C   UNL     1      -0.783   1.587  -1.195  0.00  0.00    +0.019 C 
ATOM     10  C   UNL     1      -2.128   1.662  -1.260  0.00  0.00    +0.024 C 
ATOM     11  C   UNL     1      -2.824   2.125  -2.515  0.00  0.00    +0.093 C 
ATOM     12  C   UNL     1      -2.928   1.304  -0.160  0.00  0.00    +0.162 C 
ATOM     13  O   UNL     1      -4.138   1.372  -0.256  0.00  0.00    -0.292 OA
ATOM     14  C   UNL     1      -2.317   0.838   1.133  0.00  0.00    +0.086 C 
ATOM     15  C   UNL     1      -0.929   1.469   1.282  0.00  0.00    -0.023 C 
ATOM     16  C   UNL     1      -0.093   1.098   0.056  0.00  0.00    +0.058 C 
ATOM     17  C   UNL     1      -0.254   0.932   2.546  0.00  0.00    +0.011 C 
ATOM     18  C   UNL     1      -1.062   2.991   1.372  0.00  0.00    +0.011 C 
ATOM     19  H   UNL     1       2.307   3.752  -4.647  0.00  0.00    +0.149 HD
ENDROOT
BRANCH  11  20
ATOM     20  C   UNL     1      -3.420   0.933  -3.217  0.00  0.00    -0.032 A 
ATOM     21  C   UNL     1      -2.603  -0.096  -3.648  0.00  0.00    +0.005 A 
ATOM     22  C   UNL     1      -3.147  -1.193  -4.288  0.00  0.00    +0.004 A 
ATOM     23  C   UNL     1      -4.510  -1.260  -4.509  0.00  0.00    +0.045 A 
ATOM     24  C   UNL     1      -5.331  -0.227  -4.083  0.00  0.00    +0.117 A 
ATOM     25  C   UNL     1      -4.783   0.871  -3.436  0.00  0.00    +0.050 A 
BRANCH  24  26
ATOM     26  O   UNL     1      -6.672  -0.290  -4.300  0.00  0.00    -0.507 OA
ATOM     27  H   UNL     1      -6.953   0.097  -5.140  0.00  0.00    +0.292 HD
ENDBRANCH  24  26
ENDBRANCH  11  20
BRANCH   1  28
ATOM     28  C   UNL     1      -2.394   3.637  -4.533  0.00  0.00    +0.338 C 
ATOM     29  O   UNL     1      -2.745   4.781  -4.316  0.00  0.00    -0.245 OA
BRANCH  28  30
ATOM     30  O   UNL     1      -2.491   3.127  -5.778  0.00  0.00    -0.462 OA
BRANCH  30  32
ATOM     31  C   UNL     1      -3.055   3.253  -8.144  0.00  0.00    +0.048 C 
ATOM     32  C   UNL     1      -3.022   4.001  -6.809  0.00  0.00    +0.229 C 
ENDBRANCH  30  32
ENDBRANCH  28  30
ENDBRANCH   1  28
TORSDOF 5
