REMARK  Name = ZINC64061548
REMARK  9 active torsions:
REMARK  status: ('A' for Active; 'I' for Inactive)
REMARK    1  A    between atoms: C_1  and  C_2
REMARK    2  A    between atoms: C_5  and  O_29
REMARK    3  A    between atoms: C_10  and  C_12
REMARK    4  A    between atoms: C_12  and  N_13
REMARK    5  A    between atoms: C_16  and  C_19
REMARK    6  A    between atoms: C_16  and  C_27
REMARK    7  A    between atoms: C_19  and  C_20
REMARK    8  A    between atoms: C_27  and  O_28
REMARK    9  A    between atoms: O_29  and  C_30
REMARK                            x       y       z     vdW  Elec       q    Type
REMARK                         _______ _______ _______ _____ _____    ______ ____
ROOT
ATOM      1  N   UNL     1       2.199  -1.346   3.188  0.00  0.00    +0.381 N 
ATOM      2  C   UNL     1       0.828  -1.314   3.711  0.00  0.00    -0.078 C 
ATOM      3  C   UNL     1       0.623  -2.476   4.685  0.00  0.00    -0.010 C 
ATOM      4  C   UNL     1       1.616  -2.345   5.844  0.00  0.00    -0.007 C 
ATOM      5  C   UNL     1       3.039  -2.305   5.280  0.00  0.00    -0.010 C 
ATOM      6  C   UNL     1       3.155  -1.149   4.284  0.00  0.00    -0.078 C 
ATOM      7  H   UNL     1       2.369  -2.239   2.751  0.00  0.00    -0.082 HD
ENDROOT
BRANCH   1   8
ATOM      8  C   UNL     1       2.368  -0.276   2.196  0.00  0.00    -0.050 C 
BRANCH   8  18
ATOM      9  C   UNL     1       1.529   1.969   0.013  0.00  0.00    +0.042 C 
ATOM     10  C   UNL     1       1.711   0.477  -0.090  0.00  0.00    -0.043 C 
ATOM     11  C   UNL     1       2.138  -0.217  -1.170  0.00  0.00    +0.002 A 
ATOM     12  C   UNL     1       2.544   0.192  -2.519  0.00  0.00    +0.055 A 
ATOM     13  C   UNL     1       2.933  -0.749  -3.413  0.00  0.00    +0.121 A 
ATOM     14  C   UNL     1       2.963  -2.118  -3.095  0.00  0.00    +0.047 A 
ATOM     15  C   UNL     1       2.608  -2.591  -1.881  0.00  0.00    +0.029 A 
ATOM     16  C   UNL     1       2.171  -1.660  -0.837  0.00  0.00    +0.043 A 
ATOM     17  N   UNL     1       1.780  -1.850   0.399  0.00  0.00    -0.379 N 
ATOM     18  C   UNL     1       1.461  -0.547   0.994  0.00  0.00    +0.089 C 
ATOM     19  H   UNL     1       1.717  -2.708   0.847  0.00  0.00    +0.160 HD
BRANCH  13  20
ATOM     20  O   UNL     1       3.306  -0.356  -4.659  0.00  0.00    -0.495 OA
ATOM     21  C   UNL     1       3.708  -1.381  -5.569  0.00  0.00    +0.277 C 
ENDBRANCH  13  20
ENDBRANCH   8  18
ENDBRANCH   1   8
BRANCH   4  22
ATOM     22  C   UNL     1       1.334  -1.055   6.616  0.00  0.00    +0.040 C 
BRANCH  22  23
ATOM     23  C   UNL     1       2.415  -0.852   7.680  0.00  0.00    +0.119 C 
ATOM     24  C   UNL     1       2.201   0.496   8.373  0.00  0.00    +0.032 C 
ATOM     25  C   UNL     1       3.250   0.666   9.477  0.00  0.00    +0.005 C 
ATOM     26  C   UNL     1       3.145  -0.512  10.451  0.00  0.00    +0.028 C 
ATOM     27  C   UNL     1       3.322  -1.821   9.678  0.00  0.00    +0.160 C 
ATOM     28  O   UNL     1       2.335  -1.901   8.647  0.00  0.00    -0.377 OA
ENDBRANCH  22  23
ENDBRANCH   4  22
BRANCH   4  29
ATOM     29  C   UNL     1       1.470  -3.546   6.780  0.00  0.00    +0.162 C 
BRANCH  29  30
ATOM     30  O   UNL     1       1.597  -4.755   6.028  0.00  0.00    -0.394 OA
ATOM     31  H   UNL     1       1.514  -5.559   6.559  0.00  0.00    +0.209 HD
ENDBRANCH  29  30
ENDBRANCH   4  29
TORSDOF 7
