REMARK  Name = ZINC16676066
REMARK  6 active torsions:
REMARK  status: ('A' for Active; 'I' for Inactive)
REMARK    1  A    between atoms: N_8  and  S_9
REMARK    2  A    between atoms: S_9  and  C_12
REMARK    3  A    between atoms: C_21  and  O_29
REMARK    4  A    between atoms: N_25  and  C_26
REMARK    5  A    between atoms: C_26  and  C_27
REMARK    6  A    between atoms: C_27  and  O_28
REMARK                            x       y       z     vdW  Elec       q    Type
REMARK                         _______ _______ _______ _____ _____    ______ ____
ROOT
ATOM      1  C   UNL     1      -0.017   1.380   0.010  0.00  0.00    +0.001 A 
ATOM      2  C   UNL     1       1.170   2.091   0.002  0.00  0.00    +0.000 A 
ATOM      3  C   UNL     1       2.389   1.432  -0.022  0.00  0.00    +0.010 A 
ATOM      4  C   UNL     1       2.421   0.059  -0.035  0.00  0.00    +0.026 A 
ATOM      5  C   UNL     1       1.217  -0.663  -0.012  0.00  0.00    +0.011 A 
ATOM      6  C   UNL     1       0.002  -0.004   0.002  0.00  0.00    +0.010 A 
ATOM      7  C   UNL     1       1.338  -2.149   0.021  0.00  0.00    +0.095 C 
ATOM      8  N   UNL     1       0.516  -2.941  -0.620  0.00  0.00    -0.128 NA
ATOM      9  C   UNL     1       2.467  -2.658   0.840  0.00  0.00    +0.054 C 
ATOM     10  C   UNL     1       3.618  -1.938   0.794  0.00  0.00    +0.073 C 
ATOM     11  C   UNL     1       3.696  -0.728  -0.086  0.00  0.00    +0.235 C 
ATOM     12  O   UNL     1       4.848   0.049   0.074  0.00  0.00    -0.339 OA
ATOM     13  C   UNL     1       5.668  -0.125   1.211  0.00  0.00    +0.183 C 
ATOM     14  C   UNL     1       5.943  -1.597   1.492  0.00  0.00    +0.133 C 
ATOM     15  N   UNL     1       4.680  -2.330   1.565  0.00  0.00    -0.324 N 
ENDROOT
BRANCH   8  16
ATOM     16  S   UNL     1       0.713  -4.583  -0.536  0.00  0.00    +0.099 S 
ATOM     17  O   UNL     1       1.941  -4.878  -1.187  0.00  0.00    -0.146 OA
ATOM     18  O   UNL     1       0.457  -4.955   0.811  0.00  0.00    -0.146 OA
BRANCH  16  19
ATOM     19  C   UNL     1      -0.561  -5.311  -1.511  0.00  0.00    +0.113 A 
ATOM     20  C   UNL     1      -1.777  -5.628  -0.933  0.00  0.00    +0.030 A 
ATOM     21  C   UNL     1      -2.777  -6.199  -1.697  0.00  0.00    +0.022 A 
ATOM     22  C   UNL     1      -2.562  -6.454  -3.040  0.00  0.00    +0.041 A 
ATOM     23  C   UNL     1      -1.345  -6.136  -3.617  0.00  0.00    +0.022 A 
ATOM     24  C   UNL     1      -0.348  -5.560  -2.853  0.00  0.00    +0.030 A 
ATOM     25 CL   UNL     1      -3.817  -7.172  -4.000  0.00  0.00    -0.084 Cl
ENDBRANCH  16  19
ENDBRANCH   8  16
BRANCH  11  26
ATOM     26  O   UNL     1       3.777  -1.232  -1.420  0.00  0.00    -0.356 OA
ATOM     27  H   UNL     1       3.796  -0.545  -2.100  0.00  0.00    +0.213 HD
ENDBRANCH  11  26
BRANCH  15  28
ATOM     28  C   UNL     1       4.550  -3.481   2.462  0.00  0.00    +0.133 C 
BRANCH  28  29
ATOM     29  C   UNL     1       4.951  -4.756   1.718  0.00  0.00    +0.174 C 
BRANCH  29  30
ATOM     30  O   UNL     1       6.338  -4.694   1.380  0.00  0.00    -0.393 OA
ATOM     31  H   UNL     1       6.662  -5.471   0.904  0.00  0.00    +0.209 HD
ENDBRANCH  29  30
ENDBRANCH  28  29
ENDBRANCH  15  28
TORSDOF 6
