REMARK  Name = ZINC57610272
REMARK  8 active torsions:
REMARK  status: ('A' for Active; 'I' for Inactive)
REMARK    1  A    between atoms: C_1  and  C_2
REMARK    2  A    between atoms: C_4  and  C_19
REMARK    3  A    between atoms: C_5  and  N_9
REMARK    4  A    between atoms: C_6  and  C_8
REMARK    5  A    between atoms: C_13  and  S_15
REMARK    6  A    between atoms: S_15  and  C_16
REMARK    7  A    between atoms: C_16  and  C_17
REMARK    8  A    between atoms: C_17  and  N_18
REMARK                            x       y       z     vdW  Elec       q    Type
REMARK                         _______ _______ _______ _____ _____    ______ ____
ROOT
ATOM      1  N   UNL     1       0.470  -4.075  -0.037  0.00  0.00    -0.292 N 
ATOM      2  C   UNL     1       1.092  -4.656  -1.136  0.00  0.00    +0.187 A 
ATOM      3  N   UNL     1       1.462  -4.105  -2.276  0.00  0.00    -0.125 NA
ATOM      4  N   UNL     1       2.070  -4.872  -3.242  0.00  0.00    -0.133 NA
ATOM      5  C   UNL     1       2.280  -6.157  -3.024  0.00  0.00    +0.160 A 
ATOM      6  S   UNL     1       1.610  -6.349  -1.380  0.00  0.00    -0.024 S 
ATOM      7  H   UNL     1       0.202  -4.625   0.716  0.00  0.00    +0.154 HD
ENDROOT
BRANCH   1  12
ATOM      8  C   UNL     1      -0.498   1.513   0.048  0.00  0.00    +0.044 C 
ATOM      9  C   UNL     1      -0.240   0.028   0.025  0.00  0.00    -0.050 A 
ATOM     10  C   UNL     1      -0.923  -0.777  -0.868  0.00  0.00    +0.008 A 
ATOM     11  C   UNL     1      -0.690  -2.138  -0.892  0.00  0.00    -0.029 A 
ATOM     12  C   UNL     1       0.232  -2.698  -0.017  0.00  0.00    +0.039 A 
ATOM     13  C   UNL     1       0.917  -1.886   0.879  0.00  0.00    -0.029 A 
ATOM     14  C   UNL     1       0.683  -0.525   0.893  0.00  0.00    +0.008 A 
ATOM     15  C   UNL     1       1.919  -2.489   1.830  0.00  0.00    +0.045 C 
ATOM     16  C   UNL     1      -1.436  -3.015  -1.865  0.00  0.00    +0.045 C 
ENDBRANCH   1  12
BRANCH   5  17
ATOM     17  S   UNL     1       3.027  -7.360  -4.073  0.00  0.00    -0.099 S 
BRANCH  17  18
ATOM     18  C   UNL     1       3.464  -6.429  -5.567  0.00  0.00    +0.057 C 
BRANCH  18  19
ATOM     19  C   UNL     1       4.131  -7.366  -6.575  0.00  0.00    -0.075 C 
BRANCH  19  20
ATOM     20  N   UNL     1       4.485  -6.612  -7.786  0.00  0.00    +0.379 N 
ATOM     21  H   UNL     1       3.650  -6.219  -8.193  0.00  0.00    -0.090 HD
ATOM     22  H   UNL     1       5.123  -5.869  -7.544  0.00  0.00    -0.090 HD
ATOM     23  H   UNL     1       4.925  -7.231  -8.451  0.00  0.00    -0.090 HD
ENDBRANCH  19  20
ENDBRANCH  18  19
ENDBRANCH  17  18
ENDBRANCH   5  17
TORSDOF 5
