REMARK  Name = ZINC24887393
REMARK  11 active torsions:
REMARK  status: ('A' for Active; 'I' for Inactive)
REMARK    1  A    between atoms: C_1  and  C_2
REMARK    2  A    between atoms: C_2  and  C_3
REMARK    3  A    between atoms: C_3  and  C_5
REMARK    4  A    between atoms: C_3  and  C_6
REMARK    5  A    between atoms: C_6  and  C_8
REMARK    6  A    between atoms: C_6  and  N_25
REMARK    7  A    between atoms: C_8  and  N_10
REMARK    8  A    between atoms: C_13  and  C_16
REMARK    9  A    between atoms: C_16  and  N_17
REMARK   10  A    between atoms: C_21  and  C_24
REMARK   11  A    between atoms: C_26  and  C_28
REMARK                            x       y       z     vdW  Elec       q    Type
REMARK                         _______ _______ _______ _____ _____    ______ ____
ROOT
ATOM      1  C   UNL     1      -0.790  -2.456   1.371  0.00  0.00    +0.259 C 
ATOM      2  O   UNL     1      -1.263  -3.163   0.500  0.00  0.00    -0.272 OA
ENDROOT
BRANCH   1   3
ATOM      3  N   UNL     1      -1.548  -2.054   2.383  0.00  0.00    -0.155 NA
ATOM      4  C   UNL     1      -2.829  -2.425   2.446  0.00  0.00    +0.163 A 
ATOM      5  N   UNL     1      -3.753  -2.111   3.393  0.00  0.00    -0.341 N 
ATOM      6  C   UNL     1      -5.016  -2.599   3.265  0.00  0.00    +0.008 A 
ATOM      7  C   UNL     1      -5.271  -3.368   2.200  0.00  0.00    +0.067 A 
ATOM      8  S   UNL     1      -3.692  -3.387   1.371  0.00  0.00    -0.061 S 
ATOM      9  H   UNL     1      -3.516  -1.549   4.148  0.00  0.00    +0.167 HD
BRANCH   6  10
ATOM     10  C   UNL     1      -6.084  -2.288   4.281  0.00  0.00    -0.024 C 
BRANCH  10  11
ATOM     11  N   UNL     1      -5.720  -2.886   5.573  0.00  0.00    +0.384 N 
ATOM     12  C   UNL     1      -5.707  -4.348   5.447  0.00  0.00    -0.078 C 
ATOM     13  C   UNL     1      -5.250  -4.973   6.767  0.00  0.00    -0.018 C 
ATOM     14  C   UNL     1      -6.218  -4.564   7.881  0.00  0.00    -0.001 C 
ATOM     15  C   UNL     1      -6.280  -3.035   7.954  0.00  0.00    -0.031 C 
ATOM     16  C   UNL     1      -6.699  -2.482   6.590  0.00  0.00    -0.075 C 
ATOM     17  C   UNL     1      -7.302  -2.616   9.012  0.00  0.00    +0.005 C 
ATOM     18  H   UNL     1      -4.803  -2.565   5.844  0.00  0.00    -0.081 HD
ENDBRANCH  10  11
ENDBRANCH   6  10
ENDBRANCH   1   3
BRANCH   1  19
ATOM     19  C   UNL     1       0.655  -2.037   1.299  0.00  0.00    +0.164 C 
BRANCH  19  20
ATOM     20  N   UNL     1       1.270  -2.607   0.097  0.00  0.00    -0.300 N 
ATOM     21  C   UNL     1       2.601  -2.813   0.053  0.00  0.00    +0.245 C 
ATOM     22  O   UNL     1       3.292  -2.526   1.011  0.00  0.00    -0.270 OA
ATOM     23  H   UNL     1       0.718  -2.835  -0.668  0.00  0.00    +0.150 HD
BRANCH  21  24
ATOM     24  C   UNL     1       3.220  -3.387  -1.160  0.00  0.00    +0.037 A 
ATOM     25  C   UNL     1       2.430  -3.712  -2.264  0.00  0.00    +0.013 A 
ATOM     26  C   UNL     1       3.015  -4.247  -3.393  0.00  0.00    +0.001 A 
ATOM     27  C   UNL     1       4.381  -4.463  -3.433  0.00  0.00    +0.000 A 
ATOM     28  C   UNL     1       5.170  -4.144  -2.342  0.00  0.00    +0.001 A 
ATOM     29  C   UNL     1       4.599  -3.602  -1.209  0.00  0.00    +0.013 A 
ENDBRANCH  21  24
ENDBRANCH  19  20
BRANCH  19  30
ATOM     30  C   UNL     1       0.742  -0.511   1.242  0.00  0.00    +0.015 C 
ATOM     31  C   UNL     1       2.210  -0.086   1.169  0.00  0.00    +0.010 C 
BRANCH  30  33
ATOM     32  C   UNL     1      -0.019   1.526   0.010  0.00  0.00    +0.004 C 
ATOM     33  C   UNL     1       0.002  -0.004   0.002  0.00  0.00    +0.002 C 
ENDBRANCH  30  33
ENDBRANCH  19  30
ENDBRANCH   1  19
TORSDOF 8
