REMARK  Name = ZINC46917530
REMARK  8 active torsions:
REMARK  status: ('A' for Active; 'I' for Inactive)
REMARK    1  A    between atoms: C_4  and  C_7
REMARK    2  A    between atoms: C_7  and  C_9
REMARK    3  A    between atoms: C_7  and  N_27
REMARK    4  A    between atoms: C_9  and  C_10
REMARK    5  A    between atoms: N_12  and  C_13
REMARK    6  A    between atoms: C_13  and  C_14
REMARK    7  A    between atoms: C_14  and  C_16
REMARK    8  A    between atoms: C_14  and  N_22
REMARK                            x       y       z     vdW  Elec       q    Type
REMARK                         _______ _______ _______ _____ _____    ______ ____
ROOT
ATOM      1  C   UNL     1       5.981  -1.449   2.532  0.00  0.00    +0.215 C 
ATOM      2  O   UNL     1       6.917  -1.665   1.791  0.00  0.00    -0.276 OA
ATOM      3  N   UNL     1       6.058  -1.793   3.833  0.00  0.00    -0.316 N 
ATOM      4  H   UNL     1       5.310  -1.620   4.425  0.00  0.00    +0.149 HD
ENDROOT
BRANCH   1   5
ATOM      5  C   UNL     1       4.732  -0.796   1.998  0.00  0.00    +0.122 C 
BRANCH   5   6
ATOM      6  C   UNL     1       4.905  -0.510   0.505  0.00  0.00    +0.113 C 
BRANCH   6   7
ATOM      7  N   UNL     1       5.022  -1.776  -0.224  0.00  0.00    -0.292 N 
ATOM      8  C   UNL     1       5.643  -1.810  -1.420  0.00  0.00    +0.298 C 
ATOM      9  O   UNL     1       6.185  -0.811  -1.852  0.00  0.00    -0.253 OA
ATOM     10  N   UNL     1       5.662  -2.951  -2.137  0.00  0.00    -0.313 N 
ATOM     11  H   UNL     1       4.653  -2.589   0.154  0.00  0.00    +0.151 HD
ATOM     12  H   UNL     1       5.229  -3.748  -1.792  0.00  0.00    +0.146 HD
ATOM     13  H   UNL     1       6.109  -2.976  -2.997  0.00  0.00    +0.146 HD
ENDBRANCH   6   7
BRANCH   6  17
ATOM     14  C   UNL     1       1.513   1.651  -0.935  0.00  0.00    +0.000 A 
ATOM     15  C   UNL     1       2.694   2.317  -0.666  0.00  0.00    +0.000 A 
ATOM     16  C   UNL     1       3.791   1.618  -0.200  0.00  0.00    +0.005 A 
ATOM     17  C   UNL     1       3.708   0.252  -0.003  0.00  0.00    -0.027 A 
ATOM     18  C   UNL     1       2.527  -0.414  -0.271  0.00  0.00    +0.005 A 
ATOM     19  C   UNL     1       1.430   0.285  -0.738  0.00  0.00    +0.000 A 
ENDBRANCH   6  17
ENDBRANCH   5   6
ENDBRANCH   1   5
BRANCH   3  20
ATOM     20  C   UNL     1       7.272  -2.428   4.352  0.00  0.00    +0.093 C 
BRANCH  20  21
ATOM     21  C   UNL     1       7.061  -2.808   5.819  0.00  0.00    -0.020 C 
BRANCH  21  22
ATOM     22  C   UNL     1       6.874  -1.558   6.639  0.00  0.00    -0.059 A 
ATOM     23  C   UNL     1       7.972  -0.810   7.021  0.00  0.00    +0.002 A 
ATOM     24  C   UNL     1       7.800   0.337   7.774  0.00  0.00    +0.000 A 
ATOM     25  C   UNL     1       6.530   0.736   8.144  0.00  0.00    +0.000 A 
ATOM     26  C   UNL     1       5.431  -0.011   7.762  0.00  0.00    +0.000 A 
ATOM     27  C   UNL     1       5.603  -1.156   7.006  0.00  0.00    +0.002 A 
ENDBRANCH  21  22
BRANCH  21  28
ATOM     28  N   UNL     1       8.236  -3.543   6.308  0.00  0.00    +0.385 N 
ATOM     29  C   UNL     1       8.043  -3.930   7.729  0.00  0.00    -0.078 C 
ATOM     30  C   UNL     1       9.023  -5.115   7.910  0.00  0.00    -0.020 C 
ATOM     31  C   UNL     1       8.920  -5.859   6.558  0.00  0.00    -0.020 C 
ATOM     32  C   UNL     1       8.390  -4.811   5.562  0.00  0.00    -0.078 C 
ATOM     33  H   UNL     1       9.066  -2.978   6.210  0.00  0.00    -0.081 HD
ENDBRANCH  21  28
ENDBRANCH  20  21
ENDBRANCH   3  20
TORSDOF 8
