REMARK  Name = ZINC00838076
REMARK  7 active torsions:
REMARK  status: ('A' for Active; 'I' for Inactive)
REMARK    1  A    between atoms: C_4  and  O_21
REMARK    2  A    between atoms: C_5  and  C_7
REMARK    3  A    between atoms: C_12  and  O_13
REMARK    4  A    between atoms: O_13  and  C_14
REMARK    5  A    between atoms: C_17  and  N_20
REMARK    6  A    between atoms: O_21  and  C_22
REMARK    7  A    between atoms: C_25  and  N_28
REMARK                            x       y       z     vdW  Elec       q    Type
REMARK                         _______ _______ _______ _____ _____    ______ ____
ROOT
ATOM      1  C   UNL     1      -0.303   8.000  -0.670  0.00  0.00    +0.001 A 
ATOM      2  C   UNL     1      -1.180   7.852   0.390  0.00  0.00    +0.004 A 
ATOM      3  C   UNL     1      -0.921   6.930   1.386  0.00  0.00    +0.047 A 
ATOM      4  C   UNL     1       0.218   6.143   1.325  0.00  0.00    +0.136 A 
ATOM      5  C   UNL     1       1.109   6.294   0.258  0.00  0.00    +0.028 A 
ATOM      6  C   UNL     1       0.839   7.227  -0.741  0.00  0.00    +0.012 A 
ENDROOT
BRANCH   5   7
ATOM      7  C   UNL     1       2.334   5.461   0.188  0.00  0.00    +0.028 A 
ATOM      8  C   UNL     1       3.591   6.055   0.278  0.00  0.00    +0.012 A 
ATOM      9  C   UNL     1       4.727   5.275   0.210  0.00  0.00    +0.001 A 
ATOM     10  C   UNL     1       4.624   3.904   0.054  0.00  0.00    +0.004 A 
ATOM     11  C   UNL     1       3.382   3.304  -0.031  0.00  0.00    +0.047 A 
ATOM     12  C   UNL     1       2.232   4.075   0.029  0.00  0.00    +0.136 A 
BRANCH  12  13
ATOM     13  O   UNL     1       1.011   3.487  -0.059  0.00  0.00    -0.455 OA
BRANCH  13  14
ATOM     14  C   UNL     1       0.958   2.128  -0.080  0.00  0.00    +0.129 A 
ATOM     15  C   UNL     1       1.306   1.403   1.050  0.00  0.00    +0.048 A 
ATOM     16  C   UNL     1       1.251   0.023   1.030  0.00  0.00    +0.026 A 
ATOM     17  C   UNL     1       0.847  -0.638  -0.122  0.00  0.00    +0.025 A 
ATOM     18  C   UNL     1       0.498   0.088  -1.253  0.00  0.00    +0.026 A 
ATOM     19  C   UNL     1       0.553   1.468  -1.232  0.00  0.00    +0.048 A 
BRANCH  17  20
ATOM     20  N   UNL     1       0.790  -2.036  -0.144  0.00  0.00    -0.358 N 
ATOM     21  H   UNL     1       1.034  -2.543   0.646  0.00  0.00    +0.142 HD
ATOM     22  H   UNL     1       0.508  -2.498  -0.948  0.00  0.00    +0.142 HD
ENDBRANCH  17  20
ENDBRANCH  13  14
ENDBRANCH  12  13
ENDBRANCH   5   7
BRANCH   4  23
ATOM     23  O   UNL     1       0.470   5.232   2.301  0.00  0.00    -0.455 OA
BRANCH  23  24
ATOM     24  C   UNL     1      -0.484   5.032   3.249  0.00  0.00    +0.129 A 
ATOM     25  C   UNL     1      -0.248   5.415   4.561  0.00  0.00    +0.048 A 
ATOM     26  C   UNL     1      -1.218   5.216   5.524  0.00  0.00    +0.026 A 
ATOM     27  C   UNL     1      -2.426   4.623   5.180  0.00  0.00    +0.025 A 
ATOM     28  C   UNL     1      -2.659   4.235   3.867  0.00  0.00    +0.026 A 
ATOM     29  C   UNL     1      -1.690   4.439   2.905  0.00  0.00    +0.048 A 
BRANCH  27  30
ATOM     30  N   UNL     1      -3.407   4.417   6.156  0.00  0.00    -0.358 N 
ATOM     31  H   UNL     1      -4.250   4.002   5.916  0.00  0.00    +0.142 HD
ATOM     32  H   UNL     1      -3.244   4.688   7.073  0.00  0.00    +0.142 HD
ENDBRANCH  27  30
ENDBRANCH  23  24
ENDBRANCH   4  23
TORSDOF 7
