REMARK  Name = ZINC38759532
REMARK  6 active torsions:
REMARK  status: ('A' for Active; 'I' for Inactive)
REMARK    1  A    between atoms: C_1  and  O_2
REMARK    2  A    between atoms: O_2  and  C_3
REMARK    3  A    between atoms: C_7  and  C_12
REMARK    4  A    between atoms: N_16  and  C_20
REMARK    5  A    between atoms: C_23  and  O_29
REMARK    6  A    between atoms: C_24  and  C_26
REMARK                            x       y       z     vdW  Elec       q    Type
REMARK                         _______ _______ _______ _____ _____    ______ ____
ROOT
ATOM      1  C   UNL     1      -6.168  -2.734   1.247  0.00  0.00    +0.026 C 
ATOM      2  C   UNL     1      -7.135  -3.532   0.670  0.00  0.00    +0.077 C 
ATOM      3  C   UNL     1      -8.615  -3.411   0.717  0.00  0.00    +0.263 C 
ATOM      4  O   UNL     1      -9.165  -2.514   1.325  0.00  0.00    -0.269 OA
ATOM      5  N   UNL     1      -9.301  -4.333   0.062  0.00  0.00    -0.224 N 
ATOM      6  C   UNL     1      -8.686  -5.326  -0.611  0.00  0.00    +0.125 C 
ATOM      7  S   UNL     1      -9.396  -6.598  -1.509  0.00  0.00    -0.027 S 
ATOM      8  S   UNL     1      -6.952  -4.991  -0.346  0.00  0.00    -0.061 S 
ENDROOT
BRANCH   1  13
ATOM      9  C   UNL     1      -1.219  -1.347   2.316  0.00  0.00    +0.122 A 
ATOM     10  C   UNL     1      -2.400  -0.712   2.736  0.00  0.00    +0.046 A 
ATOM     11  C   UNL     1      -3.621  -1.182   2.383  0.00  0.00    +0.014 A 
ATOM     12  C   UNL     1      -3.723  -2.336   1.574  0.00  0.00    +0.003 A 
ATOM     13  C   UNL     1      -4.816  -3.034   1.065  0.00  0.00    -0.018 C 
ATOM     14  C   UNL     1      -4.232  -4.183   0.274  0.00  0.00    +0.149 C 
ATOM     15  N   UNL     1      -2.776  -4.058   0.390  0.00  0.00    -0.380 N 
ATOM     16  C   UNL     1      -2.487  -3.008   1.129  0.00  0.00    +0.047 A 
ATOM     17  C   UNL     1      -1.244  -2.459   1.532  0.00  0.00    +0.071 A 
ATOM     18  H   UNL     1      -2.127  -4.655  -0.014  0.00  0.00    +0.160 HD
BRANCH   9  20
ATOM     19  C   UNL     1      -0.049   0.333   3.521  0.00  0.00    +0.277 C 
ATOM     20  O   UNL     1      -0.022  -0.835   2.698  0.00  0.00    -0.495 OA
ENDBRANCH   9  20
ENDBRANCH   1  13
BRANCH   5  21
ATOM     21  C   UNL     1     -10.703  -4.275   0.067  0.00  0.00    +0.044 A 
ATOM     22  C   UNL     1     -11.420  -4.931   1.063  0.00  0.00    +0.027 A 
ATOM     23  C   UNL     1     -12.799  -4.881   1.077  0.00  0.00    +0.048 A 
ATOM     24  C   UNL     1     -13.481  -4.175   0.097  0.00  0.00    +0.131 A 
ATOM     25  C   UNL     1     -12.765  -3.511  -0.910  0.00  0.00    +0.106 A 
ATOM     26  C   UNL     1     -11.367  -3.562  -0.914  0.00  0.00    +0.042 A 
BRANCH  25  27
ATOM     27  C   UNL     1     -13.480  -2.760  -1.954  0.00  0.00    +0.390 C 
ATOM     28  O   UNL     1     -12.853  -2.183  -2.831  0.00  0.00    -0.240 OA
ATOM     29  O   UNL     1     -14.703  -2.714  -1.945  0.00  0.00    -0.240 OA
ENDBRANCH  25  27
BRANCH  24  30
ATOM     30  O   UNL     1     -14.836  -4.127   0.113  0.00  0.00    -0.506 OA
ATOM     31  H   UNL     1     -15.198  -3.386   0.619  0.00  0.00    +0.292 HD
ENDBRANCH  24  30
ENDBRANCH   5  21
TORSDOF 5
