REMARK  Name = ZINC15443013
REMARK  3 active torsions:
REMARK  status: ('A' for Active; 'I' for Inactive)
REMARK    1  A    between atoms: C_4  and  N_7
REMARK    2  A    between atoms: N_8  and  C_9
REMARK    3  A    between atoms: C_12  and  O_16
REMARK                            x       y       z     vdW  Elec       q    Type
REMARK                         _______ _______ _______ _____ _____    ______ ____
ROOT
ATOM      1  C   UNL     1       4.812  -2.582  -0.060  0.00  0.00    +0.156 A 
ATOM      2  C   UNL     1       6.016  -1.864  -0.062  0.00  0.00    +0.157 A 
ATOM      3  C   UNL     1       7.218  -2.540  -0.078  0.00  0.00    +0.086 A 
ATOM      4  C   UNL     1       7.237  -3.929  -0.091  0.00  0.00    +0.122 A 
ATOM      5  C   UNL     1       6.048  -4.647  -0.089  0.00  0.00    +0.086 A 
ATOM      6  C   UNL     1       4.838  -3.983  -0.068  0.00  0.00    +0.157 A 
ATOM      7  F   UNL     1       3.682  -4.682  -0.059  0.00  0.00    -0.203 F 
ATOM      8  F   UNL     1       5.999  -0.513  -0.050  0.00  0.00    -0.203 F 
ENDROOT
BRANCH   1  10
ATOM      9  N   UNL     1       3.599  -0.630  -0.037  0.00  0.00    -0.149 NA
ATOM     10  N   UNL     1       3.621  -1.919  -0.044  0.00  0.00    -0.143 NA
BRANCH   9  14
ATOM     11  C   UNL     1      -0.017   1.380   0.010  0.00  0.00    +0.000 A 
ATOM     12  C   UNL     1       1.168   2.095   0.002  0.00  0.00    +0.002 A 
ATOM     13  C   UNL     1       2.377   1.431  -0.013  0.00  0.00    +0.029 A 
ATOM     14  C   UNL     1       2.404   0.034  -0.021  0.00  0.00    +0.086 A 
ATOM     15  C   UNL     1       1.204  -0.681  -0.013  0.00  0.00    +0.029 A 
ATOM     16  C   UNL     1       0.002  -0.004   0.002  0.00  0.00    +0.002 A 
ENDBRANCH   9  14
ENDBRANCH   1  10
BRANCH   4  17
ATOM     17  O   UNL     1       8.424  -4.589  -0.106  0.00  0.00    -0.507 OA
ATOM     18  H   UNL     1       8.775  -4.788   0.773  0.00  0.00    +0.292 HD
ENDBRANCH   4  17
TORSDOF 3
