REMARK  Name = ZINC09311864
REMARK  16 active torsions:
REMARK  status: ('A' for Active; 'I' for Inactive)
REMARK    1  A    between atoms: C_1  and  C_2
REMARK    2  A    between atoms: C_2  and  O_3
REMARK    3  A    between atoms: O_3  and  C_4
REMARK    4  A    between atoms: C_6  and  C_14
REMARK    5  A    between atoms: C_9  and  O_10
REMARK    6  A    between atoms: O_10  and  C_11
REMARK    7  A    between atoms: C_11  and  C_12
REMARK    8  A    between atoms: C_17  and  C_18
REMARK    9  A    between atoms: C_17  and  O_29
REMARK   10  A    between atoms: C_25  and  C_28
REMARK   11  A    between atoms: N_34  and  C_35
REMARK   12  A    between atoms: C_35  and  C_36
REMARK   13  A    between atoms: C_36  and  C_37
REMARK   14  A    between atoms: C_37  and  N_74
REMARK   15  A    between atoms: C_38  and  N_74
REMARK   16  A    between atoms: C_39  and  N_74
REMARK                            x       y       z     vdW  Elec       q    Type
REMARK                         _______ _______ _______ _____ _____    ______ ____
ROOT
ATOM      1  C   UNL     1       1.372   1.809  -0.350  0.00  0.00    +0.145 C 
ATOM      2  C   UNL     1       2.296   0.613  -0.347  0.00  0.00    +0.071 C 
ATOM      3  C   UNL     1       3.641   0.605  -0.029  0.00  0.00    +0.133 C 
ATOM      4  C   UNL     1       1.515  -0.486  -0.732  0.00  0.00    +0.249 C 
ATOM      5  O   UNL     1       1.904  -1.634  -0.848  0.00  0.00    -0.282 OA
ATOM      6  C   UNL     1       0.127  -0.006  -0.975  0.00  0.00    +0.288 C 
ATOM      7  O   UNL     1      -0.801  -0.707  -1.322  0.00  0.00    -0.266 OA
ATOM      8  N   UNL     1       0.051   1.317  -0.753  0.00  0.00    -0.284 N 
ENDROOT
BRANCH   3   9
ATOM      9  C   UNL     1       4.365  -0.672   0.068  0.00  0.00    +0.017 A 
ATOM     10  C   UNL     1       5.568  -0.856  -0.625  0.00  0.00    +0.015 A 
ATOM     11  C   UNL     1       6.241  -2.050  -0.534  0.00  0.00    +0.046 A 
ATOM     12  C   UNL     1       5.735  -3.091   0.249  0.00  0.00    +0.124 A 
ATOM     13  C   UNL     1       4.542  -2.900   0.941  0.00  0.00    -0.002 A 
ATOM     14  C   UNL     1       3.861  -1.712   0.860  0.00  0.00    +0.019 A 
ATOM     15  C   UNL     1       4.261  -4.182   1.702  0.00  0.00    +0.083 C 
ATOM     16  C   UNL     1       5.632  -4.896   1.642  0.00  0.00    +0.175 C 
ATOM     17  O   UNL     1       6.229  -4.340   0.458  0.00  0.00    -0.488 OA
ATOM     18  C   UNL     1       6.471  -4.564   2.878  0.00  0.00    +0.052 C 
ENDBRANCH   3   9
BRANCH   1  21
ATOM     19  C   UNL     1       1.936   4.119   2.586  0.00  0.00    +0.162 A 
ATOM     20  C   UNL     1       2.001   3.566   1.317  0.00  0.00    +0.055 A 
ATOM     21  C   UNL     1       1.300   2.409   1.030  0.00  0.00    -0.019 A 
ATOM     22  C   UNL     1       0.529   1.805   2.006  0.00  0.00    +0.009 A 
ATOM     23  C   UNL     1       0.464   2.348   3.275  0.00  0.00    +0.050 A 
ATOM     24  C   UNL     1       1.165   3.507   3.569  0.00  0.00    +0.162 A 
BRANCH  19  25
ATOM     25  O   UNL     1       2.626   5.256   2.870  0.00  0.00    -0.489 OA
BRANCH  25  27
ATOM     26  C   UNL     1       4.096   7.092   2.316  0.00  0.00    +0.048 C 
ATOM     27  C   UNL     1       3.397   5.828   1.812  0.00  0.00    +0.226 C 
ENDBRANCH  25  27
ENDBRANCH  19  25
BRANCH  24  28
ATOM     28  O   UNL     1       1.098   4.046   4.816  0.00  0.00    -0.484 OA
BRANCH  28  29
ATOM     29  C   UNL     1       0.286   3.365   5.775  0.00  0.00    +0.256 C 
BRANCH  29  30
ATOM     30  C   UNL     1       0.334   4.102   7.088  0.00  0.00    +0.006 C 
ATOM     31  C   UNL     1      -0.771   4.317   7.759  0.00  0.00    +0.007 C 
ENDBRANCH  29  30
ENDBRANCH  28  29
ENDBRANCH  24  28
ENDBRANCH   1  21
BRANCH   3  32
ATOM     32  O   UNL     1       4.290   1.768   0.191  0.00  0.00    -0.506 OA
ATOM     33  H   UNL     1       5.248   1.579   0.407  0.00  0.00    +0.292 HD
ENDBRANCH   3  32
BRANCH   8  34
ATOM     34  C   UNL     1      -1.154   2.136  -0.897  0.00  0.00    +0.107 C 
BRANCH  34  35
ATOM     35  C   UNL     1      -1.909   2.172   0.434  0.00  0.00    +0.000 C 
BRANCH  35  36
ATOM     36  C   UNL     1      -3.168   3.027   0.284  0.00  0.00    -0.078 C 
BRANCH  36  39
ATOM     37  C   UNL     1      -3.113   3.763   2.590  0.00  0.00    -0.097 C 
ATOM     38  C   UNL     1      -5.219   3.670   1.399  0.00  0.00    -0.097 C 
ATOM     39  N   UNL     1      -3.896   3.034   1.570  0.00  0.00    +0.376 N 
ATOM     40  H   UNL     1      -4.030   2.065   1.883  0.00  0.00    -0.083 HD
ENDBRANCH  36  39
ENDBRANCH  35  36
ENDBRANCH  34  35
ENDBRANCH   8  34
TORSDOF 12
