REMARK  Name = ZINC04583677
REMARK  8 active torsions:
REMARK  status: ('A' for Active; 'I' for Inactive)
REMARK    1  A    between atoms: C_4  and  C_7
REMARK    2  A    between atoms: N_9  and  C_10
REMARK    3  A    between atoms: C_10  and  C_12
REMARK    4  A    between atoms: C_10  and  N_16
REMARK    5  A    between atoms: N_16  and  C_17
REMARK    6  A    between atoms: C_17  and  N_19
REMARK    7  A    between atoms: N_19  and  C_20
REMARK    8  A    between atoms: C_23  and  N_27
REMARK                            x       y       z     vdW  Elec       q    Type
REMARK                         _______ _______ _______ _____ _____    ______ ____
ROOT
ATOM      1  N   UNL     1       3.605  -0.887   0.165  0.00  0.00    -0.305 N 
ATOM      2  H   UNL     1       4.436  -0.386   0.159  0.00  0.00    +0.150 HD
ENDROOT
BRANCH   1   3
ATOM      3  C   UNL     1       2.426  -0.238   0.078  0.00  0.00    +0.136 C 
ATOM      4  S   UNL     1       0.960  -1.122   0.088  0.00  0.00    -0.019 S 
BRANCH   3   5
ATOM      5  N   UNL     1       2.403   1.106  -0.015  0.00  0.00    -0.296 N 
ATOM      6  H   UNL     1       3.233   1.602  -0.084  0.00  0.00    +0.154 HD
BRANCH   5   7
ATOM      7  C   UNL     1       1.179   1.786  -0.014  0.00  0.00    +0.051 A 
ATOM      8  C   UNL     1       0.142   1.353  -0.829  0.00  0.00    +0.027 A 
ATOM      9  C   UNL     1      -1.062   2.030  -0.830  0.00  0.00    +0.034 A 
ATOM     10  C   UNL     1      -1.239   3.131  -0.013  0.00  0.00    +0.128 A 
ATOM     11  C   UNL     1      -0.209   3.566   0.800  0.00  0.00    +0.054 A 
ATOM     12  C   UNL     1       1.001   2.896   0.802  0.00  0.00    +0.064 A 
ATOM     13 CL   UNL     1       2.295   3.443   1.822  0.00  0.00    -0.082 Cl
BRANCH  10  14
ATOM     14  N   UNL     1      -2.533   3.850  -0.013  0.00  0.00    +0.056 N 
ATOM     15  O   UNL     1      -2.689   4.824   0.703  0.00  0.00    -0.126 OA
ATOM     16  O   UNL     1      -3.442   3.469  -0.728  0.00  0.00    -0.126 OA
ENDBRANCH  10  14
ENDBRANCH   5   7
ENDBRANCH   3   5
ENDBRANCH   1   3
BRANCH   1  17
ATOM     17  C   UNL     1       3.631  -2.348   0.267  0.00  0.00    +0.211 C 
BRANCH  17  20
ATOM     18  C   UNL     1       2.981  -3.208   2.452  0.00  0.00    +0.246 C 
ATOM     19  O   UNL     1       1.842  -3.311   2.040  0.00  0.00    -0.270 OA
ATOM     20  N   UNL     1       3.950  -2.736   1.643  0.00  0.00    -0.290 N 
ATOM     21  H   UNL     1       4.859  -2.654   1.972  0.00  0.00    +0.151 HD
BRANCH  18  25
ATOM     22  C   UNL     1       3.906  -4.333   6.442  0.00  0.00    +0.000 A 
ATOM     23  C   UNL     1       2.608  -4.452   5.976  0.00  0.00    +0.001 A 
ATOM     24  C   UNL     1       2.301  -4.088   4.681  0.00  0.00    +0.013 A 
ATOM     25  C   UNL     1       3.303  -3.599   3.841  0.00  0.00    +0.037 A 
ATOM     26  C   UNL     1       4.610  -3.487   4.315  0.00  0.00    +0.013 A 
ATOM     27  C   UNL     1       4.903  -3.849   5.614  0.00  0.00    +0.001 A 
ENDBRANCH  18  25
ENDBRANCH  17  20
BRANCH  17  28
ATOM     28  C   UNL     1       4.695  -2.907  -0.680  0.00  0.00    +0.225 C 
ATOM     29 CL   UNL     1       6.309  -2.244  -0.228  0.00  0.00    -0.080 Cl
ATOM     30 CL   UNL     1       4.727  -4.705  -0.555  0.00  0.00    -0.080 Cl
ATOM     31 CL   UNL     1       4.302  -2.429  -2.374  0.00  0.00    -0.080 Cl
ENDBRANCH  17  28
ENDBRANCH   1  17
TORSDOF 8
