REMARK  Name = ZINC08860010
REMARK  10 active torsions:
REMARK  status: ('A' for Active; 'I' for Inactive)
REMARK    1  A    between atoms: C_1  and  C_2
REMARK    2  A    between atoms: C_2  and  O_3
REMARK    3  A    between atoms: O_3  and  C_4
REMARK    4  A    between atoms: N_6  and  C_7
REMARK    5  A    between atoms: C_7  and  C_9
REMARK    6  A    between atoms: C_7  and  N_13
REMARK    7  A    between atoms: N_13  and  C_14
REMARK    8  A    between atoms: C_14  and  N_16
REMARK    9  A    between atoms: N_16  and  C_17
REMARK   10  A    between atoms: C_22  and  N_23
REMARK                            x       y       z     vdW  Elec       q    Type
REMARK                         _______ _______ _______ _____ _____    ______ ____
ROOT
ATOM      1  N   UNL     1      -3.541   0.133   3.389  0.00  0.00    -0.295 N 
ATOM      2  H   UNL     1      -4.357   0.650   3.294  0.00  0.00    +0.154 HD
ENDROOT
BRANCH   1   3
ATOM      3  C   UNL     1      -3.542  -1.043   4.149  0.00  0.00    +0.055 A 
ATOM      4  C   UNL     1      -2.908  -2.180   3.672  0.00  0.00    +0.025 A 
ATOM      5  C   UNL     1      -2.910  -3.340   4.424  0.00  0.00    +0.002 A 
ATOM      6  C   UNL     1      -3.543  -3.370   5.653  0.00  0.00    +0.002 A 
ATOM      7  C   UNL     1      -4.178  -2.242   6.136  0.00  0.00    +0.026 A 
ATOM      8  C   UNL     1      -4.176  -1.072   5.391  0.00  0.00    +0.066 A 
BRANCH   8   9
ATOM      9  N   UNL     1      -4.815   0.076   5.882  0.00  0.00    -0.201 N 
ATOM     10  C   UNL     1      -6.104   0.386   5.654  0.00  0.00    +0.258 C 
ATOM     11  O   UNL     1      -6.887  -0.274   5.001  0.00  0.00    -0.269 OA
ATOM     12  C   UNL     1      -6.409   1.663   6.334  0.00  0.00    +0.050 A 
ATOM     13  C   UNL     1      -7.543   2.450   6.451  0.00  0.00    +0.014 A 
ATOM     14  C   UNL     1      -7.489   3.628   7.179  0.00  0.00    +0.001 A 
ATOM     15  C   UNL     1      -6.313   4.022   7.790  0.00  0.00    +0.001 A 
ATOM     16  C   UNL     1      -5.171   3.244   7.682  0.00  0.00    +0.014 A 
ATOM     17  C   UNL     1      -5.210   2.064   6.957  0.00  0.00    +0.050 A 
ATOM     18  C   UNL     1      -4.218   1.015   6.638  0.00  0.00    +0.258 C 
ATOM     19  O   UNL     1      -3.058   1.003   6.998  0.00  0.00    -0.269 OA
ENDBRANCH   8   9
ENDBRANCH   1   3
BRANCH   1  20
ATOM     20  C   UNL     1      -2.407   0.548   2.791  0.00  0.00    +0.136 C 
ATOM     21  S   UNL     1      -0.937  -0.284   3.072  0.00  0.00    -0.019 S 
BRANCH  20  22
ATOM     22  N   UNL     1      -2.430   1.617   1.971  0.00  0.00    -0.305 N 
ATOM     23  H   UNL     1      -3.263   2.088   1.811  0.00  0.00    +0.150 HD
BRANCH  22  24
ATOM     24  C   UNL     1      -1.197   2.067   1.320  0.00  0.00    +0.214 C 
BRANCH  24  27
ATOM     25  C   UNL     1       0.351   3.222   2.806  0.00  0.00    +0.402 C 
ATOM     26  O   UNL     1       0.907   2.160   3.003  0.00  0.00    -0.226 OA
ATOM     27  N   UNL     1      -0.712   3.282   1.980  0.00  0.00    -0.259 N 
ATOM     28  H   UNL     1      -1.157   4.130   1.823  0.00  0.00    +0.154 HD
BRANCH  25  29
ATOM     29  O   UNL     1       0.800   4.339   3.408  0.00  0.00    -0.451 OA
BRANCH  29  31
ATOM     30  C   UNL     1       2.314   5.566   4.869  0.00  0.00    +0.048 C 
ATOM     31  C   UNL     1       1.953   4.201   4.280  0.00  0.00    +0.230 C 
ENDBRANCH  29  31
ENDBRANCH  25  29
ENDBRANCH  24  27
BRANCH  24  32
ATOM     32  C   UNL     1      -1.478   2.365  -0.154  0.00  0.00    +0.225 C 
ATOM     33 CL   UNL     1       0.039   2.920  -0.955  0.00  0.00    -0.080 Cl
ATOM     34 CL   UNL     1      -2.074   0.870  -0.967  0.00  0.00    -0.080 Cl
ATOM     35 CL   UNL     1      -2.730   3.657  -0.279  0.00  0.00    -0.080 Cl
ENDBRANCH  24  32
ENDBRANCH  22  24
ENDBRANCH  20  22
ENDBRANCH   1  20
TORSDOF 9
