REMARK  Name = ZINC10467740
REMARK  9 active torsions:
REMARK  status: ('A' for Active; 'I' for Inactive)
REMARK    1  A    between atoms: C_1  and  C_2
REMARK    2  A    between atoms: C_2  and  C_4
REMARK    3  A    between atoms: C_2  and  N_12
REMARK    4  A    between atoms: C_9  and  O_10
REMARK    5  A    between atoms: O_10  and  C_11
REMARK    6  A    between atoms: N_15  and  C_16
REMARK    7  A    between atoms: C_16  and  C_17
REMARK    8  A    between atoms: C_17  and  C_19
REMARK    9  A    between atoms: C_17  and  C_24
REMARK                            x       y       z     vdW  Elec       q    Type
REMARK                         _______ _______ _______ _____ _____    ______ ____
ROOT
ATOM      1  C   UNL     1      -4.006  -1.278   2.460  0.00  0.00    +0.119 C 
ENDROOT
BRANCH   1   5
ATOM      2  N   UNL     1      -1.372  -0.511   0.012  0.00  0.00    -0.293 N 
ATOM      3  C   UNL     1      -2.029  -0.655   1.181  0.00  0.00    +0.300 C 
ATOM      4  O   UNL     1      -1.480  -0.364   2.226  0.00  0.00    -0.253 OA
ATOM      5  N   UNL     1      -3.293  -1.122   1.190  0.00  0.00    -0.298 N 
ATOM      6  H   UNL     1      -1.810  -0.743  -0.822  0.00  0.00    +0.151 HD
ATOM      7  H   UNL     1      -3.731  -1.354   0.356  0.00  0.00    +0.150 HD
BRANCH   2   9
ATOM      8  C   UNL     1      -0.019   1.526   0.010  0.00  0.00    +0.033 C 
ATOM      9  C   UNL     1       0.002  -0.004   0.002  0.00  0.00    +0.105 C 
BRANCH   9  10
ATOM     10  C   UNL     1       0.707  -0.490  -1.238  0.00  0.00    +0.014 A 
ATOM     11  C   UNL     1      -0.022  -0.817  -2.365  0.00  0.00    +0.009 A 
ATOM     12  C   UNL     1       0.625  -1.264  -3.502  0.00  0.00    +0.001 A 
ATOM     13  C   UNL     1       2.002  -1.383  -3.516  0.00  0.00    +0.004 A 
ATOM     14  C   UNL     1       2.736  -1.057  -2.392  0.00  0.00    +0.046 A 
ATOM     15  C   UNL     1       2.090  -0.604  -1.250  0.00  0.00    +0.125 A 
BRANCH  15  16
ATOM     16  O   UNL     1       2.810  -0.277  -0.145  0.00  0.00    -0.495 OA
ATOM     17  C   UNL     1       4.229  -0.419  -0.230  0.00  0.00    +0.277 C 
ENDBRANCH  15  16
ENDBRANCH   9  10
ENDBRANCH   2   9
ENDBRANCH   1   5
BRANCH   1  18
ATOM     18  C   UNL     1      -5.412  -1.820   2.192  0.00  0.00    +0.075 C 
BRANCH  18  19
ATOM     19  C   UNL     1      -6.102  -2.097   3.503  0.00  0.00    -0.013 A 
ATOM     20  C   UNL     1      -6.372  -1.204   4.468  0.00  0.00    +0.088 A 
ATOM     21  N   UNL     1      -7.007  -1.821   5.511  0.00  0.00    -0.360 N 
ATOM     22  H   UNL     1      -7.302  -1.380   6.323  0.00  0.00    +0.165 HD
ATOM     23  C   UNL     1      -7.165  -3.161   5.236  0.00  0.00    +0.047 A 
ATOM     24  C   UNL     1      -6.611  -3.391   3.963  0.00  0.00    +0.003 A 
ATOM     25  C   UNL     1      -6.635  -4.675   3.416  0.00  0.00    +0.010 A 
ATOM     26  C   UNL     1      -7.200  -5.702   4.118  0.00  0.00    +0.001 A 
ATOM     27  C   UNL     1      -7.752  -5.479   5.372  0.00  0.00    +0.002 A 
ATOM     28  C   UNL     1      -7.731  -4.221   5.935  0.00  0.00    +0.026 A 
ENDBRANCH  18  19
BRANCH  18  29
ATOM     29  C   UNL     1      -6.203  -0.801   1.413  0.00  0.00    -0.001 A 
ATOM     30  C   UNL     1      -6.780  -0.920   0.192  0.00  0.00    +0.012 A 
ATOM     31  C   UNL     1      -7.466   0.159  -0.333  0.00  0.00    +0.008 A 
ATOM     32  C   UNL     1      -7.542   1.304   0.389  0.00  0.00    +0.045 A 
ATOM     33  S   UNL     1      -6.631   0.873   1.863  0.00  0.00    -0.101 S 
ENDBRANCH  18  29
ENDBRANCH   1  18
TORSDOF 7
