REMARK  Name = ZINC14533233
REMARK  11 active torsions:
REMARK  status: ('A' for Active; 'I' for Inactive)
REMARK    1  A    between atoms: C_1  and  C_2
REMARK    2  A    between atoms: C_2  and  C_3
REMARK    3  A    between atoms: C_2  and  C_4
REMARK    4  A    between atoms: C_2  and  O_36
REMARK    5  A    between atoms: C_5  and  C_6
REMARK    6  A    between atoms: C_9  and  C_12
REMARK    7  A    between atoms: C_12  and  N_13
REMARK    8  A    between atoms: C_18  and  C_27
REMARK    9  A    between atoms: C_20  and  C_21
REMARK   10  A    between atoms: C_27  and  C_28
REMARK   11  A    between atoms: C_28  and  C_29
REMARK                            x       y       z     vdW  Elec       q    Type
REMARK                         _______ _______ _______ _____ _____    ______ ____
ROOT
ATOM      1  N   UNL     1       8.481   0.423  -1.142  0.00  0.00    -0.291 NA
ATOM      2  C   UNL     1       9.298  -0.483  -1.962  0.00  0.00    +0.106 C 
ATOM      3  C   UNL     1       9.036  -1.938  -1.552  0.00  0.00    +0.138 C 
ATOM      4  N   UNL     1       7.586  -2.151  -1.531  0.00  0.00    -0.330 N 
ATOM      5  C   UNL     1       6.671  -1.126  -1.518  0.00  0.00    +0.053 A 
ATOM      6  C   UNL     1       5.457  -1.684  -1.504  0.00  0.00    +0.038 A 
ATOM      7  N   UNL     1       5.618  -3.019  -1.513  0.00  0.00    -0.346 N 
ATOM      8  C   UNL     1       6.896  -3.301  -1.528  0.00  0.00    +0.091 A 
ATOM      9  C   UNL     1       7.055   0.331  -1.504  0.00  0.00    +0.140 C 
ATOM     10  H   UNL     1       4.738  -3.679  -1.508  0.00  0.00    +0.167 HD
ENDROOT
BRANCH   8  11
ATOM     11  C   UNL     1       7.492  -4.686  -1.540  0.00  0.00    +0.058 C 
ATOM     12  C   UNL     1       7.009  -5.441  -2.782  0.00  0.00    +0.039 C 
ATOM     13  C   UNL     1       7.556  -6.870  -2.745  0.00  0.00    +0.160 C 
ATOM     14  O   UNL     1       7.128  -7.511  -1.542  0.00  0.00    -0.380 OA
ATOM     15  C   UNL     1       7.590  -6.876  -0.347  0.00  0.00    +0.160 C 
ATOM     16  C   UNL     1       7.045  -5.447  -0.288  0.00  0.00    +0.039 C 
ENDBRANCH   8  11
BRANCH   1  17
ATOM     17  C   UNL     1       8.963   1.806  -1.246  0.00  0.00    +0.120 C 
BRANCH  17  21
ATOM     18  C   UNL     1       8.364   3.227  -5.234  0.00  0.00    +0.025 A 
ATOM     19  C   UNL     1       7.368   3.399  -4.273  0.00  0.00    +0.017 A 
ATOM     20  C   UNL     1       7.568   2.938  -2.987  0.00  0.00    +0.006 A 
ATOM     21  C   UNL     1       8.752   2.307  -2.652  0.00  0.00    -0.033 A 
ATOM     22  C   UNL     1       9.746   2.139  -3.599  0.00  0.00    +0.006 A 
ATOM     23  C   UNL     1       9.557   2.590  -4.889  0.00  0.00    +0.017 A 
BRANCH  18  25
ATOM     24  C   UNL     1       7.999   4.093  -7.665  0.00  0.00    -0.063 C 
ATOM     25  C   UNL     1       8.164   3.703  -6.570  0.00  0.00    -0.063 C 
BRANCH  24  27
ATOM     26  C   UNL     1       9.030   4.268  -9.883  0.00  0.00    +0.055 C 
ATOM     27  C   UNL     1       7.793   4.581  -9.038  0.00  0.00    +0.121 C 
ATOM     28  C   UNL     1       6.571   3.891  -9.647  0.00  0.00    +0.055 C 
BRANCH  27  29
ATOM     29  O   UNL     1       7.579   5.994  -9.014  0.00  0.00    -0.377 OA
ATOM     30  H   UNL     1       6.730   6.412  -8.453  0.00  0.00    +0.211 HD
ENDBRANCH  27  29
ENDBRANCH  24  27
ENDBRANCH  18  25
ENDBRANCH  17  21
ENDBRANCH   1  17
BRANCH   6  31
ATOM     31  C   UNL     1       4.142  -0.948  -1.487  0.00  0.00    +0.059 C 
BRANCH  31  32
ATOM     32  C   UNL     1       3.711  -0.707  -0.039  0.00  0.00    +0.041 C 
BRANCH  32  33
ATOM     33  C   UNL     1       2.396   0.029  -0.022  0.00  0.00    -0.047 A 
ATOM     34  C   UNL     1       1.208  -0.679  -0.014  0.00  0.00    +0.003 A 
ATOM     35  C   UNL     1       0.002  -0.004   0.002  0.00  0.00    +0.000 A 
ATOM     36  C   UNL     1      -0.017   1.378   0.010  0.00  0.00    +0.000 A 
ATOM     37  C   UNL     1       1.171   2.086   0.002  0.00  0.00    +0.000 A 
ATOM     38  C   UNL     1       2.377   1.411  -0.014  0.00  0.00    +0.003 A 
ENDBRANCH  32  33
ENDBRANCH  31  32
ENDBRANCH   6  31
TORSDOF 9
