REMARK  Name = ZINC13639553
REMARK  3 active torsions:
REMARK  status: ('A' for Active; 'I' for Inactive)
REMARK    1  A    between atoms: C_3  and  C_9
REMARK    2  A    between atoms: C_4  and  O_8
REMARK    3  A    between atoms: C_6  and  O_7
REMARK                            x       y       z     vdW  Elec       q    Type
REMARK                         _______ _______ _______ _____ _____    ______ ____
ROOT
ATOM      1  C   UNL     1       0.002  -0.004   0.002  0.00  0.00    +0.108 C 
ATOM      2  C   UNL     1       1.144  -0.439   0.897  0.00  0.00    +0.029 C 
ATOM      3  C   UNL     1       1.447  -1.938   1.000  0.00  0.00    +0.033 C 
ATOM      4  C   UNL     1       2.952  -1.926   1.278  0.00  0.00    -0.030 C 
ATOM      5  C   UNL     1       3.495  -0.819   0.785  0.00  0.00    -0.023 C 
ATOM      6  C   UNL     1       2.432  -0.030   0.116  0.00  0.00    +0.049 C 
ATOM      7  C   UNL     1       2.447   1.448   0.064  0.00  0.00    -0.017 A 
ATOM      8  C   UNL     1       3.628   2.162   0.073  0.00  0.00    +0.026 A 
ATOM      9  C   UNL     1       3.614   3.543   0.008  0.00  0.00    +0.043 A 
ATOM     10  C   UNL     1       2.404   4.212  -0.066  0.00  0.00    +0.041 A 
ATOM     11  C   UNL     1       1.221   3.506  -0.069  0.00  0.00    +0.063 A 
ATOM     12  C   UNL     1       1.219   2.111   0.002  0.00  0.00    +0.050 A 
ATOM     13  N   UNL     1      -0.018   1.467   0.010  0.00  0.00    -0.335 N 
ATOM     14 CL   UNL     1      -0.287   4.362  -0.161  0.00  0.00    -0.082 Cl
ATOM     15 CL   UNL     1       5.105   4.433   0.020  0.00  0.00    -0.083 Cl
ATOM     16  H   UNL     1      -0.616   1.825  -0.719  0.00  0.00    +0.147 HD
ENDROOT
BRANCH   1  19
ATOM     17  C   UNL     1       1.083  -0.167  -3.611  0.00  0.00    +0.046 A 
ATOM     18  C   UNL     1       0.870   0.293  -2.326  0.00  0.00    +0.012 A 
ATOM     19  C   UNL     1       0.228  -0.507  -1.401  0.00  0.00    +0.015 A 
ATOM     20  C   UNL     1      -0.213  -1.772  -1.763  0.00  0.00    +0.125 A 
ATOM     21  C   UNL     1      -0.005  -2.234  -3.053  0.00  0.00    +0.091 A 
ATOM     22  C   UNL     1       0.644  -1.431  -3.978  0.00  0.00    +0.120 A 
BRANCH  22  23
ATOM     23  O   UNL     1       0.850  -1.881  -5.244  0.00  0.00    -0.507 OA
ATOM     24  H   UNL     1       0.134  -1.670  -5.858  0.00  0.00    +0.292 HD
ENDBRANCH  22  23
BRANCH  20  25
ATOM     25  O   UNL     1      -0.850  -2.557  -0.854  0.00  0.00    -0.506 OA
ATOM     26  H   UNL     1      -1.810  -2.442  -0.839  0.00  0.00    +0.292 HD
ENDBRANCH  20  25
ENDBRANCH   1  19
TORSDOF 3
