REMARK  Name = ZINC32655063
REMARK  11 active torsions:
REMARK  status: ('A' for Active; 'I' for Inactive)
REMARK    1  A    between atoms: C_1  and  C_2
REMARK    2  A    between atoms: C_3  and  C_34
REMARK    3  A    between atoms: C_4  and  C_17
REMARK    4  A    between atoms: C_20  and  O_25
REMARK    5  A    between atoms: C_21  and  O_23
REMARK    6  A    between atoms: O_23  and  C_24
REMARK    7  A    between atoms: O_25  and  C_26
REMARK    8  A    between atoms: C_26  and  C_27
REMARK    9  A    between atoms: C_34  and  O_36
REMARK   10  A    between atoms: O_36  and  C_37
REMARK   11  A    between atoms: C_37  and  C_38
REMARK                            x       y       z     vdW  Elec       q    Type
REMARK                         _______ _______ _______ _____ _____    ______ ____
ROOT
ATOM      1  C   UNL     1       2.531  -6.019   2.241  0.00  0.00    +0.061 C 
ATOM      2  C   UNL     1       2.446  -5.092   1.056  0.00  0.00    +0.017 C 
ATOM      3  C   UNL     1       2.612  -3.771   1.236  0.00  0.00    +0.065 C 
ATOM      4  C   UNL     1       2.529  -2.803   0.091  0.00  0.00    +0.096 C 
ATOM      5  C   UNL     1       2.647  -3.517  -1.225  0.00  0.00    +0.067 A 
ATOM      6  C   UNL     1       2.479  -4.867  -1.311  0.00  0.00    +0.113 A 
ATOM      7  N   UNL     1       2.588  -5.487  -2.533  0.00  0.00    -0.295 N 
ATOM      8  H   UNL     1       2.451  -6.575  -2.611  0.00  0.00    +0.172 HD
ATOM      9  C   UNL     1       2.863  -4.770  -3.637  0.00  0.00    +0.328 A 
ATOM     10  O   UNL     1       2.956  -5.334  -4.710  0.00  0.00    -0.247 OA
ATOM     11  N   UNL     1       3.037  -3.437  -3.572  0.00  0.00    -0.275 N 
ATOM     12  H   UNL     1       3.263  -2.866  -4.485  0.00  0.00    +0.173 HD
ATOM     13  C   UNL     1       2.936  -2.790  -2.394  0.00  0.00    +0.260 A 
ATOM     14  O   UNL     1       3.095  -1.583  -2.342  0.00  0.00    -0.267 OA
ATOM     15  N   UNL     1       2.203  -5.607  -0.187  0.00  0.00    -0.304 N 
ATOM     16  H   UNL     1       1.784  -6.619  -0.291  0.00  0.00    +0.153 HD
ENDROOT
BRANCH   4  17
ATOM     17  C   UNL     1       1.206  -2.082   0.147  0.00  0.00    -0.031 A 
ATOM     18  C   UNL     1       0.027  -2.799   0.071  0.00  0.00    +0.008 A 
ATOM     19  C   UNL     1      -1.189  -2.143   0.122  0.00  0.00    +0.050 A 
ATOM     20  C   UNL     1      -1.227  -0.764   0.255  0.00  0.00    +0.162 A 
ATOM     21  C   UNL     1      -0.040  -0.042   0.325  0.00  0.00    +0.162 A 
ATOM     22  C   UNL     1       1.175  -0.706   0.274  0.00  0.00    +0.054 A 
BRANCH  21  23
ATOM     23  O   UNL     1      -0.072   1.312   0.450  0.00  0.00    -0.491 OA
ATOM     24  C   UNL     1       1.186   1.986   0.522  0.00  0.00    +0.277 C 
ENDBRANCH  21  23
BRANCH  20  25
ATOM     25  O   UNL     1      -2.422  -0.118   0.310  0.00  0.00    -0.484 OA
BRANCH  25  26
ATOM     26  C   UNL     1      -3.600  -0.923   0.232  0.00  0.00    +0.266 C 
BRANCH  26  27
ATOM     27  C   UNL     1      -4.819  -0.040   0.310  0.00  0.00    +0.008 A 
ATOM     28  C   UNL     1      -4.673   1.328   0.442  0.00  0.00    +0.008 A 
ATOM     29  C   UNL     1      -5.791   2.139   0.509  0.00  0.00    +0.000 A 
ATOM     30  C   UNL     1      -7.055   1.581   0.453  0.00  0.00    +0.001 A 
ATOM     31  C   UNL     1      -7.201   0.212   0.326  0.00  0.00    +0.020 A 
ATOM     32  C   UNL     1      -6.083  -0.599   0.254  0.00  0.00    +0.047 A 
ATOM     33 CL   UNL     1      -6.266  -2.318   0.095  0.00  0.00    -0.083 Cl
ENDBRANCH  26  27
ENDBRANCH  25  26
ENDBRANCH  20  25
ENDBRANCH   4  17
BRANCH   3  34
ATOM     34  C   UNL     1       2.871  -3.280   2.536  0.00  0.00    +0.338 C 
ATOM     35  O   UNL     1       2.835  -4.035   3.490  0.00  0.00    -0.245 OA
BRANCH  34  36
ATOM     36  O   UNL     1       3.157  -1.974   2.720  0.00  0.00    -0.457 OA
BRANCH  36  37
ATOM     37  C   UNL     1       3.408  -1.547   4.060  0.00  0.00    +0.259 C 
BRANCH  37  38
ATOM     38  C   UNL     1       3.708  -0.070   4.069  0.00  0.00    +0.006 C 
ATOM     39  C   UNL     1       3.150   0.706   4.965  0.00  0.00    +0.007 C 
ENDBRANCH  37  38
ENDBRANCH  36  37
ENDBRANCH  34  36
ENDBRANCH   3  34
TORSDOF 9
