REMARK  Name = ZINC06145162
REMARK  6 active torsions:
REMARK  status: ('A' for Active; 'I' for Inactive)
REMARK    1  A    between atoms: C_1  and  N_48
REMARK    2  A    between atoms: C_4  and  C_10
REMARK    3  A    between atoms: C_6  and  O_9
REMARK    4  A    between atoms: C_11  and  O_29
REMARK    5  A    between atoms: C_16  and  O_28
REMARK    6  A    between atoms: C_18  and  C_21
REMARK                            x       y       z     vdW  Elec       q    Type
REMARK                         _______ _______ _______ _____ _____    ______ ____
ROOT
ATOM      1  C   UNL     1       3.591   1.940   1.196  0.00  0.00    +0.043 A 
ATOM      2  C   UNL     1       4.403   1.585   0.126  0.00  0.00    +0.128 A 
ATOM      3  C   UNL     1       5.724   1.995   0.053  0.00  0.00    +0.097 A 
ATOM      4  C   UNL     1       6.269   2.784   1.069  0.00  0.00    +0.197 A 
ATOM      5  O   UNL     1       7.538   3.184   1.011  0.00  0.00    -0.287 OA
ATOM      6  C   UNL     1       5.419   3.159   2.196  0.00  0.00    +0.106 A 
ATOM      7  C   UNL     1       5.912   3.952   3.251  0.00  0.00    +0.135 A 
ATOM      8  C   UNL     1       5.045   4.275   4.300  0.00  0.00    +0.093 A 
ATOM      9  C   UNL     1       3.746   3.816   4.278  0.00  0.00    +0.140 A 
ATOM     10  O   UNL     1       3.286   3.061   3.268  0.00  0.00    -0.454 OA
ATOM     11  C   UNL     1       4.077   2.724   2.227  0.00  0.00    +0.150 A 
ENDROOT
BRANCH   1  15
ATOM     12  C   UNL     1      -1.356  -0.548  -0.128  0.00  0.00    -0.096 C 
ATOM     13  C   UNL     1      -0.018   1.464   0.010  0.00  0.00    -0.078 C 
ATOM     14  C   UNL     1       1.417   1.995  -0.001  0.00  0.00    -0.008 C 
ATOM     15  C   UNL     1       2.160   1.470   1.231  0.00  0.00    +0.051 C 
ATOM     16  C   UNL     1       2.125  -0.061   1.224  0.00  0.00    +0.106 C 
ATOM     17  C   UNL     1       0.669  -0.533   1.199  0.00  0.00    -0.047 C 
ATOM     18  N   UNL     1       0.017  -0.013  -0.022  0.00  0.00    +0.380 N 
ATOM     19  H   UNL     1       0.556  -0.316  -0.842  0.00  0.00    -0.082 HD
BRANCH  16  20
ATOM     20  O   UNL     1       2.768  -0.559   2.399  0.00  0.00    -0.393 OA
ATOM     21  H   UNL     1       2.779  -1.524   2.462  0.00  0.00    +0.210 HD
ENDBRANCH  16  20
ENDBRANCH   1  15
BRANCH   9  22
ATOM     22  C   UNL     1       2.840   4.162   5.389  0.00  0.00    +0.036 A 
ATOM     23  C   UNL     1       3.241   3.955   6.712  0.00  0.00    +0.013 A 
ATOM     24  C   UNL     1       2.391   4.286   7.746  0.00  0.00    +0.001 A 
ATOM     25  C   UNL     1       1.139   4.811   7.477  0.00  0.00    +0.001 A 
ATOM     26  C   UNL     1       0.731   5.014   6.171  0.00  0.00    +0.021 A 
ATOM     27  C   UNL     1       1.573   4.692   5.125  0.00  0.00    +0.052 A 
ATOM     28 CL   UNL     1       1.061   4.946   3.486  0.00  0.00    -0.083 Cl
ENDBRANCH   9  22
BRANCH   7  29
ATOM     29  O   UNL     1       7.191   4.390   3.249  0.00  0.00    -0.506 OA
ATOM     30  H   UNL     1       7.312   5.247   2.818  0.00  0.00    +0.292 HD
ENDBRANCH   7  29
BRANCH   2  31
ATOM     31  O   UNL     1       3.890   0.820  -0.870  0.00  0.00    -0.506 OA
ATOM     32  H   UNL     1       3.491   1.326  -1.590  0.00  0.00    +0.292 HD
ENDBRANCH   2  31
TORSDOF 5
