REMARK  Name = ZINC44122883
REMARK  13 active torsions:
REMARK  status: ('A' for Active; 'I' for Inactive)
REMARK    1  A    between atoms: C_1  and  C_2
REMARK    2  A    between atoms: C_2  and  C_4
REMARK    3  A    between atoms: C_2  and  C_10
REMARK    4  A    between atoms: C_4  and  C_5
REMARK    5  A    between atoms: C_5  and  C_6
REMARK    6  A    between atoms: C_6  and  C_7
REMARK    7  A    between atoms: C_7  and  C_8
REMARK    8  A    between atoms: C_7  and  C_9
REMARK    9  A    between atoms: C_16  and  C_37
REMARK   10  A    between atoms: C_24  and  O_36
REMARK   11  A    between atoms: C_26  and  O_35
REMARK   12  A    between atoms: C_27  and  C_34
REMARK   13  A    between atoms: C_30  and  O_33
REMARK                            x       y       z     vdW  Elec       q    Type
REMARK                         _______ _______ _______ _____ _____    ______ ____
ROOT
ATOM      1  C   UNL     1       0.847  -0.419   1.209  0.00  0.00    -0.002 C 
ATOM      2  C   UNL     1       0.151   0.012   2.524  0.00  0.00    +0.004 C 
ATOM      3  C   UNL     1      -0.206  -1.297   3.280  0.00  0.00    +0.004 C 
ATOM      4  C   UNL     1      -0.276  -2.335   2.155  0.00  0.00    -0.001 C 
ATOM      5  C   UNL     1       0.950  -1.938   1.284  0.00  0.00    -0.026 C 
ATOM      6  C   UNL     1       0.841  -2.692  -0.027  0.00  0.00    +0.007 C 
ATOM      7  C   UNL     1       0.965  -4.190   0.294  0.00  0.00    +0.005 C 
ATOM      8  C   UNL     1      -0.098  -4.636   1.292  0.00  0.00    +0.001 C 
ATOM      9  C   UNL     1      -0.091  -3.781   2.576  0.00  0.00    -0.001 C 
ATOM     10  C   UNL     1      -1.230  -4.218   3.499  0.00  0.00    +0.038 C 
ATOM     11  C   UNL     1      -1.041  -5.688   3.877  0.00  0.00    +0.147 C 
ATOM     12  C   UNL     1      -1.054  -6.548   2.611  0.00  0.00    +0.100 C 
ATOM     13  C   UNL     1       0.119  -6.103   1.666  0.00  0.00    +0.002 C 
ATOM     14  C   UNL     1       1.473  -6.257   2.361  0.00  0.00    +0.012 C 
ATOM     15  C   UNL     1       1.690  -7.725   2.733  0.00  0.00    +0.032 C 
ATOM     16  C   UNL     1       0.577  -8.181   3.679  0.00  0.00    +0.117 C 
ATOM     17  C   UNL     1      -0.858  -8.017   2.990  0.00  0.00    +0.069 C 
ATOM     18  C   UNL     1       0.098  -6.960   0.399  0.00  0.00    +0.014 C 
ATOM     19  C   UNL     1       2.244  -2.333   2.000  0.00  0.00    +0.012 C 
ENDROOT
BRANCH   1  21
ATOM     20  C   UNL     1      -1.432  -0.503   0.188  0.00  0.00    +0.008 C 
ATOM     21  C   UNL     1       0.002  -0.004   0.002  0.00  0.00    -0.010 C 
BRANCH  21  22
ATOM     22  C   UNL     1       0.000   1.521  -0.119  0.00  0.00    +0.003 C 
BRANCH  22  23
ATOM     23  C   UNL     1      -0.718   1.929  -1.407  0.00  0.00    +0.001 C 
BRANCH  23  24
ATOM     24  C   UNL     1      -0.720   3.455  -1.529  0.00  0.00    +0.003 C 
BRANCH  24  25
ATOM     25  C   UNL     1      -1.437   3.863  -2.817  0.00  0.00    -0.017 C 
ATOM     26  C   UNL     1      -2.911   3.462  -2.728  0.00  0.00    +0.007 C 
ATOM     27  C   UNL     1      -1.331   5.378  -3.001  0.00  0.00    +0.007 C 
ENDBRANCH  24  25
ENDBRANCH  23  24
ENDBRANCH  22  23
ENDBRANCH  21  22
ENDBRANCH   1  21
BRANCH  16  28
ATOM     28  O   UNL     1       0.780  -9.552   4.027  0.00  0.00    -0.392 OA
ATOM     29  H   UNL     1       1.621  -9.724   4.473  0.00  0.00    +0.210 HD
ENDBRANCH  16  28
BRANCH  12  30
ATOM     30  O   UNL     1      -2.308  -6.392   1.943  0.00  0.00    -0.385 OA
ATOM     31  H   UNL     1      -3.072  -6.654   2.475  0.00  0.00    +0.210 HD
ENDBRANCH  12  30
BRANCH  11  32
ATOM     32  O   UNL     1      -2.103  -6.098   4.741  0.00  0.00    -0.389 OA
ATOM     33  H   UNL     1      -2.155  -5.596   5.565  0.00  0.00    +0.210 HD
ENDBRANCH  11  32
TORSDOF 8
