REMARK  Name = ZINC26892655
REMARK  3 active torsions:
REMARK  status: ('A' for Active; 'I' for Inactive)
REMARK    1  A    between atoms: C_1  and  C_2
REMARK    2  A    between atoms: C_13  and  O_15
REMARK    3  A    between atoms: C_20  and  O_26
REMARK                            x       y       z     vdW  Elec       q    Type
REMARK                         _______ _______ _______ _____ _____    ______ ____
ROOT
ATOM      1  C   UNL     1      -1.696  -0.748   3.538  0.00  0.00    +0.014 C 
ATOM      2  C   UNL     1      -1.960   0.739   3.779  0.00  0.00    -0.003 C 
ATOM      3  C   UNL     1      -2.822   1.296   2.662  0.00  0.00    +0.010 C 
ATOM      4  C   UNL     1      -2.116   0.969   1.337  0.00  0.00    +0.005 C 
ATOM      5  C   UNL     1      -0.706   1.548   1.294  0.00  0.00    -0.000 C 
ATOM      6  C   UNL     1       0.126   1.094   2.504  0.00  0.00    -0.003 C 
ATOM      7  C   UNL     1      -0.619   1.522   3.755  0.00  0.00    +0.001 C 
ATOM      8  C   UNL     1       0.012   1.097   5.085  0.00  0.00    +0.007 C 
ATOM      9  C   UNL     1      -1.191   1.127   6.067  0.00  0.00    +0.032 C 
ATOM     10  C   UNL     1      -2.465   0.952   5.202  0.00  0.00    +0.121 C 
ATOM     11  C   UNL     1       1.498   1.770   2.460  0.00  0.00    +0.008 C 
ATOM     12  C   UNL     1       2.262   1.295   1.221  0.00  0.00    +0.031 C 
ATOM     13  C   UNL     1       1.406   1.575  -0.003  0.00  0.00    -0.068 C 
ATOM     14  C   UNL     1       1.944   2.222  -0.995  0.00  0.00    +0.003 C 
ATOM     15  C   UNL     1       1.198   2.562  -2.253  0.00  0.00    +0.137 C 
ATOM     16  C   UNL     1       0.070   1.546  -2.455  0.00  0.00    +0.036 C 
ATOM     17  C   UNL     1      -0.812   1.557  -1.195  0.00  0.00    +0.011 C 
ATOM     18  C   UNL     1      -0.013   1.086   0.008  0.00  0.00    +0.018 C 
ENDROOT
BRANCH  10  19
ATOM     19  O   UNL     1      -3.277   2.125   5.270  0.00  0.00    -0.391 OA
ATOM     20  H   UNL     1      -3.726   2.429   6.227  0.00  0.00    +0.210 HD
ENDBRANCH  10  19
BRANCH  15  21
ATOM     21  O   UNL     1       2.092   2.515  -3.367  0.00  0.00    -0.388 OA
ATOM     22  H   UNL     1       1.722   2.737  -4.379  0.00  0.00    +0.210 HD
ENDBRANCH  15  21
TORSDOF 2
