REMARK  Name = ZINC39655994
REMARK  7 active torsions:
REMARK  status: ('A' for Active; 'I' for Inactive)
REMARK    1  A    between atoms: C_1  and  C_2
REMARK    2  A    between atoms: C_8  and  C_11
REMARK    3  A    between atoms: C_11  and  C_12
REMARK    4  A    between atoms: C_12  and  N_13
REMARK    5  A    between atoms: C_14  and  C_16
REMARK    6  A    between atoms: C_27  and  C_29
REMARK    7  A    between atoms: C_33  and  C_35
REMARK                            x       y       z     vdW  Elec       q    Type
REMARK                         _______ _______ _______ _____ _____    ______ ____
ROOT
ATOM      1  C   UNL     1       5.244   0.113  -7.691  0.00  0.00    +0.100 C 
ATOM      2  C   UNL     1       5.998   0.458  -6.387  0.00  0.00    +0.121 C 
ATOM      3  N   UNL     1       6.367  -0.856  -5.810  0.00  0.00    -0.296 N 
ATOM      4  C   UNL     1       6.756  -1.677  -6.982  0.00  0.00    +0.115 C 
ATOM      5  C   UNL     1       5.747  -1.287  -8.080  0.00  0.00    -0.004 C 
ATOM      6  C   UNL     1       6.437  -1.242  -9.440  0.00  0.00    -0.010 C 
ATOM      7  C   UNL     1       6.876  -2.656  -9.832  0.00  0.00    -0.082 C 
ATOM      8  N   UNL     1       5.704  -3.537  -9.885  0.00  0.00    +0.379 N 
ATOM      9  C   UNL     1       5.101  -3.649  -8.551  0.00  0.00    -0.082 C 
ATOM     10  C   UNL     1       4.586  -2.277  -8.105  0.00  0.00    -0.010 C 
ATOM     11  C   UNL     1       6.354  -1.222  -4.513  0.00  0.00    +0.247 C 
ATOM     12  O   UNL     1       5.889  -0.474  -3.675  0.00  0.00    -0.270 OA
ATOM     13  H   UNL     1       5.027  -3.156 -10.528  0.00  0.00    -0.086 HD
ATOM     14  H   UNL     1       5.987  -4.452 -10.202  0.00  0.00    -0.086 HD
ENDROOT
BRANCH  11  15
ATOM     15  C   UNL     1       6.904  -2.532  -4.109  0.00  0.00    +0.037 A 
ATOM     16  C   UNL     1       7.809  -3.198  -4.939  0.00  0.00    +0.016 A 
ATOM     17  C   UNL     1       8.319  -4.420  -4.558  0.00  0.00    +0.039 A 
ATOM     18  C   UNL     1       7.936  -4.988  -3.352  0.00  0.00    +0.126 A 
ATOM     19  C   UNL     1       7.038  -4.332  -2.525  0.00  0.00    -0.015 A 
ATOM     20  C   UNL     1       6.526  -3.106  -2.894  0.00  0.00    +0.019 A 
ATOM     21  C   UNL     1       6.625  -4.956  -1.217  0.00  0.00    +0.047 C 
ATOM     22  F   UNL     1       8.439  -6.187  -2.983  0.00  0.00    -0.205 F 
ENDBRANCH  11  15
BRANCH   1  24
ATOM     23  N   UNL     1       2.902   0.284  -8.470  0.00  0.00    -0.315 N 
ATOM     24  C   UNL     1       3.757   0.088  -7.446  0.00  0.00    +0.218 C 
ATOM     25  O   UNL     1       3.330  -0.110  -6.329  0.00  0.00    -0.275 OA
ATOM     26  H   UNL     1       3.244   0.443  -9.364  0.00  0.00    +0.149 HD
BRANCH  23  27
ATOM     27  C   UNL     1       1.457   0.259  -8.232  0.00  0.00    +0.109 C 
BRANCH  27  28
ATOM     28  C   UNL     1       0.719   0.508  -9.548  0.00  0.00    +0.056 C 
BRANCH  28  36
ATOM     29  C   UNL     1      -2.070   5.188  -7.778  0.00  0.00    +0.044 C 
ATOM     30  C   UNL     1      -2.355   3.751  -8.128  0.00  0.00    -0.050 A 
ATOM     31  C   UNL     1      -3.652   3.265  -8.043  0.00  0.00    +0.005 A 
ATOM     32  C   UNL     1      -3.934   1.954  -8.358  0.00  0.00    +0.026 A 
ATOM     33  C   UNL     1      -2.910   1.106  -8.767  0.00  0.00    +0.047 A 
ATOM     34  N   UNL     1      -2.868  -0.218  -9.141  0.00  0.00    -0.360 N 
ATOM     35  C   UNL     1      -1.585  -0.572  -9.457  0.00  0.00    +0.087 A 
ATOM     36  C   UNL     1      -0.768   0.482  -9.303  0.00  0.00    -0.021 A 
ATOM     37  C   UNL     1      -1.597   1.603  -8.853  0.00  0.00    +0.003 A 
ATOM     38  C   UNL     1      -1.334   2.937  -8.533  0.00  0.00    +0.013 A 
ATOM     39  H   UNL     1      -3.634  -0.812  -9.175  0.00  0.00    +0.165 HD
ENDBRANCH  28  36
ENDBRANCH  27  28
ENDBRANCH  23  27
ENDBRANCH   1  24
TORSDOF 5
