REMARK  Name = ZINC39683860
REMARK  7 active torsions:
REMARK  status: ('A' for Active; 'I' for Inactive)
REMARK    1  A    between atoms: C_1  and  C_2
REMARK    2  A    between atoms: C_2  and  C_4
REMARK    3  A    between atoms: C_2  and  N_8
REMARK    4  A    between atoms: N_6  and  C_7
REMARK    5  A    between atoms: C_9  and  C_11
REMARK    6  A    between atoms: C_22  and  C_24
REMARK    7  A    between atoms: C_26  and  C_31
REMARK                            x       y       z     vdW  Elec       q    Type
REMARK                         _______ _______ _______ _____ _____    ______ ____
ROOT
ATOM      1  C   UNL     1       1.306  -1.379   3.953  0.00  0.00    +0.100 C 
ATOM      2  C   UNL     1       2.317  -0.217   4.079  0.00  0.00    +0.121 C 
ATOM      3  N   UNL     1       1.700   0.712   5.054  0.00  0.00    -0.296 N 
ATOM      4  C   UNL     1       1.091  -0.175   6.074  0.00  0.00    +0.115 C 
ATOM      5  C   UNL     1       0.506  -1.350   5.266  0.00  0.00    -0.004 C 
ATOM      6  C   UNL     1       0.692  -2.659   6.027  0.00  0.00    -0.010 C 
ATOM      7  C   UNL     1      -0.159  -2.630   7.300  0.00  0.00    -0.082 C 
ATOM      8  N   UNL     1      -1.571  -2.445   6.943  0.00  0.00    +0.379 N 
ATOM      9  C   UNL     1      -1.756  -1.141   6.294  0.00  0.00    -0.082 C 
ATOM     10  C   UNL     1      -0.973  -1.107   4.979  0.00  0.00    -0.010 C 
ATOM     11  C   UNL     1       1.694   2.059   5.022  0.00  0.00    +0.247 C 
ATOM     12  O   UNL     1       2.129   2.646   4.051  0.00  0.00    -0.270 OA
ATOM     13  H   UNL     1      -1.855  -3.178   6.310  0.00  0.00    -0.086 HD
ATOM     14  H   UNL     1      -2.136  -2.487   7.778  0.00  0.00    -0.086 HD
ENDROOT
BRANCH  11  15
ATOM     15  C   UNL     1       1.158   2.824   6.168  0.00  0.00    +0.040 A 
ATOM     16  C   UNL     1       1.065   2.227   7.427  0.00  0.00    +0.025 A 
ATOM     17  C   UNL     1       0.565   2.945   8.493  0.00  0.00    +0.058 A 
ATOM     18  C   UNL     1       0.155   4.255   8.319  0.00  0.00    +0.050 A 
ATOM     19  C   UNL     1       0.244   4.854   7.073  0.00  0.00    +0.125 A 
ATOM     20  C   UNL     1       0.749   4.147   5.998  0.00  0.00    +0.051 A 
ATOM     21  F   UNL     1      -0.159   6.133   6.910  0.00  0.00    -0.205 F 
BRANCH  17  22
ATOM     22  C   UNL     1       0.464   2.300   9.852  0.00  0.00    +0.418 C 
ATOM     23  F   UNL     1       1.649   2.520  10.561  0.00  0.00    -0.166 F 
ATOM     24  F   UNL     1      -0.610   2.859  10.554  0.00  0.00    -0.166 F 
ATOM     25  F   UNL     1       0.258   0.925   9.701  0.00  0.00    -0.166 F 
ENDBRANCH  17  22
ENDBRANCH  11  15
BRANCH   1  27
ATOM     26  N   UNL     1      -0.223  -2.200   2.190  0.00  0.00    -0.304 N 
ATOM     27  C   UNL     1       0.391  -1.153   2.776  0.00  0.00    +0.219 C 
ATOM     28  O   UNL     1       0.208  -0.030   2.357  0.00  0.00    -0.275 OA
ATOM     29  H   UNL     1      -0.076  -3.098   2.525  0.00  0.00    +0.149 HD
BRANCH  26  31
ATOM     30  C   UNL     1      -0.285  -1.933  -0.240  0.00  0.00    +0.038 C 
ATOM     31  C   UNL     1      -1.112  -1.981   1.046  0.00  0.00    +0.156 C 
BRANCH  31  32
ATOM     32  C   UNL     1      -2.108  -3.108   0.962  0.00  0.00    +0.233 C 
ATOM     33  O   UNL     1      -2.079  -4.006   1.776  0.00  0.00    -0.274 OA
ATOM     34  N   UNL     1      -3.032  -3.118  -0.020  0.00  0.00    -0.317 N 
ATOM     35  C   UNL     1      -4.001  -4.214  -0.102  0.00  0.00    +0.128 C 
ATOM     36  H   UNL     1      -3.056  -2.400  -0.671  0.00  0.00    +0.148 HD
ENDBRANCH  31  32
ENDBRANCH  26  31
ENDBRANCH   1  27
TORSDOF 5
