REMARK  Name = ZINC02220185
REMARK  6 active torsions:
REMARK  status: ('A' for Active; 'I' for Inactive)
REMARK    1  A    between atoms: C_4  and  C_7
REMARK    2  A    between atoms: C_10  and  S_13
REMARK    3  A    between atoms: N_11  and  N_12
REMARK    4  A    between atoms: S_13  and  C_14
REMARK    5  A    between atoms: C_14  and  C_15
REMARK    6  A    between atoms: N_17  and  C_18
REMARK                            x       y       z     vdW  Elec       q    Type
REMARK                         _______ _______ _______ _____ _____    ______ ____
ROOT
ATOM      1  C   UNL     1       3.659   3.135  -0.071  0.00  0.00    +0.182 A 
ATOM      2  N   UNL     1       3.759   1.834   0.072  0.00  0.00    -0.127 NA
ATOM      3  N   UNL     1       2.593   1.296   0.027  0.00  0.00    -0.121 NA
ATOM      4  C   UNL     1       1.676   2.221  -0.156  0.00  0.00    +0.209 A 
ATOM      5  N   UNL     1       2.322   3.423  -0.221  0.00  0.00    -0.224 N 
ENDROOT
BRANCH   1   9
ATOM      6  C   UNL     1       6.858   5.929  -0.068  0.00  0.00    +0.000 A 
ATOM      7  C   UNL     1       5.560   6.368   0.127  0.00  0.00    +0.001 A 
ATOM      8  C   UNL     1       4.516   5.465   0.127  0.00  0.00    +0.011 A 
ATOM      9  C   UNL     1       4.772   4.107  -0.070  0.00  0.00    +0.021 A 
ATOM     10  C   UNL     1       6.084   3.671  -0.260  0.00  0.00    +0.011 A 
ATOM     11  C   UNL     1       7.118   4.584  -0.264  0.00  0.00    +0.001 A 
ENDBRANCH   1   9
BRANCH   5  12
ATOM     12  N   UNL     1       1.757   4.654  -0.398  0.00  0.00    -0.295 N 
ATOM     13  H   UNL     1       1.608   5.114   0.487  0.00  0.00    +0.163 HD
ATOM     14  H   UNL     1       2.319   5.224  -1.012  0.00  0.00    +0.163 HD
ENDBRANCH   5  12
BRANCH   4  15
ATOM     15  S   UNL     1      -0.061   1.959  -0.285  0.00  0.00    -0.075 S 
BRANCH  15  16
ATOM     16  C   UNL     1      -0.122   0.159  -0.106  0.00  0.00    +0.173 C 
BRANCH  16  17
ATOM     17  C   UNL     1      -1.554  -0.306  -0.187  0.00  0.00    +0.228 C 
ATOM     18  O   UNL     1      -2.445   0.501  -0.349  0.00  0.00    -0.275 OA
ATOM     19  N   UNL     1      -1.843  -1.617  -0.079  0.00  0.00    -0.284 N 
ATOM     20  H   UNL     1      -1.127  -2.269  -0.021  0.00  0.00    +0.155 HD
BRANCH  19  21
ATOM     21  C   UNL     1      -3.178  -2.039  -0.049  0.00  0.00    +0.047 A 
ATOM     22  C   UNL     1      -4.139  -1.357  -0.782  0.00  0.00    +0.024 A 
ATOM     23  C   UNL     1      -5.455  -1.778  -0.754  0.00  0.00    +0.002 A 
ATOM     24  C   UNL     1      -5.816  -2.873   0.010  0.00  0.00    +0.001 A 
ATOM     25  C   UNL     1      -4.862  -3.552   0.745  0.00  0.00    +0.017 A 
ATOM     26  C   UNL     1      -3.543  -3.139   0.718  0.00  0.00    +0.039 A 
ATOM     27 BR   UNL     1      -2.239  -4.067   1.724  0.00  0.00    -0.048 Br
ENDBRANCH  19  21
ENDBRANCH  16  17
ENDBRANCH  15  16
ENDBRANCH   4  15
TORSDOF 6
