REMARK  Name = ZINC04326729
REMARK  8 active torsions:
REMARK  status: ('A' for Active; 'I' for Inactive)
REMARK    1  A    between atoms: C_3  and  C_18
REMARK    2  A    between atoms: C_5  and  O_7
REMARK    3  A    between atoms: O_7  and  C_8
REMARK    4  A    between atoms: C_8  and  C_10
REMARK    5  A    between atoms: N_19  and  N_20
REMARK    6  A    between atoms: C_21  and  C_23
REMARK    7  A    between atoms: C_23  and  N_24
REMARK    8  A    between atoms: C_25  and  C_27
REMARK                            x       y       z     vdW  Elec       q    Type
REMARK                         _______ _______ _______ _____ _____    ______ ____
ROOT
ATOM      1  C   UNL     1      -5.362  -4.264   0.017  0.00  0.00    +0.138 C 
ATOM      2  N   UNL     1      -6.555  -4.771  -0.013  0.00  0.00    -0.188 NA
ENDROOT
BRANCH   1   5
ATOM      3  C   UNL     1      -6.120  -0.589  -0.113  0.00  0.00    +0.004 A 
ATOM      4  C   UNL     1      -6.293  -1.958  -0.082  0.00  0.00    +0.010 A 
ATOM      5  C   UNL     1      -5.181  -2.800  -0.017  0.00  0.00    -0.002 A 
ATOM      6  C   UNL     1      -3.897  -2.251   0.014  0.00  0.00    +0.055 A 
ATOM      7  C   UNL     1      -3.736  -0.877  -0.018  0.00  0.00    +0.133 A 
ATOM      8  C   UNL     1      -4.849  -0.048  -0.076  0.00  0.00    +0.046 A 
BRANCH   7   9
ATOM      9  O   UNL     1      -2.489  -0.339   0.013  0.00  0.00    -0.422 OA
BRANCH   9  10
ATOM     10  C   UNL     1      -1.778  -0.375  -1.132  0.00  0.00    +0.346 C 
ATOM     11  O   UNL     1      -2.222  -0.952  -2.104  0.00  0.00    -0.244 OA
BRANCH  10  12
ATOM     12  C   UNL     1      -0.461   0.286  -1.204  0.00  0.00    +0.078 A 
ATOM     13  C   UNL     1       0.053   0.950  -0.087  0.00  0.00    +0.018 A 
ATOM     14  C   UNL     1       1.287   1.560  -0.159  0.00  0.00    +0.021 A 
ATOM     15  C   UNL     1       2.016   1.522  -1.337  0.00  0.00    +0.042 A 
ATOM     16  C   UNL     1       1.511   0.870  -2.449  0.00  0.00    +0.040 A 
ATOM     17  C   UNL     1       0.277   0.254  -2.391  0.00  0.00    +0.056 A 
ATOM     18 CL   UNL     1      -0.354  -0.564  -3.786  0.00  0.00    -0.083 Cl
ATOM     19 CL   UNL     1       3.568   2.294  -1.418  0.00  0.00    -0.083 Cl
ENDBRANCH  10  12
ENDBRANCH   9  10
ENDBRANCH   7   9
ENDBRANCH   1   5
BRANCH   2  20
ATOM     20  N   UNL     1      -6.727  -6.161   0.020  0.00  0.00    -0.206 N 
ATOM     21  C   UNL     1      -7.967  -6.688  -0.011  0.00  0.00    +0.249 C 
ATOM     22  O   UNL     1      -8.935  -5.958  -0.067  0.00  0.00    -0.272 OA
ATOM     23  H   UNL     1      -5.953  -6.744   0.065  0.00  0.00    +0.177 HD
BRANCH  21  24
ATOM     24  C   UNL     1      -8.152  -8.183   0.025  0.00  0.00    +0.202 C 
BRANCH  24  25
ATOM     25  N   UNL     1      -9.581  -8.500  -0.019  0.00  0.00    -0.303 N 
ATOM     26  C   UNL     1      -9.988  -9.784   0.002  0.00  0.00    +0.245 C 
ATOM     27  O   UNL     1      -9.168 -10.681   0.058  0.00  0.00    -0.270 OA
ATOM     28  H   UNL     1     -10.235  -7.785  -0.063  0.00  0.00    +0.150 HD
BRANCH  26  29
ATOM     29  C   UNL     1     -11.431 -10.104  -0.042  0.00  0.00    +0.038 A 
ATOM     30  C   UNL     1     -12.374  -9.077  -0.100  0.00  0.00    +0.013 A 
ATOM     31  C   UNL     1     -13.719  -9.382  -0.146  0.00  0.00    +0.002 A 
ATOM     32  C   UNL     1     -14.134 -10.702  -0.124  0.00  0.00    +0.020 A 
ATOM     33  C   UNL     1     -13.204 -11.725  -0.061  0.00  0.00    +0.042 A 
ATOM     34  C   UNL     1     -11.855 -11.434  -0.020  0.00  0.00    +0.033 A 
ATOM     35 CL   UNL     1     -13.735 -13.378  -0.034  0.00  0.00    -0.084 Cl
ENDBRANCH  26  29
ENDBRANCH  24  25
ENDBRANCH  21  24
ENDBRANCH   2  20
TORSDOF 8
