REMARK  Name = ZINC41116759
REMARK  6 active torsions:
REMARK  status: ('A' for Active; 'I' for Inactive)
REMARK    1  A    between atoms: C_1  and  C_2
REMARK    2  A    between atoms: C_5  and  N_9
REMARK    3  A    between atoms: N_9  and  C_10
REMARK    4  A    between atoms: C_10  and  C_11
REMARK    5  A    between atoms: C_15  and  O_18
REMARK    6  A    between atoms: C_16  and  O_17
REMARK                            x       y       z     vdW  Elec       q    Type
REMARK                         _______ _______ _______ _____ _____    ______ ____
ROOT
ATOM      1  N   UNL     1       0.057  -4.170  -0.021  0.00  0.00    -0.338 N 
ATOM      2  H   UNL     1       0.081  -4.595  -0.892  0.00  0.00    +0.146 HD
ENDROOT
BRANCH   1   7
ATOM      3  C   UNL     1      -1.818   1.161   0.481  0.00  0.00    +0.044 C 
ATOM      4  C   UNL     1      -1.320  -0.255   0.348  0.00  0.00    -0.048 A 
ATOM      5  C   UNL     1      -0.411  -0.756   1.262  0.00  0.00    +0.020 A 
ATOM      6  C   UNL     1       0.048  -2.054   1.143  0.00  0.00    +0.040 A 
ATOM      7  C   UNL     1      -0.405  -2.856   0.103  0.00  0.00    +0.056 A 
ATOM      8  C   UNL     1      -1.319  -2.350  -0.814  0.00  0.00    +0.040 A 
ATOM      9  C   UNL     1      -1.778  -1.053  -0.685  0.00  0.00    +0.020 A 
ATOM     10 BR   UNL     1      -1.939  -3.438  -2.231  0.00  0.00    -0.048 Br
ATOM     11 BR   UNL     1       1.291  -2.736   2.393  0.00  0.00    -0.048 Br
ENDBRANCH   1   7
BRANCH   1  12
ATOM     12  C   UNL     1       0.507  -4.903   1.165  0.00  0.00    +0.140 C 
BRANCH  12  13
ATOM     13  C   UNL     1       0.547  -6.378   0.858  0.00  0.00    +0.015 A 
ATOM     14  C   UNL     1      -0.490  -7.197   1.265  0.00  0.00    +0.009 A 
ATOM     15  C   UNL     1      -0.456  -8.550   0.985  0.00  0.00    +0.004 A 
ATOM     16  C   UNL     1       0.616  -9.091   0.298  0.00  0.00    +0.049 A 
ATOM     17  C   UNL     1       1.658  -8.275  -0.112  0.00  0.00    +0.159 A 
ATOM     18  C   UNL     1       1.621  -6.911   0.164  0.00  0.00    +0.163 A 
BRANCH  18  19
ATOM     19  O   UNL     1       2.639  -6.106  -0.241  0.00  0.00    -0.503 OA
ATOM     20  H   UNL     1       3.353  -6.020   0.404  0.00  0.00    +0.292 HD
ENDBRANCH  18  19
BRANCH  17  21
ATOM     21  O   UNL     1       2.712  -8.805  -0.788  0.00  0.00    -0.503 OA
ATOM     22  H   UNL     1       2.601  -8.811  -1.749  0.00  0.00    +0.292 HD
ENDBRANCH  17  21
ENDBRANCH  12  13
ENDBRANCH   1  12
TORSDOF 5
