REMARK  Name = ZINC16864202
REMARK  7 active torsions:
REMARK  status: ('A' for Active; 'I' for Inactive)
REMARK    1  A    between atoms: C_1  and  C_2
REMARK    2  A    between atoms: C_5  and  N_8
REMARK    3  A    between atoms: C_11  and  C_16
REMARK    4  A    between atoms: C_16  and  S_17
REMARK    5  A    between atoms: S_17  and  C_18
REMARK    6  A    between atoms: C_21  and  C_29
REMARK    7  A    between atoms: N_22  and  C_23
REMARK                            x       y       z     vdW  Elec       q    Type
REMARK                         _______ _______ _______ _____ _____    ______ ____
ROOT
ATOM      1  N   UNL     1       0.057  -4.169  -0.021  0.00  0.00    -0.284 N 
ATOM      2  C   UNL     1       0.176  -4.865   1.167  0.00  0.00    +0.224 A 
ATOM      3  N   UNL     1       0.299  -6.190   1.153  0.00  0.00    -0.198 NA
ATOM      4  C   UNL     1       0.413  -6.856   2.288  0.00  0.00    +0.146 A 
ATOM      5  N   UNL     1       0.406  -6.211   3.441  0.00  0.00    -0.199 NA
ATOM      6  C   UNL     1       0.284  -4.886   3.463  0.00  0.00    +0.217 A 
ATOM      7  N   UNL     1       0.174  -4.211   2.323  0.00  0.00    -0.181 NA
ATOM      8  N   UNL     1       0.276  -4.212   4.667  0.00  0.00    -0.327 N 
ATOM      9  H   UNL     1      -0.022  -4.650  -0.859  0.00  0.00    +0.155 HD
ATOM     10  H   UNL     1       0.359  -4.705   5.499  0.00  0.00    +0.145 HD
ATOM     11  H   UNL     1       0.186  -3.246   4.683  0.00  0.00    +0.145 HD
ENDROOT
BRANCH   1  16
ATOM     12  C   UNL     1       0.030   1.503   0.005  0.00  0.00    +0.044 C 
ATOM     13  C   UNL     1       0.037  -0.004  -0.002  0.00  0.00    -0.050 A 
ATOM     14  C   UNL     1       0.791  -0.694   0.929  0.00  0.00    +0.005 A 
ATOM     15  C   UNL     1       0.800  -2.075   0.926  0.00  0.00    +0.023 A 
ATOM     16  C   UNL     1       0.050  -2.771  -0.014  0.00  0.00    +0.034 A 
ATOM     17  C   UNL     1      -0.707  -2.074  -0.948  0.00  0.00    +0.023 A 
ATOM     18  C   UNL     1      -0.716  -0.693  -0.935  0.00  0.00    +0.005 A 
ENDBRANCH   1  16
BRANCH   4  19
ATOM     19  C   UNL     1       0.552  -8.357   2.268  0.00  0.00    +0.153 C 
BRANCH  19  20
ATOM     20  S   UNL     1       2.309  -8.801   2.182  0.00  0.00    -0.078 S 
BRANCH  20  21
ATOM     21  C   UNL     1       2.303 -10.563   2.166  0.00  0.00    +0.193 A 
ATOM     22  N   UNL     1       1.243 -11.339   2.203  0.00  0.00    -0.122 NA
ATOM     23  N   UNL     1       1.597 -12.574   2.177  0.00  0.00    -0.125 NA
ATOM     24  C   UNL     1       2.908 -12.664   2.122  0.00  0.00    +0.201 A 
ATOM     25  N   UNL     1       3.399 -11.377   2.107  0.00  0.00    -0.297 N 
BRANCH  25  26
ATOM     26  C   UNL     1       4.804 -10.966   2.045  0.00  0.00    +0.091 C 
ATOM     27  C   UNL     1       5.150 -10.143   3.287  0.00  0.00    +0.025 C 
ATOM     28  C   UNL     1       6.617  -9.714   3.223  0.00  0.00    +0.002 C 
ATOM     29  C   UNL     1       6.846  -8.867   1.969  0.00  0.00    +0.000 C 
ATOM     30  C   UNL     1       6.500  -9.690   0.727  0.00  0.00    +0.002 C 
ATOM     31  C   UNL     1       5.033 -10.119   0.792  0.00  0.00    +0.025 C 
ENDBRANCH  25  26
BRANCH  24  32
ATOM     32  C   UNL     1       3.699 -13.903   2.078  0.00  0.00    +0.172 A 
ATOM     33  C   UNL     1       3.221 -15.148   1.795  0.00  0.00    +0.053 A 
ATOM     34  C   UNL     1       4.319 -16.028   1.863  0.00  0.00    +0.042 A 
ATOM     35  C   UNL     1       5.400 -15.289   2.181  0.00  0.00    +0.196 A 
ATOM     36  O   UNL     1       5.024 -14.005   2.305  0.00  0.00    -0.460 OA
ENDBRANCH  24  32
ENDBRANCH  20  21
ENDBRANCH  19  20
ENDBRANCH   4  19
TORSDOF 6
