REMARK  Name = ZINC42441050
REMARK  5 active torsions:
REMARK  status: ('A' for Active; 'I' for Inactive)
REMARK    1  A    between atoms: C_1  and  C_2
REMARK    2  A    between atoms: C_6  and  C_20
REMARK    3  A    between atoms: N_9  and  C_10
REMARK    4  A    between atoms: C_13  and  N_19
REMARK    5  A    between atoms: C_14  and  C_16
REMARK                            x       y       z     vdW  Elec       q    Type
REMARK                         _______ _______ _______ _____ _____    ______ ____
ROOT
ATOM      1  C   UNL     1       1.689   0.238   2.006  0.00  0.00    +0.031 A 
ATOM      2  C   UNL     1       1.056   0.703   3.155  0.00  0.00    +0.025 A 
ATOM      3  C   UNL     1       1.602   1.743   3.878  0.00  0.00    +0.025 A 
ATOM      4  C   UNL     1       2.788   2.335   3.463  0.00  0.00    +0.037 A 
ATOM      5  C   UNL     1       3.430   1.871   2.306  0.00  0.00    +0.059 A 
ATOM      6  C   UNL     1       2.874   0.813   1.582  0.00  0.00    +0.038 A 
ENDROOT
BRANCH   1  13
ATOM      7  C   UNL     1       0.127   0.949  -0.092  0.00  0.00    +0.028 C 
ATOM      8  C   UNL     1       0.333  -0.558   0.071  0.00  0.00    +0.070 C 
ATOM      9  C   UNL     1      -1.027  -1.249   0.212  0.00  0.00    +0.023 C 
ATOM     10  C   UNL     1      -0.811  -2.734   0.513  0.00  0.00    +0.016 C 
ATOM     11  C   UNL     1      -0.053  -2.883   1.835  0.00  0.00    +0.092 C 
ATOM     12  C   UNL     1       1.317  -2.210   1.712  0.00  0.00    +0.118 C 
ATOM     13  N   UNL     1       1.127  -0.819   1.279  0.00  0.00    -0.326 N 
BRANCH  11  14
ATOM     14  C   UNL     1       0.130  -4.346   2.147  0.00  0.00    +0.215 C 
ATOM     15  O   UNL     1       1.246  -4.806   2.264  0.00  0.00    -0.276 OA
ATOM     16  N   UNL     1      -0.946  -5.143   2.298  0.00  0.00    -0.329 N 
ATOM     17  H   UNL     1      -1.839  -4.775   2.205  0.00  0.00    +0.145 HD
ATOM     18  H   UNL     1      -0.828  -6.085   2.499  0.00  0.00    +0.145 HD
ENDBRANCH  11  14
ENDBRANCH   1  13
BRANCH   5  19
ATOM     19  C   UNL     1       4.690   2.494   1.857  0.00  0.00    +0.243 C 
ATOM     20  O   UNL     1       5.235   3.331   2.551  0.00  0.00    -0.270 OA
ATOM     21  N   UNL     1       5.237   2.135   0.679  0.00  0.00    -0.325 N 
ATOM     22  H   UNL     1       4.802   1.468   0.126  0.00  0.00    +0.145 HD
ATOM     23  H   UNL     1       6.065   2.545   0.384  0.00  0.00    +0.145 HD
ENDBRANCH   5  19
BRANCH   4  24
ATOM     24  N   UNL     1       3.336   3.385   4.193  0.00  0.00    -0.357 N 
ATOM     25  H   UNL     1       3.146   3.469   5.140  0.00  0.00    +0.142 HD
ATOM     26  H   UNL     1       3.910   4.033   3.755  0.00  0.00    +0.142 HD
ENDBRANCH   4  24
TORSDOF 4
