REMARK  Name = ZINC39678277
REMARK  5 active torsions:
REMARK  status: ('A' for Active; 'I' for Inactive)
REMARK    1  A    between atoms: C_4  and  N_28
REMARK    2  A    between atoms: C_5  and  C_7
REMARK    3  A    between atoms: C_7  and  N_8
REMARK    4  A    between atoms: C_9  and  C_11
REMARK    5  A    between atoms: C_22  and  C_24
REMARK                            x       y       z     vdW  Elec       q    Type
REMARK                         _______ _______ _______ _____ _____    ______ ____
ROOT
ATOM      1  C   UNL     1       1.814  -4.512   2.962  0.00  0.00    +0.100 C 
ATOM      2  C   UNL     1       0.740  -3.987   3.940  0.00  0.00    +0.121 C 
ATOM      3  N   UNL     1      -0.268  -5.071   4.007  0.00  0.00    -0.300 N 
ATOM      4  C   UNL     1       0.532  -6.319   4.005  0.00  0.00    +0.115 C 
ATOM      5  C   UNL     1       1.677  -6.043   3.010  0.00  0.00    -0.004 C 
ATOM      6  C   UNL     1       2.974  -6.675   3.508  0.00  0.00    -0.010 C 
ATOM      7  C   UNL     1       2.833  -8.199   3.492  0.00  0.00    -0.082 C 
ATOM      8  N   UNL     1       2.539  -8.651   2.127  0.00  0.00    +0.379 N 
ATOM      9  C   UNL     1       1.244  -8.114   1.690  0.00  0.00    -0.082 C 
ATOM     10  C   UNL     1       1.318  -6.585   1.630  0.00  0.00    -0.010 C 
ATOM     11  C   UNL     1      -1.609  -4.950   4.059  0.00  0.00    +0.219 C 
ATOM     12  O   UNL     1      -2.306  -5.941   4.111  0.00  0.00    -0.275 OA
ATOM     13  H   UNL     1       3.263  -8.328   1.503  0.00  0.00    -0.086 HD
ATOM     14  H   UNL     1       2.507  -9.659   2.107  0.00  0.00    -0.086 HD
ENDROOT
BRANCH   1  16
ATOM     15  N   UNL     1       2.564  -3.545   0.812  0.00  0.00    -0.311 N 
ATOM     16  C   UNL     1       1.548  -4.005   1.568  0.00  0.00    +0.218 C 
ATOM     17  O   UNL     1       0.418  -4.012   1.126  0.00  0.00    -0.275 OA
ATOM     18  H   UNL     1       3.467  -3.539   1.166  0.00  0.00    +0.149 HD
BRANCH  15  19
ATOM     19  C   UNL     1       2.305  -3.052  -0.543  0.00  0.00    +0.141 C 
BRANCH  19  24
ATOM     20  C   UNL     1       5.103  -0.837  -1.776  0.00  0.00    +0.000 A 
ATOM     21  C   UNL     1       5.975  -1.762  -2.319  0.00  0.00    +0.002 A 
ATOM     22  C   UNL     1       5.664  -3.107  -2.289  0.00  0.00    +0.023 A 
ATOM     23  C   UNL     1       4.472  -3.530  -1.713  0.00  0.00    +0.034 A 
ATOM     24  C   UNL     1       3.599  -2.598  -1.168  0.00  0.00    -0.009 A 
ATOM     25  C   UNL     1       3.916  -1.254  -1.202  0.00  0.00    +0.007 A 
BRANCH  23  26
ATOM     26  N   UNL     1       4.154  -4.890  -1.681  0.00  0.00    -0.330 N 
ATOM     27  C   UNL     1       3.409  -5.510  -2.785  0.00  0.00    +0.105 C 
ATOM     28  C   UNL     1       4.195  -6.724  -3.289  0.00  0.00    +0.019 C 
ATOM     29  C   UNL     1       4.479  -7.665  -2.116  0.00  0.00    +0.003 C 
ATOM     30  C   UNL     1       5.331  -6.939  -1.073  0.00  0.00    +0.019 C 
ATOM     31  C   UNL     1       4.563  -5.728  -0.546  0.00  0.00    +0.105 C 
ENDBRANCH  23  26
ENDBRANCH  19  24
ENDBRANCH  15  19
ENDBRANCH   1  16
BRANCH  11  32
ATOM     32  C   UNL     1      -2.243  -3.583   4.051  0.00  0.00    +0.075 C 
ATOM     33  C   UNL     1      -2.279  -2.913   5.435  0.00  0.00    +0.013 C 
ATOM     34  C   UNL     1      -3.687  -2.414   5.070  0.00  0.00    +0.001 C 
ATOM     35  C   UNL     1      -3.779  -3.615   4.115  0.00  0.00    +0.013 C 
ENDBRANCH  11  32
TORSDOF 5
