REMARK  Name = ZINC36587080
REMARK  20 active torsions:
REMARK  status: ('A' for Active; 'I' for Inactive)
REMARK    1  A    between atoms: C_1  and  C_2
REMARK    2  A    between atoms: C_2  and  C_3
REMARK    3  A    between atoms: C_2  and  C_4
REMARK    4  A    between atoms: C_2  and  C_5
REMARK    5  A    between atoms: C_5  and  C_6
REMARK    6  A    between atoms: C_6  and  C_7
REMARK    7  A    between atoms: C_6  and  C_8
REMARK    8  A    between atoms: C_6  and  N_9
REMARK    9  A    between atoms: C_10  and  C_12
REMARK   10  A    between atoms: C_12  and  C_14
REMARK   11  A    between atoms: C_12  and  N_22
REMARK   12  A    between atoms: C_17  and  O_20
REMARK   13  A    between atoms: O_20  and  C_21
REMARK   14  A    between atoms: N_22  and  C_33
REMARK   15  A    between atoms: C_23  and  C_25
REMARK   16  A    between atoms: C_29  and  O_32
REMARK   17  A    between atoms: C_30  and  O_31
REMARK   18  A    between atoms: C_33  and  C_34
REMARK   19  A    between atoms: C_33  and  C_35
REMARK   20  A    between atoms: C_33  and  C_36
REMARK                            x       y       z     vdW  Elec       q    Type
REMARK                         _______ _______ _______ _____ _____    ______ ____
ROOT
ATOM      1  C   UNL     1       5.439  -1.419  -1.970  0.00  0.00    +0.193 C 
ENDROOT
BRANCH   1   2
ATOM      2  C   UNL     1       6.234  -2.698  -1.967  0.00  0.00    -0.018 A 
ATOM      3  C   UNL     1       7.124  -2.955  -0.941  0.00  0.00    +0.009 A 
ATOM      4  C   UNL     1       7.855  -4.127  -0.936  0.00  0.00    +0.046 A 
ATOM      5  C   UNL     1       7.696  -5.047  -1.962  0.00  0.00    +0.120 A 
ATOM      6  C   UNL     1       6.802  -4.787  -2.991  0.00  0.00    +0.046 A 
ATOM      7  C   UNL     1       6.070  -3.616  -2.988  0.00  0.00    +0.009 A 
BRANCH   5   8
ATOM      8  O   UNL     1       8.414  -6.201  -1.959  0.00  0.00    -0.495 OA
ATOM      9  C   UNL     1       8.199  -7.101  -3.048  0.00  0.00    +0.277 C 
ENDBRANCH   5   8
ENDBRANCH   1   2
BRANCH   1  11
ATOM     10  N   UNL     1       3.321  -2.619  -1.534  0.00  0.00    -0.308 N 
ATOM     11  C   UNL     1       4.160  -1.620  -1.198  0.00  0.00    +0.239 C 
ATOM     12  O   UNL     1       3.887  -0.883  -0.275  0.00  0.00    -0.273 OA
ATOM     13  H   UNL     1       3.539  -3.209  -2.273  0.00  0.00    +0.149 HD
BRANCH  10  14
ATOM     14  C   UNL     1       2.078  -2.815  -0.784  0.00  0.00    +0.030 C 
ATOM     15  C   UNL     1       1.220  -1.552  -0.879  0.00  0.00    +0.031 C 
ATOM     16  C   UNL     1       2.407  -3.099   0.683  0.00  0.00    +0.031 C 
BRANCH  14  17
ATOM     17  C   UNL     1       1.308  -4.000  -1.372  0.00  0.00    +0.031 C 
BRANCH  17  19
ATOM     18  C   UNL     1       2.461  -3.999  -3.589  0.00  0.00    +0.010 C 
ATOM     19  C   UNL     1       1.123  -3.791  -2.877  0.00  0.00    -0.036 C 
ATOM     20  C   UNL     1       0.622  -2.369  -3.136  0.00  0.00    +0.010 C 
ATOM     21  C   UNL     1       0.100  -4.797  -3.409  0.00  0.00    +0.010 C 
ENDBRANCH  17  19
ENDBRANCH  14  17
ENDBRANCH  10  14
ENDBRANCH   1  11
BRANCH   1  22
ATOM     22  N   UNL     1       6.225  -0.353  -1.344  0.00  0.00    -0.277 N 
ATOM     23  C   UNL     1       6.596  -0.460  -0.052  0.00  0.00    +0.252 C 
ATOM     24  O   UNL     1       6.274  -1.438   0.594  0.00  0.00    -0.270 OA
BRANCH  23  25
ATOM     25  C   UNL     1       7.392   0.611   0.577  0.00  0.00    +0.082 A 
ATOM     26  C   UNL     1       7.890   1.663  -0.196  0.00  0.00    +0.017 A 
ATOM     27  C   UNL     1       8.633   2.662   0.395  0.00  0.00    +0.005 A 
ATOM     28  C   UNL     1       8.890   2.630   1.756  0.00  0.00    +0.049 A 
ATOM     29  C   UNL     1       8.403   1.594   2.536  0.00  0.00    +0.159 A 
ATOM     30  C   UNL     1       7.647   0.582   1.954  0.00  0.00    +0.171 A 
BRANCH  30  31
ATOM     31  O   UNL     1       7.163  -0.432   2.715  0.00  0.00    -0.503 OA
ATOM     32  H   UNL     1       7.761  -1.189   2.789  0.00  0.00    +0.292 HD
ENDBRANCH  30  31
BRANCH  29  33
ATOM     33  O   UNL     1       8.660   1.569   3.871  0.00  0.00    -0.503 OA
ATOM     34  H   UNL     1       7.995   2.023   4.408  0.00  0.00    +0.292 HD
ENDBRANCH  29  33
ENDBRANCH  23  25
BRANCH  22  35
ATOM     35  C   UNL     1       6.608   0.829  -2.121  0.00  0.00    +0.030 C 
ATOM     36  C   UNL     1       5.963   0.758  -3.506  0.00  0.00    +0.031 C 
ATOM     37  C   UNL     1       6.130   2.090  -1.399  0.00  0.00    +0.031 C 
ATOM     38  C   UNL     1       8.130   0.871  -2.268  0.00  0.00    +0.031 C 
ENDBRANCH  22  35
ENDBRANCH   1  22
TORSDOF 11
