REMARK  Name = ZINC17094918
REMARK  8 active torsions:
REMARK  status: ('A' for Active; 'I' for Inactive)
REMARK    1  A    between atoms: C_1  and  C_2
REMARK    2  A    between atoms: C_2  and  C_3
REMARK    3  A    between atoms: C_2  and  C_4
REMARK    4  A    between atoms: C_7  and  C_10
REMARK    5  A    between atoms: C_11  and  C_12
REMARK    6  A    between atoms: N_14  and  C_15
REMARK    7  A    between atoms: C_15  and  N_17
REMARK    8  A    between atoms: C_23  and  N_27
REMARK                            x       y       z     vdW  Elec       q    Type
REMARK                         _______ _______ _______ _____ _____    ______ ____
ROOT
ATOM      1  C   UNL     1      -8.905  -4.528  -1.954  0.00  0.00    +0.143 C 
ATOM      2  S   UNL     1      -9.954  -4.131  -0.660  0.00  0.00    -0.018 S 
ENDROOT
BRANCH   1   3
ATOM      3  N   UNL     1      -9.343  -5.308  -2.962  0.00  0.00    -0.276 N 
ATOM      4  C   UNL     1     -10.641  -5.788  -2.951  0.00  0.00    +0.165 A 
ATOM      5  N   UNL     1     -11.585  -5.590  -2.061  0.00  0.00    -0.225 NA
ATOM      6  C   UNL     1     -12.820  -6.125  -2.180  0.00  0.00    +0.080 A 
ATOM      7  C   UNL     1     -13.918  -5.992  -1.300  0.00  0.00    +0.031 A 
ATOM      8  C   UNL     1     -15.112  -6.607  -1.571  0.00  0.00    +0.035 A 
ATOM      9  C   UNL     1     -15.287  -7.379  -2.711  0.00  0.00    +0.127 A 
ATOM     10  C   UNL     1     -14.234  -7.531  -3.594  0.00  0.00    +0.050 A 
ATOM     11  C   UNL     1     -13.035  -6.918  -3.331  0.00  0.00    +0.043 A 
ATOM     12  S   UNL     1     -11.462  -6.828  -4.152  0.00  0.00    -0.052 S 
ATOM     13  H   UNL     1      -8.748  -5.534  -3.694  0.00  0.00    +0.156 HD
BRANCH   9  14
ATOM     14  N   UNL     1     -16.588  -8.033  -2.978  0.00  0.00    +0.056 N 
ATOM     15  O   UNL     1     -17.504  -7.897  -2.202  0.00  0.00    -0.126 OA
ATOM     16  O   UNL     1     -16.734  -8.704  -3.973  0.00  0.00    -0.126 OA
ENDBRANCH   9  14
ENDBRANCH   1   3
BRANCH   1  19
ATOM     17  C   UNL     1      -7.202  -3.282  -0.955  0.00  0.00    +0.242 C 
ATOM     18  O   UNL     1      -7.948  -2.999  -0.036  0.00  0.00    -0.270 OA
ATOM     19  N   UNL     1      -7.640  -4.061  -1.963  0.00  0.00    -0.264 N 
ATOM     20  H   UNL     1      -7.046  -4.287  -2.696  0.00  0.00    +0.157 HD
BRANCH  17  22
ATOM     21  C   UNL     1      -5.391  -1.994   0.043  0.00  0.00    +0.013 C 
ATOM     22  C   UNL     1      -5.830  -2.775  -0.966  0.00  0.00    +0.068 C 
BRANCH  21  26
ATOM     23  C   UNL     1      -1.412  -0.526   0.013  0.00  0.00    -0.045 A 
ATOM     24  C   UNL     1      -2.257  -0.202   1.060  0.00  0.00    +0.004 A 
ATOM     25  C   UNL     1      -3.552  -0.675   1.077  0.00  0.00    +0.008 A 
ATOM     26  C   UNL     1      -4.011  -1.484   0.032  0.00  0.00    -0.025 A 
ATOM     27  C   UNL     1      -3.150  -1.807  -1.022  0.00  0.00    +0.008 A 
ATOM     28  C   UNL     1      -1.860  -1.322  -1.027  0.00  0.00    +0.004 A 
BRANCH  23  30
ATOM     29  C   UNL     1      -0.019   1.526   0.010  0.00  0.00    +0.012 C 
ATOM     30  C   UNL     1       0.002  -0.004   0.002  0.00  0.00    +0.013 C 
ATOM     31  C   UNL     1       0.742  -0.511   1.242  0.00  0.00    +0.012 C 
ENDBRANCH  23  30
ENDBRANCH  21  26
ENDBRANCH  17  22
ENDBRANCH   1  19
TORSDOF 6
