REMARK  Name = ZINC49104774
REMARK  8 active torsions:
REMARK  status: ('A' for Active; 'I' for Inactive)
REMARK    1  A    between atoms: C_1  and  C_2
REMARK    2  A    between atoms: C_2  and  C_3
REMARK    3  A    between atoms: C_3  and  C_4
REMARK    4  A    between atoms: C_4  and  C_6
REMARK    5  A    between atoms: C_4  and  N_19
REMARK    6  A    between atoms: N_8  and  C_9
REMARK    7  A    between atoms: C_9  and  C_11
REMARK    8  A    between atoms: C_9  and  C_12
REMARK                            x       y       z     vdW  Elec       q    Type
REMARK                         _______ _______ _______ _____ _____    ______ ____
ROOT
ATOM      1  C   UNL     1      -3.117  -2.244  -0.061  0.00  0.00    +0.234 C 
ATOM      2  O   UNL     1      -3.768  -2.696  -0.979  0.00  0.00    -0.274 OA
ATOM      3  N   UNL     1      -3.535  -2.412   1.209  0.00  0.00    -0.307 N 
ATOM      4  H   UNL     1      -3.014  -2.051   1.943  0.00  0.00    +0.149 HD
ENDROOT
BRANCH   3   5
ATOM      5  C   UNL     1      -4.776  -3.142   1.481  0.00  0.00    +0.101 C 
ATOM      6  C   UNL     1      -4.475  -4.638   1.589  0.00  0.00    +0.033 C 
BRANCH   5   7
ATOM      7  C   UNL     1      -5.371  -2.654   2.777  0.00  0.00    -0.014 A 
ATOM      8  C   UNL     1      -4.552  -2.126   3.758  0.00  0.00    +0.006 A 
ATOM      9  C   UNL     1      -5.098  -1.679   4.947  0.00  0.00    +0.000 A 
ATOM     10  C   UNL     1      -6.462  -1.759   5.155  0.00  0.00    +0.001 A 
ATOM     11  C   UNL     1      -7.281  -2.287   4.176  0.00  0.00    +0.015 A 
ATOM     12  C   UNL     1      -6.736  -2.730   2.983  0.00  0.00    +0.023 A 
ATOM     13 BR   UNL     1      -7.857  -3.446   1.639  0.00  0.00    -0.050 Br
ENDBRANCH   5   7
ENDBRANCH   3   5
BRANCH   1  14
ATOM     14  C   UNL     1      -1.840  -1.494  -0.341  0.00  0.00    +0.160 C 
BRANCH  14  15
ATOM     15  N   UNL     1      -1.353  -1.840  -1.679  0.00  0.00    -0.288 N 
ATOM     16  C   UNL     1      -2.120  -1.593  -2.759  0.00  0.00    +0.298 C 
ATOM     17  O   UNL     1      -3.215  -1.083  -2.624  0.00  0.00    -0.253 OA
ATOM     18  N   UNL     1      -1.672  -1.912  -3.990  0.00  0.00    -0.313 N 
ATOM     19  H   UNL     1      -0.480  -2.248  -1.786  0.00  0.00    +0.151 HD
ATOM     20  H   UNL     1      -0.798  -2.319  -4.098  0.00  0.00    +0.146 HD
ATOM     21  H   UNL     1      -2.224  -1.734  -4.768  0.00  0.00    +0.146 HD
ENDBRANCH  14  15
BRANCH  14  22
ATOM     22  C   UNL     1      -2.106   0.011  -0.269  0.00  0.00    +0.031 C 
BRANCH  22  24
ATOM     23  C   UNL     1      -1.054   2.276  -0.358  0.00  0.00    +0.004 C 
ATOM     24  C   UNL     1      -0.788   0.771  -0.430  0.00  0.00    -0.001 C 
ENDBRANCH  22  24
ENDBRANCH  14  22
ENDBRANCH   1  14
TORSDOF 6
