REMARK  Name = ZINC35578570
REMARK  7 active torsions:
REMARK  status: ('A' for Active; 'I' for Inactive)
REMARK    1  A    between atoms: C_1  and  N_2
REMARK    2  A    between atoms: C_3  and  N_33
REMARK    3  A    between atoms: C_5  and  C_20
REMARK    4  A    between atoms: N_11  and  C_12
REMARK    5  A    between atoms: C_12  and  C_13
REMARK    6  A    between atoms: C_24  and  O_26
REMARK    7  A    between atoms: O_26  and  C_27
REMARK                            x       y       z     vdW  Elec       q    Type
REMARK                         _______ _______ _______ _____ _____    ______ ____
ROOT
ATOM      1  C   UNL     1      -2.471   1.621  -1.651  0.00  0.00    +0.174 C 
ATOM      2  N   UNL     1      -1.758   0.432  -1.178  0.00  0.00    -0.251 N 
ATOM      3  C   UNL     1      -1.015  -0.380  -1.949  0.00  0.00    +0.126 A 
ATOM      4  C   UNL     1      -0.509  -1.386  -1.133  0.00  0.00    +0.086 A 
ATOM      5  C   UNL     1       0.316  -2.517  -1.314  0.00  0.00    +0.089 A 
ATOM      6  N   UNL     1       0.591  -3.271  -0.257  0.00  0.00    -0.214 NA
ATOM      7  C   UNL     1       0.115  -2.993   0.953  0.00  0.00    +0.218 A 
ATOM      8  N   UNL     1      -0.661  -1.960   1.211  0.00  0.00    -0.193 NA
ATOM      9  C   UNL     1      -1.016  -1.113   0.225  0.00  0.00    +0.188 A 
ATOM     10  N   UNL     1      -1.745  -0.023   0.146  0.00  0.00    -0.149 NA
ATOM     11  N   UNL     1       0.452  -3.834   1.998  0.00  0.00    -0.309 N 
ATOM     12  H   UNL     1       1.022  -4.603   1.837  0.00  0.00    +0.149 HD
ENDROOT
BRANCH   5  13
ATOM     13  C   UNL     1       0.861  -2.854  -2.649  0.00  0.00    +0.005 A 
ATOM     14  C   UNL     1       0.793  -4.165  -3.123  0.00  0.00    +0.010 A 
ATOM     15  C   UNL     1       1.301  -4.476  -4.367  0.00  0.00    +0.004 A 
ATOM     16  C   UNL     1       1.879  -3.491  -5.148  0.00  0.00    +0.046 A 
ATOM     17  C   UNL     1       1.951  -2.185  -4.685  0.00  0.00    +0.129 A 
ATOM     18  C   UNL     1       1.439  -1.861  -3.439  0.00  0.00    +0.056 A 
BRANCH  17  19
ATOM     19  O   UNL     1       2.519  -1.221  -5.457  0.00  0.00    -0.456 OA
BRANCH  19  20
ATOM     20  C   UNL     1       3.856  -1.011  -5.334  0.00  0.00    +0.128 A 
ATOM     21  C   UNL     1       4.606  -1.795  -4.468  0.00  0.00    +0.046 A 
ATOM     22  C   UNL     1       5.965  -1.580  -4.345  0.00  0.00    +0.004 A 
ATOM     23  C   UNL     1       6.578  -0.584  -5.083  0.00  0.00    +0.000 A 
ATOM     24  C   UNL     1       5.833   0.199  -5.945  0.00  0.00    +0.004 A 
ATOM     25  C   UNL     1       4.475  -0.017  -6.077  0.00  0.00    +0.046 A 
ENDBRANCH  19  20
ENDBRANCH  17  19
ENDBRANCH   5  13
BRANCH   3  26
ATOM     26  N   UNL     1      -0.794  -0.242  -3.307  0.00  0.00    -0.343 N 
ATOM     27  H   UNL     1      -0.959   0.610  -3.740  0.00  0.00    +0.144 HD
ATOM     28  H   UNL     1      -0.474  -0.996  -3.825  0.00  0.00    +0.144 HD
ENDBRANCH   3  26
BRANCH  11  29
ATOM     29  C   UNL     1      -0.050  -3.564   3.347  0.00  0.00    +0.139 C 
BRANCH  29  30
ATOM     30  C   UNL     1       0.459  -4.621   4.293  0.00  0.00    -0.028 A 
ATOM     31  C   UNL     1      -0.272  -5.777   4.497  0.00  0.00    +0.005 A 
ATOM     32  C   UNL     1       0.194  -6.747   5.364  0.00  0.00    +0.003 A 
ATOM     33  C   UNL     1       1.391  -6.562   6.030  0.00  0.00    +0.038 A 
ATOM     34  C   UNL     1       2.123  -5.405   5.827  0.00  0.00    +0.124 A 
ATOM     35  C   UNL     1       1.659  -4.437   4.953  0.00  0.00    +0.043 A 
ATOM     36  F   UNL     1       3.293  -5.223   6.478  0.00  0.00    -0.205 F 
ENDBRANCH  29  30
ENDBRANCH  11  29
TORSDOF 6
