REMARK  Name = ZINC20913489
REMARK  11 active torsions:
REMARK  status: ('A' for Active; 'I' for Inactive)
REMARK    1  A    between atoms: C_1  and  O_2
REMARK    2  A    between atoms: O_2  and  C_3
REMARK    3  A    between atoms: C_3  and  C_5
REMARK    4  A    between atoms: C_8  and  C_11
REMARK    5  A    between atoms: N_12  and  N_13
REMARK    6  A    between atoms: C_17  and  S_20
REMARK    7  A    between atoms: N_18  and  N_19
REMARK    8  A    between atoms: S_20  and  C_21
REMARK    9  A    between atoms: C_21  and  C_22
REMARK   10  A    between atoms: N_24  and  C_25
REMARK   11  A    between atoms: C_26  and  C_33
REMARK                            x       y       z     vdW  Elec       q    Type
REMARK                         _______ _______ _______ _____ _____    ______ ____
ROOT
ATOM      1  N   UNL     1      -6.238   5.983   0.064  0.00  0.00    -0.204 N 
ATOM      2  C   UNL     1      -6.257   7.370   0.071  0.00  0.00    +0.254 A 
ATOM      3  N   UNL     1      -5.214   8.162   0.076  0.00  0.00    -0.109 NA
ATOM      4  N   UNL     1      -5.593   9.390   0.080  0.00  0.00    -0.119 NA
ATOM      5  C   UNL     1      -6.902   9.456   0.086  0.00  0.00    +0.210 A 
ATOM      6  N   UNL     1      -7.371   8.169   0.081  0.00  0.00    -0.211 N 
ATOM      7  H   UNL     1      -7.183   5.420   0.065  0.00  0.00    +0.177 HD
ENDROOT
BRANCH   6   8
ATOM      8  N   UNL     1      -8.677   7.766   0.085  0.00  0.00    -0.294 N 
ATOM      9  H   UNL     1      -9.483   8.514   0.092  0.00  0.00    +0.163 HD
ATOM     10  H   UNL     1      -8.921   6.694   0.079  0.00  0.00    +0.163 HD
ENDBRANCH   6   8
BRANCH   1  12
ATOM     11  C   UNL     1      -4.998   3.999   0.047  0.00  0.00    +0.138 C 
ATOM     12  N   UNL     1      -5.016   5.299   0.054  0.00  0.00    -0.188 NA
BRANCH  11  16
ATOM     13  C   UNL     1      -1.301   1.931   0.019  0.00  0.00    +0.059 A 
ATOM     14  C   UNL     1      -1.320   3.329   0.032  0.00  0.00    +0.015 A 
ATOM     15  C   UNL     1      -2.511   3.996   0.036  0.00  0.00    +0.010 A 
ATOM     16  C   UNL     1      -3.714   3.280   0.037  0.00  0.00    -0.005 A 
ATOM     17  C   UNL     1      -3.695   1.881   0.029  0.00  0.00    +0.010 A 
ATOM     18  C   UNL     1      -2.503   1.215   0.021  0.00  0.00    +0.015 A 
BRANCH  13  19
ATOM     19  C   UNL     1      -0.014   1.211   0.009  0.00  0.00    +0.339 C 
ATOM     20  O   UNL     1       0.002  -0.004   0.002  0.00  0.00    -0.245 OA
BRANCH  19  22
ATOM     21  C   UNL     1       2.372   1.127  -0.015  0.00  0.00    +0.280 C 
ATOM     22  O   UNL     1       1.143   1.901   0.001  0.00  0.00    -0.464 OA
ENDBRANCH  19  22
ENDBRANCH  13  19
ENDBRANCH  11  16
ENDBRANCH   1  12
BRANCH   5  23
ATOM     23  S   UNL     1      -7.875  10.925   0.099  0.00  0.00    -0.075 S 
BRANCH  23  24
ATOM     24  C   UNL     1      -6.563  12.171   0.100  0.00  0.00    +0.173 C 
BRANCH  24  25
ATOM     25  C   UNL     1      -7.178  13.547   0.110  0.00  0.00    +0.228 C 
ATOM     26  O   UNL     1      -8.384  13.673   0.116  0.00  0.00    -0.275 OA
ATOM     27  N   UNL     1      -6.387  14.639   0.113  0.00  0.00    -0.278 N 
ATOM     28  H   UNL     1      -5.293  14.525   0.108  0.00  0.00    +0.155 HD
BRANCH  27  29
ATOM     29  C   UNL     1      -6.953  15.906   0.123  0.00  0.00    +0.090 A 
ATOM     30  C   UNL     1      -6.314  17.133   0.133  0.00  0.00    +0.084 A 
ATOM     31  C   UNL     1      -7.149  18.332   0.137  0.00  0.00    -0.018 A 
ATOM     32  C   UNL     1      -8.476  18.104   0.141  0.00  0.00    -0.004 A 
ATOM     33  S   UNL     1      -8.630  16.335   0.133  0.00  0.00    -0.077 S 
ATOM     34  C   UNL     1      -9.268  19.384   0.149  0.00  0.00    +0.043 C 
ATOM     35  C   UNL     1      -8.259  20.469  -0.287  0.00  0.00    +0.010 C 
ATOM     36  C   UNL     1      -6.918  19.844   0.147  0.00  0.00    +0.037 C 
BRANCH  30  37
ATOM     37  C   UNL     1      -4.885  17.224   0.134  0.00  0.00    +0.102 C 
ATOM     38  N   UNL     1      -3.751  17.297   0.134  0.00  0.00    -0.191 NA
ENDBRANCH  30  37
ENDBRANCH  27  29
ENDBRANCH  24  25
ENDBRANCH  23  24
ENDBRANCH   5  23
TORSDOF 10
