REMARK  Name = ZINC39688008
REMARK  8 active torsions:
REMARK  status: ('A' for Active; 'I' for Inactive)
REMARK    1  A    between atoms: C_1  and  C_2
REMARK    2  A    between atoms: C_3  and  C_12
REMARK    3  A    between atoms: C_7  and  O_8
REMARK    4  A    between atoms: O_8  and  C_9
REMARK    5  A    between atoms: C_9  and  C_11
REMARK    6  A    between atoms: C_16  and  C_25
REMARK    7  A    between atoms: N_27  and  C_28
REMARK    8  A    between atoms: C_34  and  C_36
REMARK                            x       y       z     vdW  Elec       q    Type
REMARK                         _______ _______ _______ _____ _____    ______ ____
ROOT
ATOM      1  C   UNL     1      -0.749  -0.476  -2.123  0.00  0.00    +0.247 C 
ATOM      2  O   UNL     1      -0.685   0.738  -2.120  0.00  0.00    -0.270 OA
ATOM      3  N   UNL     1      -1.013  -1.134  -3.269  0.00  0.00    -0.296 N 
ATOM      4  C   UNL     1      -1.244  -2.587  -3.450  0.00  0.00    +0.121 C 
ATOM      5  C   UNL     1      -2.380  -2.675  -4.494  0.00  0.00    +0.100 C 
ATOM      6  C   UNL     1      -2.305  -1.348  -5.268  0.00  0.00    -0.004 C 
ATOM      7  C   UNL     1      -1.145  -0.567  -4.633  0.00  0.00    +0.115 C 
ATOM      8  C   UNL     1      -3.607  -0.569  -5.110  0.00  0.00    -0.010 C 
ATOM      9  C   UNL     1      -3.530   0.718  -5.935  0.00  0.00    -0.082 C 
ATOM     10  N   UNL     1      -3.305   0.384  -7.346  0.00  0.00    +0.379 N 
ATOM     11  C   UNL     1      -2.007  -0.283  -7.503  0.00  0.00    -0.082 C 
ATOM     12  C   UNL     1      -2.019  -1.613  -6.743  0.00  0.00    -0.010 C 
ATOM     13  H   UNL     1      -4.038  -0.231  -7.666  0.00  0.00    -0.086 HD
ATOM     14  H   UNL     1      -3.315   1.230  -7.897  0.00  0.00    -0.086 HD
ENDROOT
BRANCH   1  17
ATOM     15  C   UNL     1      -1.671   0.630   0.386  0.00  0.00    +0.048 C 
ATOM     16  C   UNL     1      -0.976  -0.707   0.346  0.00  0.00    +0.004 A 
ATOM     17  C   UNL     1      -0.535  -1.230  -0.870  0.00  0.00    +0.043 A 
ATOM     18  C   UNL     1       0.107  -2.469  -0.899  0.00  0.00    +0.013 A 
ATOM     19  C   UNL     1       0.304  -3.171   0.273  0.00  0.00    +0.004 A 
ATOM     20  C   UNL     1      -0.133  -2.651   1.477  0.00  0.00    +0.047 A 
ATOM     21  C   UNL     1      -0.769  -1.417   1.516  0.00  0.00    +0.135 A 
BRANCH  21  22
ATOM     22  O   UNL     1      -1.192  -0.908   2.704  0.00  0.00    -0.426 OA
BRANCH  22  23
ATOM     23  C   UNL     1      -0.476   0.085   3.256  0.00  0.00    +0.309 C 
ATOM     24  O   UNL     1       0.561   0.437   2.745  0.00  0.00    -0.251 OA
ATOM     25  C   UNL     1      -0.966   0.759   4.511  0.00  0.00    +0.136 C 
ENDBRANCH  22  23
ENDBRANCH  21  22
ENDBRANCH   1  17
BRANCH   5  26
ATOM     26  C   UNL     1      -2.152  -3.840  -5.421  0.00  0.00    +0.218 C 
ATOM     27  O   UNL     1      -1.029  -4.261  -5.601  0.00  0.00    -0.275 OA
ATOM     28  N   UNL     1      -3.196  -4.415  -6.051  0.00  0.00    -0.312 N 
ATOM     29  H   UNL     1      -4.094  -4.078  -5.907  0.00  0.00    +0.149 HD
BRANCH  28  30
ATOM     30  C   UNL     1      -2.974  -5.548  -6.952  0.00  0.00    +0.076 C 
ATOM     31  C   UNL     1      -2.607  -5.028  -8.344  0.00  0.00    +0.041 C 
ATOM     32  C   UNL     1      -2.342  -6.216  -9.275  0.00  0.00    +0.109 C 
ATOM     33  N   UNL     1      -3.511  -7.105  -9.252  0.00  0.00    -0.302 N 
ATOM     34  C   UNL     1      -4.003  -7.591  -7.955  0.00  0.00    +0.109 C 
ATOM     35  C   UNL     1      -4.250  -6.388  -7.039  0.00  0.00    +0.041 C 
ATOM     36  C   UNL     1      -4.120  -7.468 -10.398  0.00  0.00    +0.212 C 
ATOM     37  O   UNL     1      -5.146  -8.114 -10.361  0.00  0.00    -0.276 OA
ATOM     38  C   UNL     1      -3.527  -7.072 -11.725  0.00  0.00    +0.109 C 
ENDBRANCH  28  30
ENDBRANCH   5  26
TORSDOF 5
