REMARK  Name = ZINC35840092
REMARK  13 active torsions:
REMARK  status: ('A' for Active; 'I' for Inactive)
REMARK    1  A    between atoms: C_1  and  C_2
REMARK    2  A    between atoms: C_2  and  N_3
REMARK    3  A    between atoms: N_3  and  C_4
REMARK    4  A    between atoms: C_4  and  C_5
REMARK    5  A    between atoms: C_6  and  C_8
REMARK    6  A    between atoms: C_15  and  C_17
REMARK    7  A    between atoms: C_20  and  C_22
REMARK    8  A    between atoms: C_22  and  N_23
REMARK    9  A    between atoms: N_26  and  C_29
REMARK   10  A    between atoms: C_29  and  C_30
REMARK   11  A    between atoms: C_30  and  C_32
REMARK   12  A    between atoms: C_30  and  O_39
REMARK   13  A    between atoms: C_32  and  C_33
REMARK                            x       y       z     vdW  Elec       q    Type
REMARK                         _______ _______ _______ _____ _____    ______ ____
ROOT
ATOM      1  C   UNL     1       2.877  -1.093   1.811  0.00  0.00    +0.164 A 
ATOM      2  C   UNL     1       4.152  -1.030   2.283  0.00  0.00    +0.230 A 
ATOM      3  O   UNL     1       4.075  -1.050   3.623  0.00  0.00    -0.449 OA
ATOM      4  C   UNL     1       2.782  -1.124   3.967  0.00  0.00    +0.179 A 
ATOM      5  N   UNL     1       2.053  -1.145   2.892  0.00  0.00    -0.210 NA
ENDROOT
BRANCH   1  12
ATOM      6  C   UNL     1      -0.130   0.066  -1.695  0.00  0.00    +0.092 C 
ATOM      7  C   UNL     1      -1.275   0.205  -0.690  0.00  0.00    +0.016 C 
ATOM      8  C   UNL     1      -0.702   0.426   0.712  0.00  0.00    +0.020 C 
ATOM      9  C   UNL     1       0.146  -0.786   1.110  0.00  0.00    +0.108 C 
ATOM     10  N   UNL     1       1.161  -1.014   0.072  0.00  0.00    -0.295 N 
ATOM     11  C   UNL     1       0.726  -1.150  -1.325  0.00  0.00    +0.121 C 
ATOM     12  C   UNL     1       2.466  -1.097   0.395  0.00  0.00    +0.268 C 
ATOM     13  O   UNL     1       3.306  -1.175  -0.481  0.00  0.00    -0.268 OA
BRANCH   6  15
ATOM     14  N   UNL     1       0.075   0.117  -4.160  0.00  0.00    -0.302 N 
ATOM     15  C   UNL     1      -0.695  -0.120  -3.080  0.00  0.00    +0.220 C 
ATOM     16  O   UNL     1      -1.843  -0.484  -3.222  0.00  0.00    -0.275 OA
BRANCH  14  18
ATOM     17  C   UNL     1      -0.239  -1.380  -6.068  0.00  0.00    +0.024 C 
ATOM     18  C   UNL     1      -0.498   0.019  -5.504  0.00  0.00    +0.104 C 
ENDBRANCH  14  18
BRANCH  14  19
ATOM     19  C   UNL     1       1.486   0.474  -3.989  0.00  0.00    +0.104 C 
ATOM     20  C   UNL     1       1.625   1.998  -3.955  0.00  0.00    +0.024 C 
ENDBRANCH  14  19
ENDBRANCH   6  15
ENDBRANCH   1  12
BRANCH   4  21
ATOM     21  C   UNL     1       2.256  -1.169   5.379  0.00  0.00    +0.019 C 
BRANCH  21  22
ATOM     22  N   UNL     1       2.160  -2.567   5.821  0.00  0.00    +0.387 N 
ATOM     23  C   UNL     1       1.157  -3.269   5.008  0.00  0.00    -0.063 C 
ATOM     24  C   UNL     1       1.070  -4.730   5.455  0.00  0.00    +0.066 C 
ATOM     25  N   UNL     1       0.698  -4.783   6.876  0.00  0.00    -0.303 NA
ATOM     26  C   UNL     1       1.680  -4.063   7.699  0.00  0.00    +0.066 C 
ATOM     27  C   UNL     1       1.762  -2.608   7.234  0.00  0.00    -0.063 C 
ATOM     28  H   UNL     1       3.056  -3.017   5.710  0.00  0.00    -0.081 HD
BRANCH  25  29
ATOM     29  C   UNL     1       0.549  -6.172   7.329  0.00  0.00    +0.115 C 
BRANCH  29  30
ATOM     30  C   UNL     1      -0.699  -6.786   6.690  0.00  0.00    +0.133 C 
BRANCH  30  31
ATOM     31  O   UNL     1      -1.858  -6.076   7.131  0.00  0.00    -0.390 OA
ATOM     32  H   UNL     1      -1.990  -6.094   8.088  0.00  0.00    +0.210 HD
ENDBRANCH  30  31
BRANCH  30  33
ATOM     33  C   UNL     1      -0.813  -8.255   7.102  0.00  0.00    +0.067 C 
BRANCH  33  34
ATOM     34  C   UNL     1      -1.970  -8.892   6.377  0.00  0.00    -0.045 A 
ATOM     35  C   UNL     1      -3.234  -8.870   6.937  0.00  0.00    +0.004 A 
ATOM     36  C   UNL     1      -4.295  -9.454   6.272  0.00  0.00    +0.000 A 
ATOM     37  C   UNL     1      -4.093 -10.059   5.045  0.00  0.00    +0.000 A 
ATOM     38  C   UNL     1      -2.830 -10.080   4.484  0.00  0.00    +0.000 A 
ATOM     39  C   UNL     1      -1.770  -9.492   5.148  0.00  0.00    +0.004 A 
ENDBRANCH  33  34
ENDBRANCH  30  33
ENDBRANCH  29  30
ENDBRANCH  25  29
ENDBRANCH  21  22
ENDBRANCH   4  21
TORSDOF 11
