REMARK  Name = ZINC03257956
REMARK  12 active torsions:
REMARK  status: ('A' for Active; 'I' for Inactive)
REMARK    1  A    between atoms: C_1  and  C_2
REMARK    2  A    between atoms: C_2  and  N_3
REMARK    3  A    between atoms: N_3  and  C_4
REMARK    4  A    between atoms: N_3  and  S_6
REMARK    5  A    between atoms: C_4  and  C_5
REMARK    6  A    between atoms: S_6  and  C_9
REMARK    7  A    between atoms: C_13  and  C_15
REMARK    8  A    between atoms: N_17  and  C_18
REMARK    9  A    between atoms: C_18  and  C_20
REMARK   10  A    between atoms: C_18  and  C_21
REMARK   11  A    between atoms: C_21  and  C_23
REMARK   12  A    between atoms: C_21  and  N_28
REMARK                            x       y       z     vdW  Elec       q    Type
REMARK                         _______ _______ _______ _____ _____    ______ ____
ROOT
ATOM      1  C   UNL     1       4.658   2.329   4.494  0.00  0.00    +0.246 C 
ATOM      2  O   UNL     1       5.276   3.342   4.756  0.00  0.00    -0.270 OA
ATOM      3  N   UNL     1       4.318   1.472   5.477  0.00  0.00    -0.310 N 
ATOM      4  H   UNL     1       3.825   0.664   5.268  0.00  0.00    +0.149 HD
ENDROOT
BRANCH   1   9
ATOM      5  C   UNL     1       3.218   0.606   1.484  0.00  0.00    +0.106 A 
ATOM      6  C   UNL     1       3.567   1.487   0.475  0.00  0.00    +0.030 A 
ATOM      7  C   UNL     1       4.270   2.641   0.769  0.00  0.00    +0.022 A 
ATOM      8  C   UNL     1       4.629   2.922   2.074  0.00  0.00    +0.053 A 
ATOM      9  C   UNL     1       4.279   2.036   3.096  0.00  0.00    +0.057 A 
ATOM     10  C   UNL     1       3.563   0.876   2.791  0.00  0.00    +0.043 A 
ATOM     11 CL   UNL     1       5.512   4.370   2.441  0.00  0.00    -0.083 Cl
BRANCH   5  12
ATOM     12  S   UNL     1       2.322  -0.861   1.097  0.00  0.00    +0.061 S 
ATOM     13  O   UNL     1       2.586  -1.786   2.143  0.00  0.00    -0.153 OA
ATOM     14  O   UNL     1       2.594  -1.155  -0.266  0.00  0.00    -0.153 OA
BRANCH  12  15
ATOM     15  N   UNL     1       0.711  -0.489   1.189  0.00  0.00    -0.177 NA
BRANCH  15  17
ATOM     16  C   UNL     1      -0.019   1.526   0.010  0.00  0.00    +0.022 C 
ATOM     17  C   UNL     1       0.002  -0.004   0.002  0.00  0.00    +0.106 C 
ENDBRANCH  15  17
BRANCH  15  18
ATOM     18  C   UNL     1      -0.006  -0.646   2.457  0.00  0.00    +0.106 C 
ATOM     19  C   UNL     1      -0.694  -2.013   2.489  0.00  0.00    +0.022 C 
ENDBRANCH  15  18
ENDBRANCH  12  15
ENDBRANCH   5  12
ENDBRANCH   1   9
BRANCH   3  20
ATOM     20  C   UNL     1       4.694   1.763   6.863  0.00  0.00    +0.061 C 
ATOM     21  C   UNL     1       6.118   1.264   7.120  0.00  0.00    +0.026 C 
BRANCH  20  22
ATOM     22  C   UNL     1       3.727   1.055   7.813  0.00  0.00    -0.010 C 
BRANCH  22  23
ATOM     23  N   UNL     1       2.348   1.443   7.487  0.00  0.00    +0.386 N 
ATOM     24  C   UNL     1       1.996   0.983   6.119  0.00  0.00    -0.078 C 
ATOM     25  C   UNL     1       0.447   0.945   6.146  0.00  0.00    -0.020 C 
ATOM     26  C   UNL     1       0.138   0.442   7.574  0.00  0.00    -0.020 C 
ATOM     27  C   UNL     1       1.398   0.767   8.397  0.00  0.00    -0.078 C 
ATOM     28  H   UNL     1       2.243   2.445   7.556  0.00  0.00    -0.081 HD
ENDBRANCH  22  23
BRANCH  22  29
ATOM     29  C   UNL     1       4.037   1.451   9.234  0.00  0.00    -0.022 A 
ATOM     30  C   UNL     1       4.741   0.774  10.174  0.00  0.00    +0.009 A 
ATOM     31  C   UNL     1       4.902   1.338  11.426  0.00  0.00    +0.008 A 
ATOM     32  C   UNL     1       4.351   2.550  11.676  0.00  0.00    +0.045 A 
ATOM     33  S   UNL     1       3.580   2.936  10.112  0.00  0.00    -0.103 S 
ENDBRANCH  22  29
ENDBRANCH  20  22
ENDBRANCH   3  20
TORSDOF 9
