REMARK  Name = ZINC04904331
REMARK  7 active torsions:
REMARK  status: ('A' for Active; 'I' for Inactive)
REMARK    1  A    between atoms: C_1  and  C_2
REMARK    2  A    between atoms: C_2  and  N_3
REMARK    3  A    between atoms: N_3  and  N_4
REMARK    4  A    between atoms: C_5  and  C_7
REMARK    5  A    between atoms: C_11  and  O_13
REMARK    6  A    between atoms: C_14  and  C_15
REMARK    7  A    between atoms: N_17  and  C_18
REMARK                            x       y       z     vdW  Elec       q    Type
REMARK                         _______ _______ _______ _____ _____    ______ ____
ROOT
ATOM      1  C   UNL     1       0.235   1.685   0.165  0.00  0.00    +0.062 C 
ATOM      2  C   UNL     1      -0.562   2.143  -1.029  0.00  0.00    +0.024 C 
ATOM      3  C   UNL     1      -1.907   2.035  -1.024  0.00  0.00    +0.087 C 
ENDROOT
BRANCH   3   4
ATOM      4  C   UNL     1      -2.664   2.577  -2.089  0.00  0.00    +0.243 C 
ATOM      5  O   UNL     1      -2.099   3.046  -3.061  0.00  0.00    -0.270 OA
ATOM      6  N   UNL     1      -4.010   2.575  -2.028  0.00  0.00    -0.281 N 
ATOM      7  H   UNL     1      -4.459   2.266  -1.226  0.00  0.00    +0.155 HD
BRANCH   6   8
ATOM      8  C   UNL     1      -4.760   3.017  -3.123  0.00  0.00    +0.053 A 
ATOM      9  C   UNL     1      -4.179   3.085  -4.383  0.00  0.00    +0.044 A 
ATOM     10  C   UNL     1      -4.923   3.522  -5.463  0.00  0.00    +0.043 A 
ATOM     11  C   UNL     1      -6.246   3.891  -5.289  0.00  0.00    +0.021 A 
ATOM     12  C   UNL     1      -6.827   3.825  -4.037  0.00  0.00    +0.023 A 
ATOM     13  C   UNL     1      -6.090   3.383  -2.954  0.00  0.00    +0.062 A 
ATOM     14 CL   UNL     1      -6.823   3.294  -1.383  0.00  0.00    -0.082 Cl
ATOM     15 CL   UNL     1      -4.198   3.607  -7.037  0.00  0.00    -0.083 Cl
ENDBRANCH   6   8
ENDBRANCH   3   4
BRANCH   2  16
ATOM     16  N   UNL     1       0.077   2.668  -2.117  0.00  0.00    -0.268 N 
ATOM     17  H   UNL     1      -0.438   3.039  -2.850  0.00  0.00    +0.170 HD
BRANCH  16  18
ATOM     18  N   UNL     1       1.477   2.670  -2.173  0.00  0.00    -0.233 N 
ATOM     19  C   UNL     1       2.110   3.280  -3.195  0.00  0.00    +0.260 C 
ATOM     20  O   UNL     1       1.468   3.750  -4.114  0.00  0.00    -0.269 OA
ATOM     21  H   UNL     1       1.991   2.232  -1.477  0.00  0.00    +0.173 HD
BRANCH  19  22
ATOM     22  C   UNL     1       3.585   3.379  -3.198  0.00  0.00    +0.042 A 
ATOM     23  C   UNL     1       4.332   2.743  -2.204  0.00  0.00    +0.013 A 
ATOM     24  C   UNL     1       5.708   2.837  -2.210  0.00  0.00    +0.004 A 
ATOM     25  C   UNL     1       6.352   3.561  -3.197  0.00  0.00    +0.045 A 
ATOM     26  C   UNL     1       5.618   4.197  -4.188  0.00  0.00    +0.118 A 
ATOM     27  C   UNL     1       4.236   4.104  -4.196  0.00  0.00    +0.058 A 
BRANCH  26  28
ATOM     28  O   UNL     1       6.256   4.908  -5.155  0.00  0.00    -0.507 OA
ATOM     29  H   UNL     1       6.489   4.388  -5.937  0.00  0.00    +0.292 HD
ENDBRANCH  26  28
ENDBRANCH  19  22
ENDBRANCH  16  18
ENDBRANCH   2  16
TORSDOF 6
