REMARK  Name = ZINC33915072
REMARK  11 active torsions:
REMARK  status: ('A' for Active; 'I' for Inactive)
REMARK    1  A    between atoms: C_1  and  C_2
REMARK    2  A    between atoms: C_2  and  C_3
REMARK    3  A    between atoms: C_3  and  C_5
REMARK    4  A    between atoms: C_3  and  C_6
REMARK    5  A    between atoms: C_6  and  C_8
REMARK    6  A    between atoms: C_6  and  N_27
REMARK    7  A    between atoms: C_14  and  C_17
REMARK    8  A    between atoms: N_20  and  C_21
REMARK    9  A    between atoms: C_28  and  C_30
REMARK   10  A    between atoms: C_30  and  C_31
REMARK   11  A    between atoms: C_31  and  C_32
REMARK                            x       y       z     vdW  Elec       q    Type
REMARK                         _______ _______ _______ _____ _____    ______ ____
ROOT
ATOM      1  C   UNL     1      -0.060   1.477   2.291  0.00  0.00    +0.236 C 
ATOM      2  O   UNL     1       0.374   2.206   3.157  0.00  0.00    -0.274 OA
ATOM      3  N   UNL     1      -0.693   2.002   1.223  0.00  0.00    -0.297 N 
ATOM      4  C   UNL     1      -1.326   1.128   0.225  0.00  0.00    +0.127 C 
ATOM      5  C   UNL     1      -0.759   1.472  -1.158  0.00  0.00    +0.128 C 
ATOM      6  N   UNL     1      -0.829   2.928  -1.345  0.00  0.00    -0.280 N 
ATOM      7  C   UNL     1      -0.196   3.802  -0.347  0.00  0.00    +0.092 C 
ATOM      8  C   UNL     1      -0.768   3.458   1.039  0.00  0.00    +0.130 C 
ATOM      9  C   UNL     1       1.318   3.578  -0.356  0.00  0.00    +0.030 C 
ATOM     10  C   UNL     1      -1.462   3.453  -2.413  0.00  0.00    +0.303 C 
ATOM     11  O   UNL     1      -1.433   4.653  -2.608  0.00  0.00    -0.253 OA
ATOM     12  N   UNL     1      -2.129   2.648  -3.264  0.00  0.00    -0.296 N 
ATOM     13  H   UNL     1      -2.216   1.702  -3.069  0.00  0.00    +0.151 HD
ENDROOT
BRANCH  12  14
ATOM     14  C   UNL     1      -2.721   3.202  -4.484  0.00  0.00    +0.074 C 
ATOM     15  C   UNL     1      -4.106   3.768  -4.167  0.00  0.00    +0.022 C 
ATOM     16  C   UNL     1      -4.725   4.346  -5.441  0.00  0.00    +0.002 C 
ATOM     17  C   UNL     1      -4.854   3.242  -6.492  0.00  0.00    +0.000 C 
ATOM     18  C   UNL     1      -3.469   2.676  -6.809  0.00  0.00    +0.002 C 
ATOM     19  C   UNL     1      -2.850   2.097  -5.535  0.00  0.00    +0.022 C 
ENDBRANCH  12  14
BRANCH   1  20
ATOM     20  C   UNL     1       0.109  -0.016   2.408  0.00  0.00    +0.162 C 
BRANCH  20  21
ATOM     21  N   UNL     1       0.474  -0.359   3.785  0.00  0.00    -0.304 N 
ATOM     22  C   UNL     1       0.197  -1.586   4.269  0.00  0.00    +0.214 C 
ATOM     23  O   UNL     1      -0.354  -2.406   3.565  0.00  0.00    -0.276 OA
ATOM     24  H   UNL     1       0.914   0.296   4.348  0.00  0.00    +0.149 HD
BRANCH  22  25
ATOM     25  C   UNL     1       0.572  -1.940   5.685  0.00  0.00    +0.096 C 
BRANCH  25  26
ATOM     26  C   UNL     1       0.149  -3.380   5.980  0.00  0.00    +0.013 C 
BRANCH  26  27
ATOM     27  C   UNL     1       0.530  -3.739   7.418  0.00  0.00    -0.011 C 
ATOM     28  C   UNL     1       2.065  -3.800   7.559  0.00  0.00    +0.003 C 
ATOM     29  C   UNL     1       2.310  -4.977   8.536  0.00  0.00    +0.000 C 
ATOM     30  C   UNL     1       1.232  -6.004   8.111  0.00  0.00    +0.000 C 
ATOM     31  C   UNL     1      -0.000  -5.140   7.769  0.00  0.00    +0.003 C 
ENDBRANCH  26  27
ENDBRANCH  25  26
ENDBRANCH  22  25
ENDBRANCH  20  21
BRANCH  20  32
ATOM     32  C   UNL     1       1.214  -0.480   1.457  0.00  0.00    +0.015 C 
ATOM     33  C   UNL     1       2.556   0.092   1.916  0.00  0.00    +0.010 C 
BRANCH  32  35
ATOM     34  C   UNL     1      -0.003  -2.579   0.861  0.00  0.00    +0.004 C 
ATOM     35  C   UNL     1       1.283  -2.009   1.463  0.00  0.00    +0.002 C 
ENDBRANCH  32  35
ENDBRANCH  20  32
ENDBRANCH   1  20
TORSDOF 8
