REMARK  Name = ZINC06196161
REMARK  11 active torsions:
REMARK  status: ('A' for Active; 'I' for Inactive)
REMARK    1  A    between atoms: C_1  and  C_2
REMARK    2  A    between atoms: C_2  and  O_3
REMARK    3  A    between atoms: O_3  and  C_4
REMARK    4  A    between atoms: C_6  and  C_20
REMARK    5  A    between atoms: C_9  and  O_10
REMARK    6  A    between atoms: O_10  and  C_11
REMARK    7  A    between atoms: C_11  and  C_12
REMARK    8  A    between atoms: C_17  and  C_18
REMARK    9  A    between atoms: C_23  and  C_34
REMARK   10  A    between atoms: C_29  and  N_33
REMARK   11  A    between atoms: C_30  and  C_31
REMARK                            x       y       z     vdW  Elec       q    Type
REMARK                         _______ _______ _______ _____ _____    ______ ____
ROOT
ATOM      1  C   UNL     1      -0.056   3.845   0.023  0.00  0.00    +0.162 A 
ATOM      2  C   UNL     1      -1.244   3.131   0.031  0.00  0.00    +0.054 A 
ATOM      3  C   UNL     1      -1.220   1.749   0.017  0.00  0.00    -0.031 A 
ATOM      4  C   UNL     1      -0.013   1.076   0.008  0.00  0.00    +0.008 A 
ATOM      5  C   UNL     1       1.176   1.782   0.000  0.00  0.00    +0.050 A 
ATOM      6  C   UNL     1       1.159   3.167   0.008  0.00  0.00    +0.162 A 
ENDROOT
BRANCH   3   7
ATOM      7  C   UNL     1      -2.513   0.975   0.019  0.00  0.00    +0.101 C 
ATOM      8  C   UNL     1      -2.579   0.098   1.243  0.00  0.00    +0.049 A 
ATOM      9  C   UNL     1      -2.770   0.434   2.527  0.00  0.00    +0.041 A 
ATOM     10  N   UNL     1      -2.748  -0.706   3.257  0.00  0.00    -0.278 N 
ATOM     11  H   UNL     1      -2.863  -0.770   4.248  0.00  0.00    +0.189 HD
ATOM     12  N   UNL     1      -2.535  -1.781   2.380  0.00  0.00    -0.135 NA
ATOM     13  C   UNL     1      -2.434  -1.306   1.173  0.00  0.00    +0.245 A 
ATOM     14  O   UNL     1      -2.229  -1.952  -0.006  0.00  0.00    -0.421 OA
ATOM     15  C   UNL     1      -2.435  -1.253  -1.140  0.00  0.00    +0.201 C 
ATOM     16  C   UNL     1      -2.576   0.087  -1.199  0.00  0.00    +0.098 C 
ATOM     17  C   UNL     1      -2.973   1.828   3.061  0.00  0.00    +0.065 C 
BRANCH  15  18
ATOM     18  N   UNL     1      -2.507  -1.955  -2.318  0.00  0.00    -0.328 N 
ATOM     19  H   UNL     1      -2.410  -2.920  -2.314  0.00  0.00    +0.145 HD
ATOM     20  H   UNL     1      -2.654  -1.485  -3.154  0.00  0.00    +0.145 HD
ENDBRANCH  15  18
BRANCH  16  21
ATOM     21  C   UNL     1      -2.795   0.696  -2.476  0.00  0.00    +0.101 C 
ATOM     22  N   UNL     1      -2.969   1.179  -3.490  0.00  0.00    -0.191 NA
ENDBRANCH  16  21
ENDBRANCH   3   7
BRANCH   1  23
ATOM     23  O   UNL     1      -0.078   5.205   0.030  0.00  0.00    -0.489 OA
BRANCH  23  25
ATOM     24  C   UNL     1      -1.186   7.353   0.052  0.00  0.00    +0.048 C 
ATOM     25  C   UNL     1      -1.362   5.833   0.046  0.00  0.00    +0.226 C 
ENDBRANCH  23  25
ENDBRANCH   1  23
BRANCH   6  26
ATOM     26  O   UNL     1       2.327   3.863   0.000  0.00  0.00    -0.484 OA
BRANCH  26  27
ATOM     27  C   UNL     1       3.536   3.101  -0.016  0.00  0.00    +0.266 C 
BRANCH  27  28
ATOM     28  C   UNL     1       4.719   4.035  -0.023  0.00  0.00    +0.007 A 
ATOM     29  C   UNL     1       4.521   5.401  -0.019  0.00  0.00    +0.008 A 
ATOM     30  C   UNL     1       5.606   6.260  -0.021  0.00  0.00    +0.000 A 
ATOM     31  C   UNL     1       6.895   5.757  -0.036  0.00  0.00    +0.001 A 
ATOM     32  C   UNL     1       7.107   4.394  -0.045  0.00  0.00    +0.019 A 
ATOM     33  C   UNL     1       6.016   3.521  -0.038  0.00  0.00    +0.058 A 
BRANCH  33  34
ATOM     34  C   UNL     1       6.229   2.105  -0.048  0.00  0.00    +0.100 C 
ATOM     35  N   UNL     1       6.398   0.982  -0.056  0.00  0.00    -0.191 NA
ENDBRANCH  33  34
ENDBRANCH  27  28
ENDBRANCH  26  27
ENDBRANCH   6  26
TORSDOF 9
