REMARK  Name = ZINC67460541
REMARK  7 active torsions:
REMARK  status: ('A' for Active; 'I' for Inactive)
REMARK    1  A    between atoms: C_1  and  C_2
REMARK    2  A    between atoms: C_2  and  C_4
REMARK    3  A    between atoms: C_2  and  N_10
REMARK    4  A    between atoms: C_4  and  N_5
REMARK    5  A    between atoms: C_16  and  C_19
REMARK    6  A    between atoms: C_19  and  C_21
REMARK    7  A    between atoms: C_19  and  O_28
REMARK                            x       y       z     vdW  Elec       q    Type
REMARK                         _______ _______ _______ _____ _____    ______ ____
ROOT
ATOM      1  N   UNL     1       0.711  -0.488   1.189  0.00  0.00    -0.295 N 
ATOM      2  C   UNL     1       2.054  -0.600   1.174  0.00  0.00    +0.302 C 
ATOM      3  O   UNL     1       2.670  -0.385   0.148  0.00  0.00    -0.253 OA
ATOM      4  N   UNL     1       2.714  -0.949   2.296  0.00  0.00    -0.286 N 
ATOM      5  C   UNL     1       1.978  -1.325   3.511  0.00  0.00    +0.109 C 
ATOM      6  C   UNL     1       2.479  -0.465   4.676  0.00  0.00    +0.025 C 
ATOM      7  C   UNL     1       3.999  -0.606   4.792  0.00  0.00    +0.025 C 
ATOM      8  C   UNL     1       4.659  -0.107   3.505  0.00  0.00    +0.025 C 
ATOM      9  C   UNL     1       4.183  -0.968   2.325  0.00  0.00    +0.109 C 
ATOM     10  H   UNL     1       0.213  -0.731   1.986  0.00  0.00    +0.151 HD
ENDROOT
BRANCH   1  12
ATOM     11  C   UNL     1      -0.017   1.528   0.013  0.00  0.00    +0.029 C 
ATOM     12  C   UNL     1       0.002  -0.002   0.003  0.00  0.00    +0.091 C 
BRANCH  12  13
ATOM     13  C   UNL     1      -1.433  -0.530   0.013  0.00  0.00    +0.144 C 
BRANCH  13  14
ATOM     14  N   UNL     1      -1.417  -1.989  -0.117  0.00  0.00    -0.337 N 
ATOM     15  C   UNL     1      -1.446  -2.701  -1.285  0.00  0.00    +0.104 A 
ATOM     16  C   UNL     1      -1.416  -4.005  -0.948  0.00  0.00    +0.101 A 
ATOM     17  N   UNL     1      -1.370  -4.087   0.390  0.00  0.00    -0.352 N 
ATOM     18  C   UNL     1      -1.366  -2.883   0.894  0.00  0.00    +0.173 A 
ATOM     19  H   UNL     1      -1.341  -4.910   0.901  0.00  0.00    +0.166 HD
ENDBRANCH  13  14
ENDBRANCH  12  13
ENDBRANCH   1  12
BRANCH   7  20
ATOM     20  C   UNL     1       4.498   0.224   5.976  0.00  0.00    +0.148 C 
BRANCH  20  21
ATOM     21  C   UNL     1       5.995   0.086   6.091  0.00  0.00    -0.019 A 
ATOM     22  C   UNL     1       6.541  -1.037   6.684  0.00  0.00    +0.007 A 
ATOM     23  C   UNL     1       7.913  -1.164   6.790  0.00  0.00    +0.020 A 
ATOM     24  C   UNL     1       8.740  -0.168   6.301  0.00  0.00    +0.041 A 
ATOM     25  C   UNL     1       8.192   0.955   5.707  0.00  0.00    +0.020 A 
ATOM     26  C   UNL     1       6.820   1.079   5.597  0.00  0.00    +0.007 A 
ATOM     27 CL   UNL     1      10.463  -0.327   6.434  0.00  0.00    -0.084 Cl
ENDBRANCH  20  21
BRANCH  20  28
ATOM     28  O   UNL     1       3.883  -0.243   7.178  0.00  0.00    -0.387 OA
ATOM     29  H   UNL     1       4.069  -1.170   7.381  0.00  0.00    +0.210 HD
ENDBRANCH  20  28
ENDBRANCH   7  20
TORSDOF 6
