REMARK  Name = ZINC09008161
REMARK  17 active torsions:
REMARK  status: ('A' for Active; 'I' for Inactive)
REMARK    1  A    between atoms: C_1  and  N_70
REMARK    2  A    between atoms: C_2  and  N_70
REMARK    3  A    between atoms: C_3  and  C_4
REMARK    4  A    between atoms: C_3  and  N_70
REMARK    5  A    between atoms: C_4  and  C_5
REMARK    6  A    between atoms: C_5  and  N_6
REMARK    7  A    between atoms: C_7  and  C_27
REMARK    8  A    between atoms: C_10  and  C_11
REMARK    9  A    between atoms: C_10  and  O_22
REMARK   10  A    between atoms: C_17  and  O_20
REMARK   11  A    between atoms: O_20  and  C_21
REMARK   12  A    between atoms: C_29  and  O_37
REMARK   13  A    between atoms: C_30  and  O_35
REMARK   14  A    between atoms: C_31  and  O_33
REMARK   15  A    between atoms: O_33  and  C_34
REMARK   16  A    between atoms: O_35  and  C_36
REMARK   17  A    between atoms: O_37  and  C_38
REMARK                            x       y       z     vdW  Elec       q    Type
REMARK                         _______ _______ _______ _____ _____    ______ ____
ROOT
ATOM      1  N   UNL     1      -6.187   7.095  -0.214  0.00  0.00    -0.284 N 
ATOM      2  C   UNL     1      -4.834   7.654  -0.136  0.00  0.00    +0.145 C 
ATOM      3  C   UNL     1      -3.887   6.480  -0.035  0.00  0.00    +0.074 C 
ATOM      4  C   UNL     1      -2.506   6.531   0.057  0.00  0.00    +0.168 C 
ATOM      5  C   UNL     1      -4.688   5.330  -0.047  0.00  0.00    +0.249 C 
ATOM      6  O   UNL     1      -4.288   4.181   0.023  0.00  0.00    -0.282 OA
ATOM      7  C   UNL     1      -6.108   5.754  -0.159  0.00  0.00    +0.288 C 
ATOM      8  O   UNL     1      -7.059   5.000  -0.196  0.00  0.00    -0.266 OA
ENDROOT
BRANCH   4   9
ATOM      9  C   UNL     1      -1.743   5.306   0.291  0.00  0.00    +0.171 A 
ATOM     10  C   UNL     1      -0.807   5.134   1.266  0.00  0.00    +0.061 A 
ATOM     11  C   UNL     1      -0.317   3.811   1.138  0.00  0.00    +0.025 A 
ATOM     12  C   UNL     1       0.639   3.060   1.835  0.00  0.00    +0.012 A 
ATOM     13  C   UNL     1       0.897   1.773   1.461  0.00  0.00    +0.004 A 
ATOM     14  C   UNL     1       0.220   1.198   0.394  0.00  0.00    +0.049 A 
ATOM     15  C   UNL     1      -0.724   1.921  -0.312  0.00  0.00    +0.163 A 
ATOM     16  C   UNL     1      -1.007   3.236   0.056  0.00  0.00    +0.177 A 
ATOM     17  O   UNL     1      -1.856   4.167  -0.427  0.00  0.00    -0.448 OA
BRANCH  15  18
ATOM     18  O   UNL     1      -1.377   1.351  -1.360  0.00  0.00    -0.491 OA
ATOM     19  C   UNL     1      -1.039  -0.001  -1.676  0.00  0.00    +0.277 C 
ENDBRANCH  15  18
ENDBRANCH   4   9
BRANCH   2  20
ATOM     20  C   UNL     1      -4.703   8.529   1.084  0.00  0.00    -0.015 A 
ATOM     21  C   UNL     1      -5.316   8.159   2.266  0.00  0.00    +0.055 A 
ATOM     22  C   UNL     1      -5.193   8.959   3.392  0.00  0.00    +0.165 A 
ATOM     23  C   UNL     1      -4.463  10.140   3.328  0.00  0.00    +0.204 A 
ATOM     24  C   UNL     1      -3.853  10.511   2.135  0.00  0.00    +0.165 A 
ATOM     25  C   UNL     1      -3.976   9.702   1.015  0.00  0.00    +0.055 A 
BRANCH  24  26
ATOM     26  O   UNL     1      -3.138  11.665   2.067  0.00  0.00    -0.491 OA
ATOM     27  C   UNL     1      -2.539  11.983   0.809  0.00  0.00    +0.277 C 
ENDBRANCH  24  26
BRANCH  23  28
ATOM     28  O   UNL     1      -4.346  10.931   4.429  0.00  0.00    -0.488 OA
ATOM     29  C   UNL     1      -5.341  11.939   4.612  0.00  0.00    +0.277 C 
ENDBRANCH  23  28
BRANCH  22  30
ATOM     30  O   UNL     1      -5.792   8.591   4.557  0.00  0.00    -0.491 OA
ATOM     31  C   UNL     1      -6.526   7.366   4.551  0.00  0.00    +0.277 C 
ENDBRANCH  22  30
ENDBRANCH   2  20
BRANCH   4  32
ATOM     32  O   UNL     1      -1.864   7.713  -0.069  0.00  0.00    -0.503 OA
ATOM     33  H   UNL     1      -0.878   7.569   0.023  0.00  0.00    +0.292 HD
ENDBRANCH   4  32
BRANCH   1  34
ATOM     34  C   UNL     1      -7.424   7.871  -0.326  0.00  0.00    +0.107 C 
BRANCH  34  35
ATOM     35  C   UNL     1      -7.952   8.194   1.073  0.00  0.00    +0.000 C 
BRANCH  35  36
ATOM     36  C   UNL     1      -9.244   9.005   0.956  0.00  0.00    -0.078 C 
BRANCH  36  39
ATOM     37  C   UNL     1     -10.852  10.287   2.235  0.00  0.00    -0.097 C 
ATOM     38  C   UNL     1     -10.168   8.093   2.999  0.00  0.00    -0.097 C 
ATOM     39  N   UNL     1      -9.730   9.327   2.314  0.00  0.00    +0.376 N 
ATOM     40  H   UNL     1      -8.964   9.752   2.850  0.00  0.00    -0.083 HD
ENDBRANCH  36  39
ENDBRANCH  35  36
ENDBRANCH  34  35
ENDBRANCH   1  34
TORSDOF 11
