REMARK  Name = ZINC40151367
REMARK  4 active torsions:
REMARK  status: ('A' for Active; 'I' for Inactive)
REMARK    1  A    between atoms: C_4  and  C_7
REMARK    2  A    between atoms: C_7  and  C_9
REMARK    3  A    between atoms: C_18  and  C_29
REMARK    4  A    between atoms: C_20  and  C_22
REMARK                            x       y       z     vdW  Elec       q    Type
REMARK                         _______ _______ _______ _____ _____    ______ ____
ROOT
ATOM      1  C   UNL     1       3.599  -2.423   0.462  0.00  0.00    +0.094 C 
ATOM      2  C   UNL     1       4.033  -3.189   1.723  0.00  0.00    +0.108 C 
ATOM      3  C   UNL     1       3.240  -4.462   1.884  0.00  0.00    -0.004 C 
ATOM      4  C   UNL     1       3.846  -5.542   2.381  0.00  0.00    -0.001 C 
ATOM      5  C   UNL     1       5.259  -5.520   2.777  0.00  0.00    +0.015 C 
ATOM      6  C   UNL     1       6.062  -4.529   2.325  0.00  0.00    +0.071 C 
ATOM      7  N   UNL     1       5.448  -3.570   1.532  0.00  0.00    -0.317 N 
ATOM      8  C   UNL     1       5.969  -2.855   0.366  0.00  0.00    +0.167 C 
ATOM      9  C   UNL     1       4.726  -2.718  -0.563  0.00  0.00    +0.061 C 
ENDROOT
BRANCH   9  10
ATOM     10  C   UNL     1       4.893  -1.570  -1.526  0.00  0.00    -0.041 A 
ATOM     11  C   UNL     1       6.120  -1.337  -2.118  0.00  0.00    +0.005 A 
ATOM     12  C   UNL     1       6.273  -0.285  -3.001  0.00  0.00    +0.020 A 
ATOM     13  C   UNL     1       5.198   0.535  -3.292  0.00  0.00    +0.041 A 
ATOM     14  C   UNL     1       3.970   0.301  -2.700  0.00  0.00    +0.020 A 
ATOM     15  C   UNL     1       3.816  -0.754  -1.821  0.00  0.00    +0.005 A 
ATOM     16 CL   UNL     1       5.390   1.857  -4.401  0.00  0.00    -0.084 Cl
ENDBRANCH   9  10
BRANCH   8  17
ATOM     17  C   UNL     1       6.489  -1.498   0.764  0.00  0.00    +0.232 C 
ATOM     18  O   UNL     1       6.055  -0.949   1.754  0.00  0.00    -0.274 OA
ATOM     19  N   UNL     1       7.438  -0.895   0.020  0.00  0.00    -0.328 N 
ATOM     20  H   UNL     1       7.846  -1.368  -0.722  0.00  0.00    +0.145 HD
ATOM     21  H   UNL     1       7.711   0.013   0.226  0.00  0.00    +0.145 HD
ENDBRANCH   8  17
BRANCH   1  22
ATOM     22  C   UNL     1       3.515  -0.945   0.745  0.00  0.00    +0.169 C 
ATOM     23  O   UNL     1       4.444  -0.220   0.461  0.00  0.00    -0.292 OA
BRANCH  22  27
ATOM     24  C   UNL     1       0.028   0.676   2.535  0.00  0.00    +0.000 A 
ATOM     25  C   UNL     1       1.087   1.508   2.213  0.00  0.00    +0.001 A 
ATOM     26  C   UNL     1       2.224   0.988   1.631  0.00  0.00    +0.011 A 
ATOM     27  C   UNL     1       2.306  -0.383   1.367  0.00  0.00    +0.018 A 
ATOM     28  C   UNL     1       1.232  -1.216   1.696  0.00  0.00    +0.011 A 
ATOM     29  C   UNL     1       0.102  -0.682   2.277  0.00  0.00    +0.001 A 
ENDBRANCH  22  27
ENDBRANCH   1  22
TORSDOF 4
