REMARK  Name = ZINC59433604
REMARK  7 active torsions:
REMARK  status: ('A' for Active; 'I' for Inactive)
REMARK    1  A    between atoms: C_1  and  C_2
REMARK    2  A    between atoms: C_4  and  C_17
REMARK    3  A    between atoms: C_5  and  C_16
REMARK    4  A    between atoms: N_6  and  C_7
REMARK    5  A    between atoms: C_10  and  N_13
REMARK    6  A    between atoms: N_21  and  C_31
REMARK    7  A    between atoms: N_23  and  C_24
REMARK                            x       y       z     vdW  Elec       q    Type
REMARK                         _______ _______ _______ _____ _____    ______ ____
ROOT
ATOM      1  C   UNL     1       0.041  -3.321  -1.423  0.00  0.00    +0.030 C 
ATOM      2  C   UNL     1      -0.073  -3.218  -2.822  0.00  0.00    +0.078 C 
ATOM      3  C   UNL     1      -0.106  -1.998  -3.661  0.00  0.00    +0.259 C 
ATOM      4  O   UNL     1      -0.034  -0.875  -3.199  0.00  0.00    -0.269 OA
ATOM      5  N   UNL     1      -0.221  -2.238  -4.962  0.00  0.00    -0.243 N 
ATOM      6  C   UNL     1      -0.293  -3.544  -5.366  0.00  0.00    +0.169 C 
ATOM      7  N   UNL     1      -0.409  -3.996  -6.603  0.00  0.00    -0.225 NA
ATOM      8  S   UNL     1      -0.197  -4.449  -3.958  0.00  0.00    -0.049 S 
ENDROOT
BRANCH   1  12
ATOM      9  C   UNL     1      -1.216   1.229   0.323  0.00  0.00    +0.064 C 
ATOM     10  C   UNL     1      -0.594  -0.133   0.147  0.00  0.00    +0.022 A 
ATOM     11  C   UNL     1      -0.850  -0.976  -0.866  0.00  0.00    +0.031 A 
ATOM     12  C   UNL     1      -0.027  -2.171  -0.630  0.00  0.00    -0.003 A 
ATOM     13  C   UNL     1       0.681  -1.915   0.567  0.00  0.00    +0.028 A 
ATOM     14  N   UNL     1       0.328  -0.699   0.998  0.00  0.00    -0.317 N 
ATOM     15  C   UNL     1       1.663  -2.843   1.234  0.00  0.00    +0.064 C 
BRANCH  14  16
ATOM     16  C   UNL     1       0.824  -0.088   2.155  0.00  0.00    +0.047 A 
ATOM     17  C   UNL     1       2.167   0.257   2.239  0.00  0.00    +0.028 A 
ATOM     18  C   UNL     1       2.653   0.859   3.383  0.00  0.00    +0.035 A 
ATOM     19  C   UNL     1       1.805   1.118   4.444  0.00  0.00    +0.126 A 
ATOM     20  C   UNL     1       0.468   0.775   4.364  0.00  0.00    +0.035 A 
ATOM     21  C   UNL     1      -0.027   0.179   3.221  0.00  0.00    +0.028 A 
BRANCH  19  22
ATOM     22  N   UNL     1       2.330   1.763   5.669  0.00  0.00    +0.056 N 
ATOM     23  O   UNL     1       3.603   2.090   5.747  0.00  0.00    -0.126 OA
ATOM     24  O   UNL     1       1.524   2.010   6.680  0.00  0.00    -0.126 OA
ENDBRANCH  19  22
ENDBRANCH  14  16
ENDBRANCH   1  12
BRANCH   7  25
ATOM     25  C   UNL     1      -0.468  -5.319  -6.833  0.00  0.00    +0.067 A 
ATOM     26  C   UNL     1       0.421  -6.194  -6.175  0.00  0.00    +0.028 A 
ATOM     27  C   UNL     1       0.352  -7.536  -6.417  0.00  0.00    +0.002 A 
ATOM     28  C   UNL     1      -0.588  -8.040  -7.305  0.00  0.00    +0.000 A 
ATOM     29  C   UNL     1      -1.468  -7.189  -7.958  0.00  0.00    +0.002 A 
ATOM     30  C   UNL     1      -1.422  -5.843  -7.728  0.00  0.00    +0.028 A 
ENDBRANCH   7  25
BRANCH   5  31
ATOM     31  C   UNL     1      -0.269  -1.142  -5.933  0.00  0.00    +0.084 C 
ATOM     32  C   UNL     1       1.017  -0.320  -5.838  0.00  0.00    +0.023 C 
ATOM     33  C   UNL     1       0.967   0.825  -6.852  0.00  0.00    +0.002 C 
ATOM     34  C   UNL     1      -0.236   1.722  -6.550  0.00  0.00    +0.000 C 
ATOM     35  C   UNL     1      -1.522   0.899  -6.645  0.00  0.00    +0.002 C 
ATOM     36  C   UNL     1      -1.472  -0.246  -5.631  0.00  0.00    +0.023 C 
ENDBRANCH   5  31
TORSDOF 5
