REMARK  Name = ZINC13301300
REMARK  17 active torsions:
REMARK  status: ('A' for Active; 'I' for Inactive)
REMARK    1  A    between atoms: C_1  and  C_2
REMARK    2  A    between atoms: C_4  and  C_15
REMARK    3  A    between atoms: C_7  and  N_8
REMARK    4  A    between atoms: N_8  and  C_9
REMARK    5  A    between atoms: N_8  and  C_12
REMARK    6  A    between atoms: C_9  and  C_10
REMARK    7  A    between atoms: C_10  and  O_11
REMARK    8  A    between atoms: C_12  and  C_13
REMARK    9  A    between atoms: C_13  and  O_14
REMARK   10  A    between atoms: C_15  and  C_30
REMARK   11  A    between atoms: N_20  and  C_21
REMARK   12  A    between atoms: N_20  and  C_24
REMARK   13  A    between atoms: C_21  and  C_22
REMARK   14  A    between atoms: C_22  and  O_23
REMARK   15  A    between atoms: C_24  and  C_25
REMARK   16  A    between atoms: C_25  and  O_26
REMARK   17  A    between atoms: C_27  and  C_29
REMARK                            x       y       z     vdW  Elec       q    Type
REMARK                         _______ _______ _______ _____ _____    ______ ____
ROOT
ATOM      1  C   UNL     1      -0.725  -1.109  -1.460  0.00  0.00    -0.004 C 
ATOM      2  C   UNL     1      -0.405   0.237  -1.209  0.00  0.00    -0.016 C 
ATOM      3  C   UNL     1      -1.426   1.153  -0.866  0.00  0.00    +0.010 C 
ATOM      4  C   UNL     1      -1.120   2.447  -0.619  0.00  0.00    +0.026 C 
ATOM      5  C   UNL     1       0.224   2.888  -0.717  0.00  0.00    +0.041 C 
ATOM      6  N   UNL     1       0.525   4.156  -0.482  0.00  0.00    -0.366 N 
ATOM      7  C   UNL     1       1.245   1.969  -1.067  0.00  0.00    -0.027 C 
ATOM      8  C   UNL     1       0.936   0.674  -1.307  0.00  0.00    +0.014 C 
ATOM      9  C   UNL     1       2.675   2.434  -1.172  0.00  0.00    +0.046 C 
ENDROOT
BRANCH   1  13
ATOM     10  C   UNL     1      -4.813  -2.938  -3.624  0.00  0.00    +0.045 C 
ATOM     11  C   UNL     1      -4.087  -2.445  -2.400  0.00  0.00    -0.029 A 
ATOM     12  C   UNL     1      -2.792  -2.023  -2.499  0.00  0.00    +0.013 A 
ATOM     13  C   UNL     1      -2.118  -1.565  -1.359  0.00  0.00    -0.016 A 
ATOM     14  C   UNL     1      -2.775  -1.548  -0.120  0.00  0.00    +0.010 A 
ATOM     15  C   UNL     1      -4.071  -1.967  -0.031  0.00  0.00    +0.024 A 
ATOM     16  C   UNL     1      -4.737  -2.422  -1.167  0.00  0.00    +0.033 A 
BRANCH  16  17
ATOM     17  N   UNL     1      -6.054  -2.853  -1.071  0.00  0.00    -0.325 N 
BRANCH  17  18
ATOM     18  C   UNL     1      -6.171  -3.985  -0.142  0.00  0.00    +0.133 C 
BRANCH  18  19
ATOM     19  C   UNL     1      -7.518  -4.680  -0.352  0.00  0.00    +0.174 C 
BRANCH  19  20
ATOM     20  O   UNL     1      -7.567  -5.236  -1.667  0.00  0.00    -0.393 OA
ATOM     21  H   UNL     1      -8.394  -5.694  -1.871  0.00  0.00    +0.209 HD
ENDBRANCH  19  20
ENDBRANCH  18  19
ENDBRANCH  17  18
BRANCH  17  22
ATOM     22  C   UNL     1      -6.942  -1.752  -0.674  0.00  0.00    +0.133 C 
BRANCH  22  23
ATOM     23  C   UNL     1      -7.176  -0.829  -1.871  0.00  0.00    +0.174 C 
BRANCH  23  24
ATOM     24  O   UNL     1      -7.907  -1.531  -2.878  0.00  0.00    -0.393 OA
ATOM     25  H   UNL     1      -8.027  -1.032  -3.698  0.00  0.00    +0.209 HD
ENDBRANCH  23  24
ENDBRANCH  22  23
ENDBRANCH  17  22
ENDBRANCH  16  17
ENDBRANCH   1  13
BRANCH   1  26
ATOM     26  C   UNL     1       0.337  -2.062  -1.824  0.00  0.00    -0.017 A 
ATOM     27  C   UNL     1       1.033  -1.913  -3.029  0.00  0.00    +0.010 A 
ATOM     28  C   UNL     1       2.028  -2.806  -3.361  0.00  0.00    +0.020 A 
ATOM     29  C   UNL     1       2.334  -3.857  -2.510  0.00  0.00    +0.041 A 
ATOM     30  C   UNL     1       1.645  -4.014  -1.317  0.00  0.00    +0.020 A 
ATOM     31  C   UNL     1       0.650  -3.126  -0.970  0.00  0.00    +0.010 A 
ATOM     32 CL   UNL     1       3.585  -4.981  -2.939  0.00  0.00    -0.084 Cl
ENDBRANCH   1  26
BRANCH   6  33
ATOM     33  C   UNL     1      -0.508   5.189  -0.603  0.00  0.00    +0.144 C 
BRANCH  33  34
ATOM     34  C   UNL     1      -0.165   6.118  -1.768  0.00  0.00    +0.177 C 
BRANCH  34  35
ATOM     35  O   UNL     1      -0.219   5.385  -2.994  0.00  0.00    -0.393 OA
ATOM     36  H   UNL     1      -0.012   5.913  -3.777  0.00  0.00    +0.209 HD
ENDBRANCH  34  35
ENDBRANCH  33  34
ENDBRANCH   6  33
BRANCH   6  37
ATOM     37  C   UNL     1       1.890   4.527  -0.101  0.00  0.00    +0.144 C 
BRANCH  37  38
ATOM     38  C   UNL     1       1.879   5.908   0.556  0.00  0.00    +0.177 C 
BRANCH  38  39
ATOM     39  O   UNL     1       1.148   5.846   1.783  0.00  0.00    -0.393 OA
ATOM     40  H   UNL     1       1.100   6.689   2.255  0.00  0.00    +0.209 HD
ENDBRANCH  38  39
ENDBRANCH  37  38
ENDBRANCH   6  37
TORSDOF 15
