REMARK  Name = ZINC43223162
REMARK  7 active torsions:
REMARK  status: ('A' for Active; 'I' for Inactive)
REMARK    1  A    between atoms: C_4  and  C_7
REMARK    2  A    between atoms: C_10  and  N_12
REMARK    3  A    between atoms: C_13  and  C_15
REMARK    4  A    between atoms: C_20  and  C_22
REMARK    5  A    between atoms: N_24  and  C_25
REMARK    6  A    between atoms: C_25  and  C_26
REMARK    7  A    between atoms: C_31  and  C_32
REMARK                            x       y       z     vdW  Elec       q    Type
REMARK                         _______ _______ _______ _____ _____    ______ ____
ROOT
ATOM      1  C   UNL     1       7.028  -2.198  -3.472  0.00  0.00    +0.068 C 
ATOM      2  C   UNL     1       7.793  -3.288  -2.693  0.00  0.00    -0.069 C 
ATOM      3  N   UNL     1       7.677  -4.504  -3.538  0.00  0.00    +0.380 N 
ATOM      4  C   UNL     1       7.828  -3.999  -4.927  0.00  0.00    -0.069 C 
ATOM      5  C   UNL     1       7.050  -2.663  -4.943  0.00  0.00    +0.068 C 
ATOM      6  H   UNL     1       8.413  -5.158  -3.319  0.00  0.00    -0.086 HD
ATOM      7  H   UNL     1       6.773  -4.934  -3.416  0.00  0.00    -0.086 HD
ENDROOT
BRANCH   1   9
ATOM      8  N   UNL     1       5.363  -1.736  -1.702  0.00  0.00    -0.312 N 
ATOM      9  C   UNL     1       5.608  -2.099  -2.976  0.00  0.00    +0.215 C 
ATOM     10  O   UNL     1       4.686  -2.346  -3.724  0.00  0.00    -0.276 OA
ATOM     11  H   UNL     1       6.101  -1.538  -1.104  0.00  0.00    +0.149 HD
BRANCH   8  14
ATOM     12  C   UNL     1       3.711  -0.707  -0.038  0.00  0.00    +0.041 C 
ATOM     13  C   UNL     1       3.675  -2.224   0.162  0.00  0.00    +0.033 C 
ATOM     14  C   UNL     1       3.983  -1.640  -1.219  0.00  0.00    +0.081 C 
BRANCH  12  18
ATOM     15  C   UNL     1      -0.017   1.378   0.010  0.00  0.00    +0.000 A 
ATOM     16  C   UNL     1       1.171   2.086   0.002  0.00  0.00    +0.000 A 
ATOM     17  C   UNL     1       2.377   1.411  -0.013  0.00  0.00    +0.004 A 
ATOM     18  C   UNL     1       2.396   0.029  -0.020  0.00  0.00    -0.042 A 
ATOM     19  C   UNL     1       1.208  -0.679  -0.012  0.00  0.00    +0.004 A 
ATOM     20  C   UNL     1       0.002  -0.004   0.002  0.00  0.00    +0.000 A 
ENDBRANCH  12  18
ENDBRANCH   8  14
ENDBRANCH   1   9
BRANCH   5  21
ATOM     21  C   UNL     1       7.763  -1.650  -5.801  0.00  0.00    +0.215 C 
ATOM     22  O   UNL     1       8.218  -0.643  -5.300  0.00  0.00    -0.276 OA
ATOM     23  N   UNL     1       7.896  -1.862  -7.125  0.00  0.00    -0.311 N 
ATOM     24  H   UNL     1       7.532  -2.667  -7.526  0.00  0.00    +0.149 HD
BRANCH  23  25
ATOM     25  C   UNL     1       8.590  -0.878  -7.960  0.00  0.00    +0.140 C 
BRANCH  25  26
ATOM     26  C   UNL     1       8.600  -1.350  -9.391  0.00  0.00    -0.019 A 
ATOM     27  C   UNL     1       9.729  -1.958  -9.909  0.00  0.00    +0.006 A 
ATOM     28  C   UNL     1       9.739  -2.391 -11.222  0.00  0.00    +0.000 A 
ATOM     29  C   UNL     1       8.620  -2.217 -12.016  0.00  0.00    +0.001 A 
ATOM     30  C   UNL     1       7.492  -1.611 -11.497  0.00  0.00    +0.013 A 
ATOM     31  C   UNL     1       7.480  -1.181 -10.183  0.00  0.00    +0.059 A 
BRANCH  31  32
ATOM     32  C   UNL     1       6.248  -0.524  -9.615  0.00  0.00    +0.418 C 
ATOM     33  F   UNL     1       5.255  -0.467 -10.599  0.00  0.00    -0.166 F 
ATOM     34  F   UNL     1       5.783  -1.269  -8.526  0.00  0.00    -0.166 F 
ATOM     35  F   UNL     1       6.563   0.772  -9.194  0.00  0.00    -0.166 F 
ENDBRANCH  31  32
ENDBRANCH  25  26
ENDBRANCH  23  25
ENDBRANCH   5  21
TORSDOF 7
