REMARK  Name = ZINC44289843
REMARK  6 active torsions:
REMARK  status: ('A' for Active; 'I' for Inactive)
REMARK    1  A    between atoms: C_1  and  N_2
REMARK    2  A    between atoms: C_3  and  C_5
REMARK    3  A    between atoms: C_8  and  C_11
REMARK    4  A    between atoms: C_12  and  C_13
REMARK    5  A    between atoms: N_15  and  N_16
REMARK    6  A    between atoms: C_17  and  C_19
REMARK                            x       y       z     vdW  Elec       q    Type
REMARK                         _______ _______ _______ _____ _____    ______ ____
ROOT
ATOM      1  C   UNL     1       1.272  -8.516  -2.073  0.00  0.00    +0.253 C 
ATOM      2  O   UNL     1       0.759  -9.136  -1.161  0.00  0.00    -0.269 OA
ATOM      3  N   UNL     1       1.860  -9.176  -3.091  0.00  0.00    -0.231 N 
ATOM      4  H   UNL     1       2.269  -8.681  -3.818  0.00  0.00    +0.173 HD
ENDROOT
BRANCH   3   5
ATOM      5  N   UNL     1       1.880 -10.577  -3.098  0.00  0.00    -0.230 N 
ATOM      6  C   UNL     1       2.468 -11.237  -4.115  0.00  0.00    +0.267 C 
ATOM      7  O   UNL     1       2.981 -10.617  -5.027  0.00  0.00    -0.268 OA
ATOM      8  H   UNL     1       1.471 -11.072  -2.371  0.00  0.00    +0.173 HD
BRANCH   6   9
ATOM      9  C   UNL     1       2.489 -12.703  -4.122  0.00  0.00    +0.076 A 
ATOM     10  C   UNL     1       3.037 -13.562  -5.054  0.00  0.00    +0.024 A 
ATOM     11  C   UNL     1       2.909 -14.926  -4.809  0.00  0.00    -0.036 A 
ATOM     12  C   UNL     1       2.253 -15.278  -3.671  0.00  0.00    -0.006 A 
ATOM     13  S   UNL     1       1.820 -13.844  -2.927  0.00  0.00    -0.088 S 
ATOM     14  C   UNL     1       1.967 -16.662  -3.166  0.00  0.00    +0.043 C 
ATOM     15  C   UNL     1       3.055 -17.621  -3.661  0.00  0.00    +0.005 C 
ATOM     16  C   UNL     1       2.631 -18.184  -5.013  0.00  0.00    +0.001 C 
ATOM     17  C   UNL     1       2.468 -17.061  -6.035  0.00  0.00    +0.005 C 
ATOM     18  C   UNL     1       3.485 -15.955  -5.777  0.00  0.00    +0.036 C 
ENDBRANCH   6   9
ENDBRANCH   3   5
BRANCH   1  20
ATOM     19  C   UNL     1       0.664  -6.389  -1.049  0.00  0.00    +0.013 C 
ATOM     20  C   UNL     1       1.252  -7.050  -2.066  0.00  0.00    +0.069 C 
BRANCH  19  24
ATOM     21  C   UNL     1       0.605  -2.143  -1.026  0.00  0.00    +0.037 A 
ATOM     22  C   UNL     1       0.015  -2.855   0.021  0.00  0.00    +0.013 A 
ATOM     23  C   UNL     1       0.033  -4.231   0.014  0.00  0.00    +0.008 A 
ATOM     24  C   UNL     1       0.643  -4.917  -1.041  0.00  0.00    -0.025 A 
ATOM     25  C   UNL     1       1.234  -4.203  -2.089  0.00  0.00    +0.008 A 
ATOM     26  C   UNL     1       1.210  -2.827  -2.083  0.00  0.00    +0.013 A 
BRANCH  21  29
ATOM     27  C   UNL     1      -0.018   1.461   0.010  0.00  0.00    +0.128 C 
ATOM     28  N   UNL     1       0.002  -0.004   0.002  0.00  0.00    -0.314 N 
ATOM     29  C   UNL     1       0.585  -0.664  -1.018  0.00  0.00    +0.244 C 
ATOM     30  O   UNL     1       1.094  -0.045  -1.931  0.00  0.00    -0.270 OA
ATOM     31  H   UNL     1      -0.404  -0.499   0.731  0.00  0.00    +0.149 HD
ENDBRANCH  21  29
ENDBRANCH  19  24
ENDBRANCH   1  20
TORSDOF 5
