REMARK  Name = ZINC08626879
REMARK  7 active torsions:
REMARK  status: ('A' for Active; 'I' for Inactive)
REMARK    1  A    between atoms: C_4  and  C_7
REMARK    2  A    between atoms: C_8  and  C_18
REMARK    3  A    between atoms: N_10  and  C_12
REMARK    4  A    between atoms: C_19  and  C_20
REMARK    5  A    between atoms: C_19  and  N_24
REMARK    6  A    between atoms: N_22  and  N_23
REMARK    7  A    between atoms: C_25  and  C_27
REMARK                            x       y       z     vdW  Elec       q    Type
REMARK                         _______ _______ _______ _____ _____    ______ ____
ROOT
ATOM      1  C   UNL     1       2.573   1.971   0.125  0.00  0.00    +0.040 C 
ATOM      2  C   UNL     1       3.533   2.902  -0.089  0.00  0.00    +0.098 C 
ENDROOT
BRANCH   1   4
ATOM      3  C   UNL     1      -0.005   1.525   0.340  0.00  0.00    +0.100 A 
ATOM      4  C   UNL     1       1.181   2.388   0.342  0.00  0.00    +0.023 A 
ATOM      5  C   UNL     1       0.731   3.670   0.589  0.00  0.00    +0.123 A 
ATOM      6  N   UNL     1      -0.608   3.616   0.728  0.00  0.00    -0.239 N 
ATOM      7  N   UNL     1      -1.044   2.298   0.568  0.00  0.00    -0.166 NA
BRANCH   3  11
ATOM      8  C   UNL     1      -0.073  -2.677  -0.299  0.00  0.00    +0.000 A 
ATOM      9  C   UNL     1      -0.965  -2.100   0.588  0.00  0.00    +0.001 A 
ATOM     10  C   UNL     1      -0.947  -0.737   0.800  0.00  0.00    +0.010 A 
ATOM     11  C   UNL     1      -0.029   0.060   0.117  0.00  0.00    +0.003 A 
ATOM     12  C   UNL     1       0.863  -0.526  -0.780  0.00  0.00    +0.010 A 
ATOM     13  C   UNL     1       0.840  -1.891  -0.979  0.00  0.00    +0.001 A 
ENDBRANCH   3  11
BRANCH   6  14
ATOM     14  C   UNL     1      -1.438   4.715   0.987  0.00  0.00    +0.065 A 
ATOM     15  C   UNL     1      -0.890   5.983   1.126  0.00  0.00    +0.028 A 
ATOM     16  C   UNL     1      -1.711   7.065   1.377  0.00  0.00    +0.002 A 
ATOM     17  C   UNL     1      -3.076   6.885   1.500  0.00  0.00    +0.000 A 
ATOM     18  C   UNL     1      -3.625   5.622   1.366  0.00  0.00    +0.002 A 
ATOM     19  C   UNL     1      -2.810   4.537   1.110  0.00  0.00    +0.028 A 
ENDBRANCH   6  14
ENDBRANCH   1   4
BRANCH   2  20
ATOM     20  C   UNL     1       3.194   4.328  -0.050  0.00  0.00    +0.272 C 
ATOM     21  O   UNL     1       2.852   4.901  -1.067  0.00  0.00    -0.268 OA
ATOM     22  N   UNL     1       3.261   5.005   1.114  0.00  0.00    -0.249 N 
ATOM     23  H   UNL     1       3.602   4.568   1.910  0.00  0.00    +0.169 HD
BRANCH  22  24
ATOM     24  N   UNL     1       2.849   6.306   1.173  0.00  0.00    -0.254 NA
ATOM     25  H   UNL     1       2.958   6.678   2.104  0.00  0.00    +0.140 HD
ATOM     26  H   UNL     1       3.341   6.872   0.497  0.00  0.00    +0.140 HD
ENDBRANCH  22  24
ENDBRANCH   2  20
BRANCH   2  27
ATOM     27  N   UNL     1       4.851   2.503  -0.349  0.00  0.00    -0.277 N 
ATOM     28  C   UNL     1       5.785   3.422  -0.663  0.00  0.00    +0.250 C 
ATOM     29  O   UNL     1       5.500   4.605  -0.655  0.00  0.00    -0.270 OA
ATOM     30  H   UNL     1       5.091   1.564  -0.303  0.00  0.00    +0.155 HD
BRANCH  28  31
ATOM     31  C   UNL     1       7.153   2.994  -1.017  0.00  0.00    +0.055 A 
ATOM     32  C   UNL     1       7.483   1.637  -1.027  0.00  0.00    +0.016 A 
ATOM     33  C   UNL     1       8.762   1.244  -1.358  0.00  0.00    +0.021 A 
ATOM     34  C   UNL     1       9.720   2.191  -1.681  0.00  0.00    +0.042 A 
ATOM     35  C   UNL     1       9.401   3.538  -1.673  0.00  0.00    +0.040 A 
ATOM     36  C   UNL     1       8.122   3.945  -1.349  0.00  0.00    +0.054 A 
ATOM     37 CL   UNL     1       7.721   5.634  -1.347  0.00  0.00    -0.083 Cl
ATOM     38 CL   UNL     1      11.328   1.686  -2.098  0.00  0.00    -0.083 Cl
ENDBRANCH  28  31
ENDBRANCH   2  27
TORSDOF 7
