REMARK  Name = ZINC13132283
REMARK  4 active torsions:
REMARK  status: ('A' for Active; 'I' for Inactive)
REMARK    1  A    between atoms: C_1  and  O_2
REMARK    2  A    between atoms: O_2  and  C_3
REMARK    3  A    between atoms: C_8  and  C_9
REMARK    4  A    between atoms: C_12  and  C_21
REMARK                            x       y       z     vdW  Elec       q    Type
REMARK                         _______ _______ _______ _____ _____    ______ ____
ROOT
ATOM      1  C   UNL     1       0.018  -2.829  -0.013  0.00  0.00    +0.146 C 
ATOM      2  C   UNL     1       0.052  -3.712  -1.266  0.00  0.00    +0.059 C 
ATOM      3  C   UNL     1       1.196  -4.726  -1.154  0.00  0.00    +0.107 C 
ATOM      4  N   UNL     1       0.939  -5.601   0.007  0.00  0.00    -0.307 N 
ATOM      5  C   UNL     1       0.499  -4.972   1.164  0.00  0.00    +0.216 A 
ATOM      6  N   UNL     1       0.072  -3.684   1.173  0.00  0.00    -0.224 N 
ATOM      7  N   UNL     1      -0.283  -3.388   2.489  0.00  0.00    -0.132 NA
ATOM      8  C   UNL     1      -0.062  -4.474   3.195  0.00  0.00    +0.233 A 
ATOM      9  N   UNL     1       0.410  -5.437   2.381  0.00  0.00    -0.180 NA
ATOM     10  N   UNL     1      -0.286  -4.609   4.566  0.00  0.00    -0.326 N 
ATOM     11  H   UNL     1       1.069  -6.561  -0.037  0.00  0.00    +0.149 HD
ATOM     12  H   UNL     1      -0.633  -3.861   5.077  0.00  0.00    +0.145 HD
ATOM     13  H   UNL     1      -0.095  -5.451   5.008  0.00  0.00    +0.145 HD
ENDROOT
BRANCH   3  14
ATOM     14  C   UNL     1       2.501  -3.997  -0.962  0.00  0.00    -0.009 A 
ATOM     15  C   UNL     1       3.054  -3.889   0.300  0.00  0.00    +0.008 A 
ATOM     16  C   UNL     1       4.250  -3.220   0.477  0.00  0.00    +0.020 A 
ATOM     17  C   UNL     1       4.896  -2.659  -0.611  0.00  0.00    +0.042 A 
ATOM     18  C   UNL     1       4.344  -2.767  -1.874  0.00  0.00    +0.040 A 
ATOM     19  C   UNL     1       3.149  -3.441  -2.051  0.00  0.00    +0.047 A 
ATOM     20 CL   UNL     1       2.458  -3.583  -3.638  0.00  0.00    -0.083 Cl
ATOM     21 CL   UNL     1       6.399  -1.818  -0.389  0.00  0.00    -0.083 Cl
ENDBRANCH   3  14
BRANCH   1  27
ATOM     22  C   UNL     1      -1.200  -0.637   0.010  0.00  0.00    +0.125 A 
ATOM     23  C   UNL     1      -2.375   0.101   0.019  0.00  0.00    +0.046 A 
ATOM     24  C   UNL     1      -3.596  -0.545   0.027  0.00  0.00    +0.004 A 
ATOM     25  C   UNL     1      -3.648  -1.927   0.026  0.00  0.00    +0.001 A 
ATOM     26  C   UNL     1      -2.479  -2.665   0.017  0.00  0.00    +0.009 A 
ATOM     27  C   UNL     1      -1.255  -2.023   0.003  0.00  0.00    +0.019 A 
BRANCH  22  29
ATOM     28  C   UNL     1      -0.017   1.425   0.010  0.00  0.00    +0.277 C 
ATOM     29  O   UNL     1       0.002  -0.004   0.002  0.00  0.00    -0.495 OA
ENDBRANCH  22  29
ENDBRANCH   1  27
TORSDOF 3
