REMARK  Name = ZINC23710175
REMARK  7 active torsions:
REMARK  status: ('A' for Active; 'I' for Inactive)
REMARK    1  A    between atoms: C_1  and  O_2
REMARK    2  A    between atoms: O_2  and  C_3
REMARK    3  A    between atoms: C_6  and  S_22
REMARK    4  A    between atoms: C_8  and  C_9
REMARK    5  A    between atoms: N_11  and  N_12
REMARK    6  A    between atoms: N_12  and  C_13
REMARK    7  A    between atoms: S_22  and  N_25
REMARK                            x       y       z     vdW  Elec       q    Type
REMARK                         _______ _______ _______ _____ _____    ______ ____
ROOT
ATOM      1  C   UNL     1      -4.787   3.862  -0.444  0.00  0.00    +0.264 C 
ATOM      2  O   UNL     1      -4.812   5.045  -0.165  0.00  0.00    -0.269 OA
ATOM      3  N   UNL     1      -3.630   3.175  -0.362  0.00  0.00    -0.232 N 
ATOM      4  H   UNL     1      -3.607   2.105  -0.614  0.00  0.00    +0.173 HD
ENDROOT
BRANCH   1  10
ATOM      5  C   UNL     1      -7.228   3.888  -0.954  0.00  0.00    +0.132 A 
ATOM      6  C   UNL     1      -8.382   3.237  -1.363  0.00  0.00    +0.048 A 
ATOM      7  C   UNL     1      -8.344   1.893  -1.677  0.00  0.00    +0.032 A 
ATOM      8  C   UNL     1      -7.154   1.187  -1.593  0.00  0.00    +0.106 A 
ATOM      9  C   UNL     1      -5.997   1.819  -1.194  0.00  0.00    +0.045 A 
ATOM     10  C   UNL     1      -6.022   3.179  -0.872  0.00  0.00    +0.082 A 
BRANCH   8  11
ATOM     11  S   UNL     1      -7.122  -0.527  -1.999  0.00  0.00    +0.056 S 
ATOM     12  O   UNL     1      -8.221  -0.760  -2.868  0.00  0.00    -0.153 OA
ATOM     13  O   UNL     1      -5.783  -0.833  -2.364  0.00  0.00    -0.153 OA
BRANCH  11  14
ATOM     14  N   UNL     1      -7.435  -1.366  -0.605  0.00  0.00    -0.204 NA
ATOM     15  H   UNL     1      -7.423  -2.445  -0.817  0.00  0.00    +0.144 HD
ATOM     16  H   UNL     1      -8.424  -1.078  -0.219  0.00  0.00    +0.144 HD
ENDBRANCH  11  14
ENDBRANCH   8  11
BRANCH   5  18
ATOM     17  C   UNL     1      -8.530   5.864  -0.744  0.00  0.00    +0.277 C 
ATOM     18  O   UNL     1      -7.265   5.207  -0.638  0.00  0.00    -0.494 OA
ENDBRANCH   5  18
ENDBRANCH   1  10
BRANCH   3  19
ATOM     19  N   UNL     1      -2.457   3.824   0.045  0.00  0.00    -0.261 N 
ATOM     20  H   UNL     1      -2.497   4.869   0.386  0.00  0.00    +0.170 HD
BRANCH  19  21
ATOM     21  C   UNL     1      -1.235   3.143   0.017  0.00  0.00    +0.081 A 
ATOM     22  C   UNL     1      -0.969   2.232  -0.997  0.00  0.00    +0.066 A 
ATOM     23  C   UNL     1       0.237   1.556  -1.019  0.00  0.00    +0.042 A 
ATOM     24  C   UNL     1       1.183   1.796  -0.038  0.00  0.00    +0.044 A 
ATOM     25  C   UNL     1       0.924   2.708   0.970  0.00  0.00    +0.042 A 
ATOM     26  C   UNL     1      -0.282   3.382   1.000  0.00  0.00    +0.066 A 
ATOM     27 CL   UNL     1      -0.607   4.526   2.265  0.00  0.00    -0.081 Cl
ATOM     28 CL   UNL     1       2.700   0.952  -0.073  0.00  0.00    -0.083 Cl
ATOM     29 CL   UNL     1      -2.153   1.935  -2.231  0.00  0.00    -0.081 Cl
ENDBRANCH  19  21
ENDBRANCH   3  19
TORSDOF 6
