REMARK  Name = ZINC13064452
REMARK  12 active torsions:
REMARK  status: ('A' for Active; 'I' for Inactive)
REMARK    1  A    between atoms: C_1  and  C_2
REMARK    2  A    between atoms: C_2  and  C_3
REMARK    3  A    between atoms: C_3  and  C_5
REMARK    4  A    between atoms: C_3  and  N_67
REMARK    5  A    between atoms: N_9  and  C_10
REMARK    6  A    between atoms: C_10  and  C_11
REMARK    7  A    between atoms: C_17  and  C_18
REMARK    8  A    between atoms: C_17  and  N_67
REMARK    9  A    between atoms: C_18  and  C_19
REMARK   10  A    between atoms: C_19  and  O_20
REMARK   11  A    between atoms: C_21  and  C_22
REMARK   12  A    between atoms: C_21  and  N_67
REMARK                            x       y       z     vdW  Elec       q    Type
REMARK                         _______ _______ _______ _____ _____    ______ ____
ROOT
ATOM      1  N   UNL     1       0.224   1.223   2.366  0.00  0.00    +0.389 N 
ATOM      2  H   UNL     1       1.087   1.660   2.023  0.00  0.00    -0.080 HD
ENDROOT
BRANCH   1   3
ATOM      3  C   UNL     1       0.001   1.636   3.768  0.00  0.00    +0.003 C 
BRANCH   3   4
ATOM      4  C   UNL     1      -1.184   0.909   4.350  0.00  0.00    +0.138 A 
ATOM      5  N   UNL     1      -1.397  -0.384   4.328  0.00  0.00    -0.115 NA
ATOM      6  N   UNL     1      -2.514  -0.613   4.928  0.00  0.00    -0.023 NA
ATOM      7  N   UNL     1      -3.019   0.500   5.333  0.00  0.00    -0.044 NA
ATOM      8  N   UNL     1      -2.225   1.462   5.001  0.00  0.00    -0.228 N 
BRANCH   8   9
ATOM      9  C   UNL     1      -2.422   2.887   5.276  0.00  0.00    +0.178 C 
BRANCH   9  10
ATOM     10  C   UNL     1      -3.195   3.527   4.122  0.00  0.00    +0.140 C 
ATOM     11  C   UNL     1      -3.308   5.050   4.348  0.00  0.00    +0.035 C 
ATOM     12  C   UNL     1      -4.754   5.349   3.866  0.00  0.00    +0.031 C 
ATOM     13  C   UNL     1      -5.480   4.048   4.291  0.00  0.00    +0.160 C 
ATOM     14  O   UNL     1      -4.525   2.997   4.074  0.00  0.00    -0.375 OA
ENDBRANCH   9  10
ENDBRANCH   8   9
ENDBRANCH   3   4
BRANCH   3  16
ATOM     15  C   UNL     1       2.430   2.135   4.065  0.00  0.00    +0.002 C 
ATOM     16  C   UNL     1       1.252   1.310   4.585  0.00  0.00    -0.011 C 
ENDBRANCH   3  16
ENDBRANCH   1   3
BRANCH   1  17
ATOM     17  C   UNL     1      -0.907   1.665   1.523  0.00  0.00    -0.075 C 
BRANCH  17  18
ATOM     18  C   UNL     1      -0.857   3.188   1.391  0.00  0.00    +0.009 C 
BRANCH  18  19
ATOM     19  C   UNL     1      -1.922   3.649   0.394  0.00  0.00    +0.154 C 
BRANCH  19  20
ATOM     20  O   UNL     1      -1.876   5.072   0.271  0.00  0.00    -0.395 OA
ATOM     21  H   UNL     1      -2.525   5.435  -0.346  0.00  0.00    +0.209 HD
ENDBRANCH  19  20
ENDBRANCH  18  19
ENDBRANCH  17  18
ENDBRANCH   1  17
BRANCH   1  22
ATOM     22  C   UNL     1       0.367  -0.246   2.290  0.00  0.00    -0.037 C 
BRANCH  22  23
ATOM     23  C   UNL     1       1.058  -0.597   0.997  0.00  0.00    +0.001 A 
ATOM     24  C   UNL     1       2.408  -0.738   0.969  0.00  0.00    +0.017 A 
ATOM     25  C   UNL     1       3.048  -1.084  -0.300  0.00  0.00    +0.002 A 
ATOM     26  C   UNL     1       4.436  -1.247  -0.388  0.00  0.00    +0.059 A 
ATOM     27  C   UNL     1       5.012  -1.569  -1.599  0.00  0.00    +0.163 A 
ATOM     28  C   UNL     1       4.216  -1.732  -2.736  0.00  0.00    +0.164 A 
ATOM     29  C   UNL     1       2.843  -1.573  -2.658  0.00  0.00    +0.075 A 
ATOM     30  C   UNL     1       2.247  -1.248  -1.446  0.00  0.00    +0.053 A 
ATOM     31  N   UNL     1       0.880  -1.084  -1.351  0.00  0.00    -0.322 N 
ATOM     32  H   UNL     1       0.329  -1.196  -2.142  0.00  0.00    +0.169 HD
ATOM     33  C   UNL     1       0.301  -0.771  -0.179  0.00  0.00    +0.251 A 
ATOM     34  O   UNL     1      -0.909  -0.634  -0.132  0.00  0.00    -0.268 OA
ATOM     35  O   UNL     1       4.776  -2.054  -3.933  0.00  0.00    -0.485 OA
ATOM     36  C   UNL     1       6.186  -1.840  -4.063  0.00  0.00    +0.270 C 
ATOM     37  C   UNL     1       6.875  -2.409  -2.815  0.00  0.00    +0.270 C 
ATOM     38  O   UNL     1       6.364  -1.721  -1.669  0.00  0.00    -0.485 OA
ENDBRANCH  22  23
ENDBRANCH   1  22
TORSDOF 11
