REMARK  Name = ZINC39695267
REMARK  8 active torsions:
REMARK  status: ('A' for Active; 'I' for Inactive)
REMARK    1  A    between atoms: C_1  and  C_2
REMARK    2  A    between atoms: C_2  and  C_3
REMARK    3  A    between atoms: C_3  and  C_5
REMARK    4  A    between atoms: C_3  and  N_11
REMARK    5  A    between atoms: C_12  and  C_14
REMARK    6  A    between atoms: C_25  and  C_27
REMARK    7  A    between atoms: C_28  and  C_39
REMARK    8  A    between atoms: C_31  and  C_32
REMARK                            x       y       z     vdW  Elec       q    Type
REMARK                         _______ _______ _______ _____ _____    ______ ____
ROOT
ATOM      1  C   UNL     1      -3.261   1.435   2.824  0.00  0.00    +0.100 C 
ATOM      2  C   UNL     1      -2.152   1.753   3.851  0.00  0.00    +0.121 C 
ATOM      3  N   UNL     1      -1.957   3.218   3.751  0.00  0.00    -0.296 N 
ATOM      4  C   UNL     1      -3.326   3.762   3.585  0.00  0.00    +0.115 C 
ATOM      5  C   UNL     1      -4.032   2.755   2.655  0.00  0.00    -0.004 C 
ATOM      6  C   UNL     1      -5.487   2.575   3.078  0.00  0.00    -0.010 C 
ATOM      7  C   UNL     1      -6.247   3.885   2.846  0.00  0.00    -0.082 C 
ATOM      8  N   UNL     1      -6.171   4.252   1.427  0.00  0.00    +0.379 N 
ATOM      9  C   UNL     1      -4.777   4.513   1.051  0.00  0.00    -0.082 C 
ATOM     10  C   UNL     1      -3.954   3.231   1.208  0.00  0.00    -0.010 C 
ATOM     11  C   UNL     1      -0.797   3.903   3.800  0.00  0.00    +0.252 C 
ATOM     12  O   UNL     1      -0.808   5.119   3.792  0.00  0.00    -0.270 OA
ATOM     13  H   UNL     1      -6.533   3.495   0.865  0.00  0.00    -0.086 HD
ATOM     14  H   UNL     1      -6.723   5.081   1.265  0.00  0.00    -0.086 HD
ENDROOT
BRANCH  11  15
ATOM     15  C   UNL     1       0.483   3.178   3.865  0.00  0.00    +0.106 A 
ATOM     16  C   UNL     1       1.300   2.874   2.815  0.00  0.00    +0.147 A 
ATOM     17  O   UNL     1       2.360   2.214   3.287  0.00  0.00    -0.359 OA
ATOM     18  N   UNL     1       2.245   2.076   4.689  0.00  0.00    -0.077 NA
ATOM     19  C   UNL     1       1.132   2.648   5.074  0.00  0.00    +0.127 A 
ATOM     20  C   UNL     1       1.047   3.223   1.371  0.00  0.00    +0.090 C 
BRANCH  19  21
ATOM     21  C   UNL     1       0.621   2.741   6.463  0.00  0.00    +0.023 A 
ATOM     22  C   UNL     1      -0.592   3.377   6.721  0.00  0.00    +0.011 A 
ATOM     23  C   UNL     1      -1.062   3.461   8.015  0.00  0.00    +0.001 A 
ATOM     24  C   UNL     1      -0.332   2.916   9.057  0.00  0.00    +0.001 A 
ATOM     25  C   UNL     1       0.872   2.284   8.808  0.00  0.00    +0.020 A 
ATOM     26  C   UNL     1       1.350   2.188   7.515  0.00  0.00    +0.050 A 
ATOM     27 CL   UNL     1       2.859   1.388   7.203  0.00  0.00    -0.083 Cl
ENDBRANCH  19  21
ENDBRANCH  11  15
BRANCH   1  29
ATOM     28  N   UNL     1      -3.368   0.252   0.655  0.00  0.00    -0.308 N 
ATOM     29  C   UNL     1      -2.655   1.010   1.512  0.00  0.00    +0.219 C 
ATOM     30  O   UNL     1      -1.527   1.350   1.226  0.00  0.00    -0.275 OA
ATOM     31  H   UNL     1      -4.239  -0.087   0.915  0.00  0.00    +0.149 HD
BRANCH  28  32
ATOM     32  C   UNL     1      -2.826  -0.062  -0.670  0.00  0.00    +0.103 C 
BRANCH  32  33
ATOM     33  C   UNL     1      -3.912   0.087  -1.704  0.00  0.00    -0.027 A 
ATOM     34  C   UNL     1      -5.197  -0.337  -1.424  0.00  0.00    +0.005 A 
ATOM     35  C   UNL     1      -6.193  -0.200  -2.373  0.00  0.00    +0.000 A 
ATOM     36  C   UNL     1      -5.904   0.362  -3.602  0.00  0.00    +0.000 A 
ATOM     37  C   UNL     1      -4.619   0.788  -3.882  0.00  0.00    +0.000 A 
ATOM     38  C   UNL     1      -3.624   0.654  -2.932  0.00  0.00    +0.005 A 
ENDBRANCH  32  33
BRANCH  32  40
ATOM     39  C   UNL     1      -1.126  -1.624   0.285  0.00  0.00    +0.006 C 
ATOM     40  C   UNL     1      -2.306  -1.501  -0.681  0.00  0.00    +0.024 C 
ENDBRANCH  32  40
ENDBRANCH  28  32
ENDBRANCH   1  29
TORSDOF 6
