REMARK  Name = ZINC39684215
REMARK  6 active torsions:
REMARK  status: ('A' for Active; 'I' for Inactive)
REMARK    1  A    between atoms: C_1  and  C_2
REMARK    2  A    between atoms: C_7  and  C_11
REMARK    3  A    between atoms: C_11  and  C_12
REMARK    4  A    between atoms: C_12  and  N_13
REMARK    5  A    between atoms: C_14  and  C_16
REMARK    6  A    between atoms: C_27  and  C_29
REMARK                            x       y       z     vdW  Elec       q    Type
REMARK                         _______ _______ _______ _____ _____    ______ ____
ROOT
ATOM      1  C   UNL     1      -8.675   2.438  -6.877  0.00  0.00    +0.100 C 
ATOM      2  C   UNL     1      -9.772   2.369  -5.790  0.00  0.00    +0.121 C 
ATOM      3  N   UNL     1     -10.979   1.894  -6.506  0.00  0.00    -0.300 N 
ATOM      4  C   UNL     1     -10.469   0.874  -7.452  0.00  0.00    +0.115 C 
ATOM      5  C   UNL     1      -9.136   1.454  -7.965  0.00  0.00    -0.004 C 
ATOM      6  C   UNL     1      -8.108   0.341  -8.141  0.00  0.00    -0.010 C 
ATOM      7  C   UNL     1      -8.560  -0.592  -9.268  0.00  0.00    -0.082 C 
ATOM      8  N   UNL     1      -8.698   0.174 -10.513  0.00  0.00    +0.379 N 
ATOM      9  C   UNL     1      -9.755   1.183 -10.366  0.00  0.00    -0.082 C 
ATOM     10  C   UNL     1      -9.354   2.190  -9.284  0.00  0.00    -0.010 C 
ATOM     11  C   UNL     1     -12.253   2.299  -6.335  0.00  0.00    +0.219 C 
ATOM     12  O   UNL     1     -12.504   3.207  -5.571  0.00  0.00    -0.275 OA
ATOM     13  H   UNL     1      -7.824   0.632 -10.723  0.00  0.00    -0.086 HD
ATOM     14  H   UNL     1      -8.937  -0.453 -11.267  0.00  0.00    -0.086 HD
ENDROOT
BRANCH  11  15
ATOM     15  C   UNL     1     -13.367   1.623  -7.094  0.00  0.00    +0.079 C 
ATOM     16  C   UNL     1     -14.548   2.590  -7.245  0.00  0.00    +0.017 C 
ATOM     17  C   UNL     1     -15.586   1.945  -8.167  0.00  0.00    +0.027 C 
ATOM     18  C   UNL     1     -15.874   0.542  -7.719  0.00  0.00    -0.031 C 
ATOM     19  C   UNL     1     -15.114  -0.135  -6.919  0.00  0.00    -0.030 C 
ATOM     20  C   UNL     1     -13.840   0.390  -6.322  0.00  0.00    +0.039 C 
ENDBRANCH  11  15
BRANCH   1  22
ATOM     21  N   UNL     1      -6.203   2.490  -6.834  0.00  0.00    -0.315 N 
ATOM     22  C   UNL     1      -7.347   2.008  -6.310  0.00  0.00    +0.218 C 
ATOM     23  O   UNL     1      -7.307   1.229  -5.381  0.00  0.00    -0.275 OA
ATOM     24  H   UNL     1      -6.234   3.114  -7.577  0.00  0.00    +0.149 HD
BRANCH  21  25
ATOM     25  C   UNL     1      -4.911   2.072  -6.283  0.00  0.00    +0.109 C 
BRANCH  25  26
ATOM     26  C   UNL     1      -3.782   2.760  -7.053  0.00  0.00    +0.056 C 
BRANCH  26  33
ATOM     27  C   UNL     1       1.650   0.126  -5.357  0.00  0.00    +0.046 C 
ATOM     28  C   UNL     1       0.392   0.117  -6.186  0.00  0.00    -0.027 A 
ATOM     29  C   UNL     1       0.153  -0.913  -7.069  0.00  0.00    +0.005 A 
ATOM     30  C   UNL     1      -1.002  -0.932  -7.839  0.00  0.00    +0.001 A 
ATOM     31  C   UNL     1      -1.923   0.072  -7.733  0.00  0.00    +0.010 A 
ATOM     32  C   UNL     1      -1.702   1.125  -6.844  0.00  0.00    +0.003 A 
ATOM     33  C   UNL     1      -2.453   2.330  -6.486  0.00  0.00    -0.021 A 
ATOM     34  C   UNL     1      -1.734   2.980  -5.557  0.00  0.00    +0.087 A 
ATOM     35  N   UNL     1      -0.583   2.289  -5.291  0.00  0.00    -0.360 N 
ATOM     36  C   UNL     1      -0.535   1.147  -6.058  0.00  0.00    +0.050 A 
ATOM     37  H   UNL     1       0.096   2.562  -4.654  0.00  0.00    +0.165 HD
ENDBRANCH  26  33
ENDBRANCH  25  26
ENDBRANCH  21  25
ENDBRANCH   1  22
TORSDOF 5
