REMARK  Name = ZINC42857951
REMARK  7 active torsions:
REMARK  status: ('A' for Active; 'I' for Inactive)
REMARK    1  A    between atoms: C_1  and  C_2
REMARK    2  A    between atoms: C_2  and  C_4
REMARK    3  A    between atoms: C_2  and  N_19
REMARK    4  A    between atoms: N_6  and  C_7
REMARK    5  A    between atoms: C_7  and  C_8
REMARK    6  A    between atoms: C_22  and  C_25
REMARK    7  A    between atoms: C_28  and  O_31
REMARK                            x       y       z     vdW  Elec       q    Type
REMARK                         _______ _______ _______ _____ _____    ______ ____
ROOT
ATOM      1  C   UNL     1      -0.019   1.526   0.010  0.00  0.00    -0.004 C 
ATOM      2  C   UNL     1       0.002  -0.004   0.002  0.00  0.00    +0.016 C 
ENDROOT
BRANCH   2   3
ATOM      3  N   UNL     1       0.690  -0.478  -1.207  0.00  0.00    +0.390 N 
ATOM      4  C   UNL     1      -0.027  -0.001  -2.400  0.00  0.00    -0.073 C 
ATOM      5  C   UNL     1       0.837  -0.280  -3.632  0.00  0.00    +0.017 C 
ATOM      6  C   UNL     1       1.298  -1.711  -3.611  0.00  0.00    -0.048 C 
ATOM      7  C   UNL     1       1.242  -2.452  -2.526  0.00  0.00    -0.041 C 
ATOM      8  C   UNL     1       0.711  -1.945  -1.216  0.00  0.00    -0.050 C 
ATOM      9  H   UNL     1       1.635  -0.127  -1.217  0.00  0.00    -0.080 HD
BRANCH   6  10
ATOM     10  C   UNL     1       1.834  -2.305  -4.854  0.00  0.00    -0.022 A 
ATOM     11  C   UNL     1       3.020  -1.820  -5.407  0.00  0.00    +0.012 A 
ATOM     12  C   UNL     1       3.516  -2.377  -6.566  0.00  0.00    +0.046 A 
ATOM     13  C   UNL     1       2.837  -3.420  -7.183  0.00  0.00    +0.117 A 
ATOM     14  C   UNL     1       1.657  -3.905  -6.636  0.00  0.00    +0.046 A 
ATOM     15  C   UNL     1       1.157  -3.357  -5.474  0.00  0.00    +0.012 A 
BRANCH  13  16
ATOM     16  O   UNL     1       3.329  -3.967  -8.326  0.00  0.00    -0.507 OA
ATOM     17  H   UNL     1       3.933  -4.708  -8.179  0.00  0.00    +0.292 HD
ENDBRANCH  13  16
ENDBRANCH   6  10
ENDBRANCH   2   3
BRANCH   2  18
ATOM     18  C   UNL     1       0.731  -0.503   1.223  0.00  0.00    +0.199 C 
ATOM     19  O   UNL     1       1.725  -1.187   1.099  0.00  0.00    -0.278 OA
ATOM     20  N   UNL     1       0.278  -0.191   2.453  0.00  0.00    -0.313 N 
ATOM     21  H   UNL     1      -0.517   0.356   2.553  0.00  0.00    +0.149 HD
BRANCH  20  22
ATOM     22  C   UNL     1       0.986  -0.676   3.640  0.00  0.00    +0.152 C 
BRANCH  22  23
ATOM     23  C   UNL     1       0.270  -0.182   4.899  0.00  0.00    +0.228 C 
ATOM     24  C   UNL     1       1.016  -0.676   6.146  0.00  0.00    +0.275 C 
ATOM     25  O   UNL     1       0.330  -0.186   7.302  0.00  0.00    -0.485 OA
ATOM     26  C   UNL     1      -0.030   1.127   7.290  0.00  0.00    +0.162 A 
ATOM     27  C   UNL     1      -0.360   1.754   8.482  0.00  0.00    +0.049 A 
ATOM     28  C   UNL     1      -0.730   3.085   8.485  0.00  0.00    +0.004 A 
ATOM     29  C   UNL     1      -0.772   3.796   7.300  0.00  0.00    +0.004 A 
ATOM     30  C   UNL     1      -0.442   3.178   6.109  0.00  0.00    +0.049 A 
ATOM     31  C   UNL     1      -0.069   1.842   6.099  0.00  0.00    +0.163 A 
ATOM     32  O   UNL     1       0.260   1.249   4.918  0.00  0.00    -0.480 OA
ENDBRANCH  22  23
ENDBRANCH  20  22
ENDBRANCH   2  18
TORSDOF 6
