REMARK  Name = ZINC63730267
REMARK  11 active torsions:
REMARK  status: ('A' for Active; 'I' for Inactive)
REMARK    1  A    between atoms: C_1  and  C_2
REMARK    2  A    between atoms: C_5  and  C_13
REMARK    3  A    between atoms: C_11  and  C_12
REMARK    4  A    between atoms: C_17  and  S_26
REMARK    5  A    between atoms: N_18  and  C_19
REMARK    6  A    between atoms: C_19  and  C_20
REMARK    7  A    between atoms: S_26  and  C_27
REMARK    8  A    between atoms: C_27  and  C_28
REMARK    9  A    between atoms: N_30  and  C_31
REMARK   10  A    between atoms: C_34  and  C_37
REMARK   11  A    between atoms: C_37  and  C_39
REMARK                            x       y       z     vdW  Elec       q    Type
REMARK                         _______ _______ _______ _____ _____    ______ ____
ROOT
ATOM      1  C   UNL     1      -4.619  -1.401   1.125  0.00  0.00    +0.208 C 
ATOM      2  N   UNL     1      -5.350  -2.549   0.560  0.00  0.00    -0.242 N 
ATOM      3  N   UNL     1      -5.964  -3.191   1.643  0.00  0.00    -0.162 NA
ATOM      4  C   UNL     1      -5.705  -2.592   2.756  0.00  0.00    +0.176 C 
ATOM      5  N   UNL     1      -4.891  -1.480   2.570  0.00  0.00    -0.281 N 
ATOM      6  H   UNL     1      -5.396  -2.809  -0.373  0.00  0.00    +0.170 HD
ENDROOT
BRANCH   1  11
ATOM      7  C   UNL     1      -0.039   1.511  -0.012  0.00  0.00    +0.046 C 
ATOM      8  C   UNL     1      -0.022   0.004  -0.028  0.00  0.00    -0.024 C 
ATOM      9  C   UNL     1      -1.107  -0.779  -0.023  0.00  0.00    -0.014 C 
ATOM     10  C   UNL     1      -2.478  -0.536   0.193  0.00  0.00    +0.013 C 
ATOM     11  C   UNL     1      -3.142  -1.531   0.857  0.00  0.00    -0.008 C 
ATOM     12  C   UNL     1      -2.421  -2.718   1.306  0.00  0.00    +0.005 C 
ATOM     13  C   UNL     1      -1.212  -3.051   0.839  0.00  0.00    +0.004 C 
ATOM     14  C   UNL     1      -0.585  -2.196  -0.224  0.00  0.00    +0.159 C 
ATOM     15  N   UNL     1       0.862  -2.065  -0.126  0.00  0.00    -0.276 NA
ATOM     16  C   UNL     1       1.142  -0.796  -0.056  0.00  0.00    +0.037 C 
ATOM     17  C   UNL     1       2.544  -0.246  -0.006  0.00  0.00    +0.065 C 
ENDBRANCH   1  11
BRANCH   5  18
ATOM     18  C   UNL     1      -4.400  -0.568   3.605  0.00  0.00    +0.144 C 
BRANCH  18  19
ATOM     19  C   UNL     1      -5.382   0.560   3.788  0.00  0.00    -0.030 A 
ATOM     20  C   UNL     1      -5.261   1.712   3.033  0.00  0.00    +0.005 A 
ATOM     21  C   UNL     1      -6.162   2.747   3.201  0.00  0.00    +0.000 A 
ATOM     22  C   UNL     1      -7.185   2.629   4.123  0.00  0.00    +0.000 A 
ATOM     23  C   UNL     1      -7.307   1.477   4.877  0.00  0.00    +0.000 A 
ATOM     24  C   UNL     1      -6.408   0.441   4.706  0.00  0.00    +0.005 A 
ENDBRANCH  18  19
ENDBRANCH   5  18
BRANCH   4  25
ATOM     25  S   UNL     1      -6.310  -3.119   4.324  0.00  0.00    -0.080 S 
BRANCH  25  26
ATOM     26  C   UNL     1      -7.297  -4.592   3.941  0.00  0.00    +0.173 C 
BRANCH  26  27
ATOM     27  C   UNL     1      -7.881  -5.151   5.213  0.00  0.00    +0.227 C 
ATOM     28  O   UNL     1      -7.654  -4.608   6.274  0.00  0.00    -0.275 OA
ATOM     29  N   UNL     1      -8.656  -6.253   5.173  0.00  0.00    -0.285 N 
ATOM     30  H   UNL     1      -8.892  -6.648   4.319  0.00  0.00    +0.155 HD
BRANCH  29  31
ATOM     31  C   UNL     1      -9.117  -6.824   6.356  0.00  0.00    +0.033 A 
ATOM     32  C   UNL     1      -9.240  -8.207   6.457  0.00  0.00    +0.024 A 
ATOM     33  C   UNL     1      -9.693  -8.774   7.620  0.00  0.00    +0.013 A 
ATOM     34  C   UNL     1     -10.033  -7.960   8.708  0.00  0.00    +0.017 A 
ATOM     35  C   UNL     1      -9.907  -6.569   8.602  0.00  0.00    +0.013 A 
ATOM     36  C   UNL     1      -9.448  -6.011   7.437  0.00  0.00    +0.024 A 
BRANCH  34  37
ATOM     37  C   UNL     1     -10.519  -8.562   9.956  0.00  0.00    +0.160 C 
ATOM     38  O   UNL     1     -10.627  -9.767  10.046  0.00  0.00    -0.292 OA
ATOM     39  C   UNL     1     -10.883  -7.684  11.125  0.00  0.00    +0.091 C 
ENDBRANCH  34  37
ENDBRANCH  29  31
ENDBRANCH  26  27
ENDBRANCH  25  26
ENDBRANCH   4  25
TORSDOF 8
