REMARK  Name = ZINC23339264
REMARK  6 active torsions:
REMARK  status: ('A' for Active; 'I' for Inactive)
REMARK    1  A    between atoms: C_7  and  C_11
REMARK    2  A    between atoms: C_11  and  N_12
REMARK    3  A    between atoms: C_16  and  C_19
REMARK    4  A    between atoms: C_19  and  N_20
REMARK    5  A    between atoms: C_22  and  C_25
REMARK    6  A    between atoms: C_25  and  O_30
REMARK                            x       y       z     vdW  Elec       q    Type
REMARK                         _______ _______ _______ _____ _____    ______ ____
ROOT
ATOM      1  N   UNL     1       2.001   3.702  -1.362  0.00  0.00    +0.383 N 
ATOM      2  C   UNL     1       3.199   2.995  -1.833  0.00  0.00    -0.078 C 
ATOM      3  C   UNL     1       3.450   3.339  -3.303  0.00  0.00    -0.018 C 
ATOM      4  C   UNL     1       3.638   4.852  -3.444  0.00  0.00    +0.002 C 
ATOM      5  C   UNL     1       2.396   5.566  -2.901  0.00  0.00    -0.006 C 
ATOM      6  C   UNL     1       2.176   5.157  -1.443  0.00  0.00    -0.073 C 
ATOM      7  H   UNL     1       1.167   3.427  -2.025  0.00  0.00    -0.081 HD
ENDROOT
BRANCH   1   8
ATOM      8  C   UNL     1       1.649   3.289   0.004  0.00  0.00    -0.041 C 
BRANCH   8  15
ATOM      9  C   UNL     1       4.066  -0.727  -0.040  0.00  0.00    +0.001 A 
ATOM     10  C   UNL     1       3.249  -1.850  -0.038  0.00  0.00    +0.002 A 
ATOM     11  C   UNL     1       1.878  -1.721  -0.025  0.00  0.00    +0.026 A 
ATOM     12  C   UNL     1       1.303  -0.455  -0.013  0.00  0.00    +0.047 A 
ATOM     13  C   UNL     1       2.135   0.680  -0.015  0.00  0.00    +0.001 A 
ATOM     14  C   UNL     1       3.523   0.526  -0.028  0.00  0.00    +0.010 A 
ATOM     15  C   UNL     1       1.239   1.839   0.000  0.00  0.00    -0.039 A 
ATOM     16  C   UNL     1      -0.017   1.364   0.009  0.00  0.00    +0.085 A 
ATOM     17  N   UNL     1       0.002  -0.004   0.002  0.00  0.00    -0.360 N 
ATOM     18  H   UNL     1      -0.829  -0.724   0.006  0.00  0.00    +0.165 HD
ENDBRANCH   8  15
ENDBRANCH   1   8
BRANCH   5  19
ATOM     19  C   UNL     1       2.600   7.080  -2.983  0.00  0.00    +0.147 C 
BRANCH  19  20
ATOM     20  N   UNL     1       2.692   7.485  -4.387  0.00  0.00    -0.251 N 
ATOM     21  C   UNL     1       1.926   8.422  -4.994  0.00  0.00    +0.136 A 
ATOM     22  C   UNL     1       2.345   8.476  -6.280  0.00  0.00    +0.114 A 
ATOM     23  N   UNL     1       3.333   7.582  -6.396  0.00  0.00    -0.132 NA
ATOM     24  N   UNL     1       3.518   7.016  -5.255  0.00  0.00    -0.065 NA
BRANCH  22  25
ATOM     25  C   UNL     1       1.804   9.368  -7.367  0.00  0.00    +0.111 C 
ATOM     26  C   UNL     1       0.323   9.032  -7.639  0.00  0.00    +0.041 C 
ATOM     27  C   UNL     1       0.172   9.192  -9.172  0.00  0.00    +0.003 C 
ATOM     28  C   UNL     1       1.513   8.632  -9.708  0.00  0.00    +0.003 C 
ATOM     29  C   UNL     1       2.561   9.114  -8.683  0.00  0.00    +0.041 C 
BRANCH  25  30
ATOM     30  O   UNL     1       1.934  10.739  -6.985  0.00  0.00    -0.382 OA
ATOM     31  H   UNL     1       1.588  11.534  -7.662  0.00  0.00    +0.211 HD
ENDBRANCH  25  30
ENDBRANCH  22  25
ENDBRANCH  19  20
ENDBRANCH   5  19
TORSDOF 6
