REMARK  Name = ZINC10042241
REMARK  11 active torsions:
REMARK  status: ('A' for Active; 'I' for Inactive)
REMARK    1  A    between atoms: C_1  and  C_2
REMARK    2  A    between atoms: C_2  and  C_3
REMARK    3  A    between atoms: C_2  and  C_4
REMARK    4  A    between atoms: C_4  and  C_6
REMARK    5  A    between atoms: C_4  and  N_22
REMARK    6  A    between atoms: N_8  and  N_9
REMARK    7  A    between atoms: C_10  and  C_11
REMARK    8  A    between atoms: C_15  and  O_17
REMARK    9  A    between atoms: O_17  and  C_18
REMARK   10  A    between atoms: C_18  and  C_19
REMARK   11  A    between atoms: C_23  and  C_25
REMARK                            x       y       z     vdW  Elec       q    Type
REMARK                         _______ _______ _______ _____ _____    ______ ____
ROOT
ATOM      1  C   UNL     1      -3.615  -2.340   0.947  0.00  0.00    +0.253 C 
ATOM      2  O   UNL     1      -2.570  -2.688   1.455  0.00  0.00    -0.272 OA
ATOM      3  N   UNL     1      -4.654  -3.195   0.890  0.00  0.00    -0.205 N 
ATOM      4  H   UNL     1      -5.511  -2.895   0.550  0.00  0.00    +0.177 HD
ENDROOT
BRANCH   3   5
ATOM      5  N   UNL     1      -4.497  -4.519   1.321  0.00  0.00    -0.188 NA
ATOM      6  C   UNL     1      -5.498  -5.343   1.266  0.00  0.00    +0.138 C 
BRANCH   6   7
ATOM      7  C   UNL     1      -5.332  -6.736   1.721  0.00  0.00    -0.002 A 
ATOM      8  C   UNL     1      -4.098  -7.172   2.211  0.00  0.00    +0.010 A 
ATOM      9  C   UNL     1      -3.948  -8.476   2.636  0.00  0.00    +0.004 A 
ATOM     10  C   UNL     1      -5.014  -9.354   2.578  0.00  0.00    +0.046 A 
ATOM     11  C   UNL     1      -6.244  -8.931   2.092  0.00  0.00    +0.122 A 
ATOM     12  C   UNL     1      -6.409  -7.623   1.668  0.00  0.00    +0.055 A 
BRANCH  11  13
ATOM     13  O   UNL     1      -7.288  -9.799   2.038  0.00  0.00    -0.483 OA
BRANCH  13  14
ATOM     14  C   UNL     1      -7.049 -11.130   2.498  0.00  0.00    +0.324 C 
BRANCH  14  15
ATOM     15  C   UNL     1      -8.312 -11.942   2.364  0.00  0.00    +0.248 C 
ATOM     16  O   UNL     1      -9.317 -11.431   1.918  0.00  0.00    -0.272 OA
ATOM     17  N   UNL     1      -8.323 -13.237   2.739  0.00  0.00    -0.327 N 
ATOM     18  H   UNL     1      -7.519 -13.646   3.095  0.00  0.00    +0.145 HD
ATOM     19  H   UNL     1      -9.136 -13.759   2.652  0.00  0.00    +0.145 HD
ENDBRANCH  14  15
ENDBRANCH  13  14
ENDBRANCH  11  13
ENDBRANCH   6   7
ENDBRANCH   3   5
BRANCH   1  20
ATOM     20  C   UNL     1      -3.750  -0.950   0.381  0.00  0.00    +0.163 C 
BRANCH  20  21
ATOM     21  N   UNL     1      -2.704  -0.090   0.939  0.00  0.00    -0.300 N 
ATOM     22  C   UNL     1      -2.890   1.243   1.004  0.00  0.00    +0.246 C 
ATOM     23  O   UNL     1      -3.927   1.732   0.599  0.00  0.00    -0.270 OA
ATOM     24  H   UNL     1      -1.877  -0.481   1.263  0.00  0.00    +0.150 HD
BRANCH  22  25
ATOM     25  C   UNL     1      -1.835   2.110   1.568  0.00  0.00    +0.055 A 
ATOM     26  C   UNL     1      -0.643   1.551   2.034  0.00  0.00    +0.016 A 
ATOM     27  C   UNL     1       0.340   2.365   2.554  0.00  0.00    +0.021 A 
ATOM     28  C   UNL     1       0.146   3.736   2.620  0.00  0.00    +0.042 A 
ATOM     29  C   UNL     1      -1.035   4.296   2.164  0.00  0.00    +0.040 A 
ATOM     30  C   UNL     1      -2.028   3.492   1.641  0.00  0.00    +0.054 A 
ATOM     31 CL   UNL     1      -3.508   4.196   1.070  0.00  0.00    -0.083 Cl
ATOM     32 CL   UNL     1       1.389   4.754   3.277  0.00  0.00    -0.083 Cl
ENDBRANCH  22  25
ENDBRANCH  20  21
BRANCH  20  34
ATOM     33  C   UNL     1      -3.860   0.387  -1.727  0.00  0.00    +0.009 C 
ATOM     34  C   UNL     1      -3.607  -1.004  -1.142  0.00  0.00    +0.012 C 
ATOM     35  C   UNL     1      -2.193  -1.461  -1.505  0.00  0.00    +0.009 C 
ENDBRANCH  20  34
ENDBRANCH   1  20
TORSDOF 9
