REMARK  Name = ZINC13063904
REMARK  13 active torsions:
REMARK  status: ('A' for Active; 'I' for Inactive)
REMARK    1  A    between atoms: C_1  and  C_2
REMARK    2  A    between atoms: C_2  and  C_3
REMARK    3  A    between atoms: C_3  and  C_5
REMARK    4  A    between atoms: C_3  and  N_68
REMARK    5  A    between atoms: N_9  and  C_10
REMARK    6  A    between atoms: C_10  and  C_11
REMARK    7  A    between atoms: C_11  and  O_13
REMARK    8  A    between atoms: O_13  and  C_14
REMARK    9  A    between atoms: C_14  and  C_15
REMARK   10  A    between atoms: C_16  and  C_17
REMARK   11  A    between atoms: C_16  and  N_68
REMARK   12  A    between atoms: C_22  and  C_29
REMARK   13  A    between atoms: C_30  and  N_68
REMARK                            x       y       z     vdW  Elec       q    Type
REMARK                         _______ _______ _______ _____ _____    ______ ____
ROOT
ATOM      1  N   UNL     1      -0.552   2.853   1.472  0.00  0.00    +0.391 N 
ATOM      2  H   UNL     1      -0.555   3.143   2.457  0.00  0.00    -0.080 HD
ENDROOT
BRANCH   1   3
ATOM      3  C   UNL     1       0.767   3.167   0.883  0.00  0.00    -0.067 C 
ATOM      4  C   UNL     1       0.868   2.609  -0.538  0.00  0.00    -0.015 C 
ATOM      5  C   UNL     1       2.241   2.945  -1.122  0.00  0.00    -0.002 C 
ATOM      6  C   UNL     1       3.333   2.320  -0.251  0.00  0.00    -0.000 C 
ATOM      7  C   UNL     1       3.232   2.878   1.171  0.00  0.00    -0.002 C 
ATOM      8  C   UNL     1       1.859   2.542   1.755  0.00  0.00    -0.015 C 
ENDBRANCH   1   3
BRANCH   1   9
ATOM      9  C   UNL     1      -0.804   1.398   1.399  0.00  0.00    +0.003 C 
BRANCH   9  10
ATOM     10  C   UNL     1      -1.188   0.999  -0.003  0.00  0.00    +0.139 A 
ATOM     11  N   UNL     1      -2.079   1.583  -0.766  0.00  0.00    -0.115 NA
ATOM     12  N   UNL     1      -2.117   0.951  -1.889  0.00  0.00    -0.023 NA
ATOM     13  N   UNL     1      -1.279  -0.026  -1.858  0.00  0.00    -0.043 NA
ATOM     14  N   UNL     1      -0.686  -0.029  -0.712  0.00  0.00    -0.220 N 
BRANCH  14  15
ATOM     15  C   UNL     1       0.339  -0.976  -0.265  0.00  0.00    +0.267 C 
BRANCH  15  16
ATOM     16  C   UNL     1      -0.321  -2.151   0.408  0.00  0.00    +0.329 C 
ATOM     17  O   UNL     1      -1.525  -2.195   0.505  0.00  0.00    -0.249 OA
BRANCH  16  18
ATOM     18  O   UNL     1       0.428  -3.151   0.899  0.00  0.00    -0.464 OA
BRANCH  18  19
ATOM     19  C   UNL     1      -0.275  -4.251   1.534  0.00  0.00    +0.229 C 
ATOM     20  C   UNL     1       0.738  -5.286   2.029  0.00  0.00    +0.048 C 
ENDBRANCH  18  19
ENDBRANCH  16  18
ENDBRANCH  15  16
ENDBRANCH  14  15
ENDBRANCH   9  10
BRANCH   9  22
ATOM     21  C   UNL     1      -1.505   1.338   3.796  0.00  0.00    +0.002 C 
ATOM     22  C   UNL     1      -1.942   1.048   2.359  0.00  0.00    -0.011 C 
ENDBRANCH   9  22
ENDBRANCH   1   9
BRANCH   1  23
ATOM     23  C   UNL     1      -1.614   3.586   0.751  0.00  0.00    -0.036 C 
BRANCH  23  24
ATOM     24  C   UNL     1      -1.562   5.036   1.159  0.00  0.00    +0.001 A 
ATOM     25  C   UNL     1      -0.907   5.934   0.382  0.00  0.00    +0.017 A 
ATOM     26  C   UNL     1      -0.880   7.335   0.802  0.00  0.00    -0.001 A 
ATOM     27  C   UNL     1      -0.225   8.308   0.040  0.00  0.00    +0.010 A 
ATOM     28  C   UNL     1      -0.213   9.606   0.463  0.00  0.00    +0.004 A 
ATOM     29  C   UNL     1      -0.845   9.970   1.645  0.00  0.00    -0.048 A 
ATOM     30  C   UNL     1      -1.498   9.029   2.412  0.00  0.00    +0.029 A 
ATOM     31  C   UNL     1      -1.523   7.700   2.001  0.00  0.00    +0.049 A 
ATOM     32  N   UNL     1      -2.166   6.738   2.749  0.00  0.00    -0.322 N 
ATOM     33  H   UNL     1      -2.609   6.992   3.575  0.00  0.00    +0.169 HD
ATOM     34  C   UNL     1      -2.190   5.454   2.352  0.00  0.00    +0.251 A 
ATOM     35  O   UNL     1      -2.769   4.630   3.039  0.00  0.00    -0.268 OA
ATOM     36  C   UNL     1      -0.819  11.409   2.092  0.00  0.00    +0.044 C 
ENDBRANCH  23  24
ENDBRANCH   1  23
TORSDOF 10
