REMARK  Name = ZINC15002849
REMARK  6 active torsions:
REMARK  status: ('A' for Active; 'I' for Inactive)
REMARK    1  A    between atoms: C_3  and  N_17
REMARK    2  A    between atoms: C_6  and  C_7
REMARK    3  A    between atoms: C_13  and  O_16
REMARK    4  A    between atoms: C_20  and  N_60
REMARK    5  A    between atoms: C_23  and  C_24
REMARK    6  A    between atoms: C_23  and  N_60
REMARK                            x       y       z     vdW  Elec       q    Type
REMARK                         _______ _______ _______ _____ _____    ______ ____
ROOT
ATOM      1  N   UNL     1       6.659  -0.480  -2.707  0.00  0.00    -0.330 N 
ATOM      2  C   UNL     1       5.644  -1.494  -2.392  0.00  0.00    +0.103 C 
ATOM      3  C   UNL     1       4.267  -0.830  -2.307  0.00  0.00    +0.003 C 
ATOM      4  C   UNL     1       4.293   0.249  -1.221  0.00  0.00    -0.068 C 
ATOM      5  C   UNL     1       5.390   1.265  -1.547  0.00  0.00    +0.003 C 
ATOM      6  C   UNL     1       6.734   0.540  -1.654  0.00  0.00    +0.103 C 
ENDROOT
BRANCH   1   9
ATOM      7  C   UNL     1      10.231  -0.854  -3.445  0.00  0.00    +0.015 A 
ATOM      8  C   UNL     1       9.001  -0.275  -3.233  0.00  0.00    +0.024 A 
ATOM      9  C   UNL     1       7.901  -1.069  -2.920  0.00  0.00    +0.030 A 
ATOM     10  C   UNL     1       8.042  -2.450  -2.815  0.00  0.00    +0.024 A 
ATOM     11  C   UNL     1       9.269  -3.035  -3.031  0.00  0.00    +0.015 A 
ATOM     12  C   UNL     1      10.375  -2.240  -3.345  0.00  0.00    +0.037 A 
BRANCH  12  13
ATOM     13  C   UNL     1      11.693  -2.864  -3.573  0.00  0.00    +0.247 C 
ATOM     14  O   UNL     1      12.696  -2.350  -3.116  0.00  0.00    -0.270 OA
ATOM     15  N   UNL     1      11.784  -4.004  -4.286  0.00  0.00    -0.295 N 
ATOM     16  C   UNL     1      10.601  -4.571  -4.947  0.00  0.00    +0.108 C 
ATOM     17  C   UNL     1      10.927  -4.788  -6.432  0.00  0.00    +0.021 C 
ATOM     18  C   UNL     1      12.186  -5.650  -6.551  0.00  0.00    +0.034 C 
ATOM     19  C   UNL     1      13.366  -4.925  -5.900  0.00  0.00    +0.132 C 
ATOM     20  C   UNL     1      13.069  -4.706  -4.413  0.00  0.00    +0.139 C 
BRANCH  19  21
ATOM     21  O   UNL     1      14.548  -5.715  -6.039  0.00  0.00    -0.390 OA
ATOM     22  H   UNL     1      15.337  -5.316  -5.646  0.00  0.00    +0.210 HD
ENDBRANCH  19  21
ENDBRANCH  12  13
ENDBRANCH   1   9
BRANCH   4  23
ATOM     23  N   UNL     1       2.985   0.930  -1.183  0.00  0.00    +0.384 N 
ATOM     24  H   UNL     1       2.243   0.251  -1.392  0.00  0.00    -0.085 HD
ATOM     25  H   UNL     1       2.972   1.679  -1.885  0.00  0.00    -0.085 HD
BRANCH  23  26
ATOM     26  C   UNL     1       2.749   1.511   0.152  0.00  0.00    -0.046 C 
BRANCH  26  27
ATOM     27  C   UNL     1       1.408   2.199   0.161  0.00  0.00    -0.062 A 
ATOM     28  C   UNL     1       1.331   3.546  -0.193  0.00  0.00    +0.004 A 
ATOM     29  C   UNL     1       0.151   4.211  -0.201  0.00  0.00    +0.031 A 
ATOM     30  C   UNL     1      -1.046   3.536   0.156  0.00  0.00    +0.100 A 
ATOM     31  C   UNL     1      -0.966   2.125   0.521  0.00  0.00    +0.100 A 
ATOM     32  C   UNL     1       0.306   1.495   0.513  0.00  0.00    +0.032 A 
ATOM     33  N   UNL     1      -2.160   1.619   0.826  0.00  0.00    -0.191 NA
ATOM     34  S   UNL     1      -3.188   2.789   0.653  0.00  0.00    +0.116 S 
ATOM     35  N   UNL     1      -2.293   3.998   0.212  0.00  0.00    -0.191 NA
ENDBRANCH  26  27
ENDBRANCH  23  26
ENDBRANCH   4  23
TORSDOF 6
