REMARK  Name = ZINC14544640
REMARK  3 active torsions:
REMARK  status: ('A' for Active; 'I' for Inactive)
REMARK    1  A    between atoms: C_4  and  N_7
REMARK    2  A    between atoms: N_7  and  C_8
REMARK    3  A    between atoms: C_21  and  C_24
REMARK                            x       y       z     vdW  Elec       q    Type
REMARK                         _______ _______ _______ _____ _____    ______ ____
ROOT
ATOM      1  C   UNL     1      -1.287   5.923  -0.059  0.00  0.00    +0.032 A 
ATOM      2  C   UNL     1      -2.482   5.215  -0.052  0.00  0.00    +0.025 A 
ATOM      3  C   UNL     1      -3.679   5.896  -0.140  0.00  0.00    +0.025 A 
ATOM      4  C   UNL     1      -3.688   7.282  -0.234  0.00  0.00    +0.031 A 
ATOM      5  C   UNL     1      -2.500   7.996  -0.245  0.00  0.00    -0.018 A 
ATOM      6  C   UNL     1      -1.299   7.306  -0.150  0.00  0.00    +0.029 A 
ATOM      7  C   UNL     1      -2.463   9.488  -0.350  0.00  0.00    +0.049 C 
ATOM      8  C   UNL     1      -2.127  10.126   0.977  0.00  0.00    -0.023 C 
ATOM      9  C   UNL     1      -2.793  11.245   1.123  0.00  0.00    -0.030 C 
ATOM     10  C   UNL     1      -3.662  11.509  -0.091  0.00  0.00    +0.033 C 
ATOM     11  C   UNL     1      -3.830  10.100  -0.711  0.00  0.00    +0.029 C 
ATOM     12  C   UNL     1      -4.943   9.385   0.061  0.00  0.00    +0.107 C 
ATOM     13  N   UNL     1      -4.915   7.956  -0.316  0.00  0.00    -0.336 N 
ATOM     14  H   UNL     1      -5.720   7.492  -0.591  0.00  0.00    +0.147 HD
ENDROOT
BRANCH  12  15
ATOM     15  C   UNL     1      -4.720   9.555   1.541  0.00  0.00    -0.002 A 
ATOM     16  C   UNL     1      -4.097   8.691   2.359  0.00  0.00    +0.089 A 
ATOM     17  N   UNL     1      -4.084   9.184   3.635  0.00  0.00    -0.360 N 
ATOM     18  H   UNL     1      -3.687   8.739   4.401  0.00  0.00    +0.165 HD
ATOM     19  C   UNL     1      -4.722  10.404   3.673  0.00  0.00    +0.047 A 
ATOM     20  C   UNL     1      -5.149  10.689   2.363  0.00  0.00    +0.005 A 
ATOM     21  C   UNL     1      -5.833  11.876   2.096  0.00  0.00    +0.010 A 
ATOM     22  C   UNL     1      -6.085  12.757   3.111  0.00  0.00    +0.001 A 
ATOM     23  C   UNL     1      -5.667  12.479   4.405  0.00  0.00    +0.002 A 
ATOM     24  C   UNL     1      -4.990  11.314   4.690  0.00  0.00    +0.026 A 
ENDBRANCH  12  15
BRANCH   1  25
ATOM     25  N   UNL     1      -0.069   5.239   0.031  0.00  0.00    -0.314 N 
ATOM     26  H   UNL     1       0.698   5.668   0.442  0.00  0.00    +0.152 HD
BRANCH  25  30
ATOM     27  C   UNL     1       0.259   1.366  -1.461  0.00  0.00    +0.000 A 
ATOM     28  C   UNL     1      -0.607   2.264  -2.058  0.00  0.00    +0.002 A 
ATOM     29  C   UNL     1      -0.722   3.548  -1.562  0.00  0.00    +0.023 A 
ATOM     30  C   UNL     1       0.041   3.940  -0.470  0.00  0.00    +0.031 A 
ATOM     31  C   UNL     1       0.914   3.037   0.124  0.00  0.00    +0.023 A 
ATOM     32  C   UNL     1       1.020   1.753  -0.374  0.00  0.00    +0.002 A 
ENDBRANCH  25  30
ENDBRANCH   1  25
TORSDOF 3
