REMARK  Name = ZINC12907558
REMARK  5 active torsions:
REMARK  status: ('A' for Active; 'I' for Inactive)
REMARK    1  A    between atoms: C_7  and  C_23
REMARK    2  A    between atoms: C_12  and  C_13
REMARK    3  A    between atoms: C_23  and  O_25
REMARK    4  A    between atoms: O_25  and  C_26
REMARK    5  A    between atoms: C_26  and  C_27
REMARK                            x       y       z     vdW  Elec       q    Type
REMARK                         _______ _______ _______ _____ _____    ______ ____
ROOT
ATOM      1  C   UNL     1       9.120   6.803  -0.632  0.00  0.00    +0.001 A 
ATOM      2  C   UNL     1       9.422   5.446  -0.552  0.00  0.00    +0.002 A 
ATOM      3  C   UNL     1       8.438   4.512  -0.434  0.00  0.00    +0.028 A 
ATOM      4  C   UNL     1       7.091   4.918  -0.393  0.00  0.00    +0.072 A 
ATOM      5  C   UNL     1       6.791   6.302  -0.475  0.00  0.00    +0.015 A 
ATOM      6  C   UNL     1       7.826   7.234  -0.595  0.00  0.00    +0.011 A 
ATOM      7  C   UNL     1       5.388   6.714  -0.431  0.00  0.00    +0.073 A 
ATOM      8  C   UNL     1       4.430   5.717  -0.311  0.00  0.00    -0.007 A 
ATOM      9  C   UNL     1       4.825   4.372  -0.231  0.00  0.00    +0.072 A 
ATOM     10  N   UNL     1       6.108   4.029  -0.279  0.00  0.00    -0.247 NA
ATOM     11  C   UNL     1       3.639   3.500  -0.114  0.00  0.00    -0.021 C 
ATOM     12  C   UNL     1       3.653   2.160  -0.020  0.00  0.00    +0.013 C 
ATOM     13  C   UNL     1       2.409   4.373  -0.112  0.00  0.00    +0.042 C 
ATOM     14  C   UNL     1       2.925   5.812  -0.240  0.00  0.00    +0.043 C 
ENDROOT
BRANCH  12  15
ATOM     15  C   UNL     1       2.387   1.406  -0.038  0.00  0.00    -0.023 A 
ATOM     16  C   UNL     1       1.166   2.084   0.020  0.00  0.00    +0.009 A 
ATOM     17  C   UNL     1      -0.015   1.374   0.004  0.00  0.00    +0.022 A 
ATOM     18  C   UNL     1       0.005  -0.009  -0.071  0.00  0.00    +0.059 A 
ATOM     19  C   UNL     1       1.212  -0.688  -0.130  0.00  0.00    +0.060 A 
ATOM     20  C   UNL     1       2.402   0.011  -0.114  0.00  0.00    +0.029 A 
ATOM     21 CL   UNL     1       1.228  -2.422  -0.224  0.00  0.00    -0.082 Cl
ATOM     22 CL   UNL     1      -1.487  -0.896  -0.092  0.00  0.00    -0.082 Cl
ENDBRANCH  12  15
BRANCH   7  23
ATOM     23  C   UNL     1       5.005   8.139  -0.512  0.00  0.00    +0.341 C 
ATOM     24  O   UNL     1       4.902   8.799   0.502  0.00  0.00    -0.245 OA
BRANCH  23  25
ATOM     25  O   UNL     1       4.771   8.706  -1.711  0.00  0.00    -0.453 OA
BRANCH  25  26
ATOM     26  C   UNL     1       4.399  10.110  -1.715  0.00  0.00    +0.308 C 
BRANCH  26  27
ATOM     27  C   UNL     1       4.178  10.567  -3.134  0.00  0.00    +0.173 A 
ATOM     28  N   UNL     1       5.185  11.065  -3.830  0.00  0.00    -0.196 NA
ATOM     29  C   UNL     1       4.995  11.465  -5.086  0.00  0.00    +0.217 A 
ATOM     30  N   UNL     1       3.788  11.374  -5.635  0.00  0.00    -0.181 NA
ATOM     31  C   UNL     1       2.777  10.878  -4.930  0.00  0.00    +0.217 A 
ATOM     32  N   UNL     1       2.977  10.475  -3.677  0.00  0.00    -0.196 NA
ATOM     33  N   UNL     1       1.523  10.780  -5.496  0.00  0.00    -0.327 N 
ATOM     34  N   UNL     1       6.048  11.980  -5.814  0.00  0.00    -0.327 N 
ATOM     35  H   UNL     1       0.785  10.418  -4.981  0.00  0.00    +0.145 HD
ATOM     36  H   UNL     1       1.378  11.075  -6.409  0.00  0.00    +0.145 HD
ATOM     37  H   UNL     1       5.908  12.275  -6.727  0.00  0.00    +0.145 HD
ATOM     38  H   UNL     1       6.929  12.046  -5.412  0.00  0.00    +0.145 HD
ENDBRANCH  26  27
ENDBRANCH  25  26
ENDBRANCH  23  25
ENDBRANCH   7  23
TORSDOF 5
