REMARK  Name = ZINC11867299
REMARK  10 active torsions:
REMARK  status: ('A' for Active; 'I' for Inactive)
REMARK    1  A    between atoms: C_1  and  C_2
REMARK    2  A    between atoms: C_2  and  C_3
REMARK    3  A    between atoms: C_5  and  C_13
REMARK    4  A    between atoms: C_6  and  O_12
REMARK    5  A    between atoms: C_8  and  O_9
REMARK    6  A    between atoms: O_9  and  C_10
REMARK    7  A    between atoms: C_10  and  C_11
REMARK    8  A    between atoms: C_14  and  C_20
REMARK    9  A    between atoms: C_15  and  N_19
REMARK   10  A    between atoms: C_22  and  C_25
REMARK                            x       y       z     vdW  Elec       q    Type
REMARK                         _______ _______ _______ _____ _____    ______ ____
ROOT
ATOM      1  C   UNL     1       4.256  -1.405   2.062  0.00  0.00    +0.108 A 
ATOM      2  C   UNL     1       4.861  -2.413   1.189  0.00  0.00    +0.074 A 
ATOM      3  C   UNL     1       6.162  -2.588   1.637  0.00  0.00    +0.122 A 
ATOM      4  N   UNL     1       6.346  -1.765   2.691  0.00  0.00    -0.263 N 
ATOM      5  H   UNL     1       7.168  -1.683   3.200  0.00  0.00    +0.190 HD
ATOM      6  N   UNL     1       5.173  -1.046   2.934  0.00  0.00    -0.171 NA
ENDROOT
BRANCH   1   9
ATOM      7  C   UNL     1       1.108   0.127   0.697  0.00  0.00    -0.005 A 
ATOM      8  C   UNL     1       2.397  -0.358   0.775  0.00  0.00    +0.021 A 
ATOM      9  C   UNL     1       2.872  -0.883   1.976  0.00  0.00    +0.045 A 
ATOM     10  C   UNL     1       2.038  -0.915   3.099  0.00  0.00    +0.130 A 
ATOM     11  C   UNL     1       0.746  -0.426   3.011  0.00  0.00    +0.092 A 
ATOM     12  C   UNL     1       0.283   0.100   1.814  0.00  0.00    +0.127 A 
BRANCH   7  14
ATOM     13  C   UNL     1       0.785   2.212  -0.606  0.00  0.00    +0.009 C 
ATOM     14  C   UNL     1       0.596   0.694  -0.602  0.00  0.00    +0.035 C 
ENDBRANCH   7  14
BRANCH  10  15
ATOM     15  O   UNL     1       2.495  -1.425   4.272  0.00  0.00    -0.506 OA
ATOM     16  H   UNL     1       2.853  -0.761   4.877  0.00  0.00    +0.292 HD
ENDBRANCH  10  15
BRANCH  12  17
ATOM     17  O   UNL     1      -0.984   0.584   1.732  0.00  0.00    -0.492 OA
BRANCH  17  18
ATOM     18  C   UNL     1      -1.779   0.526   2.918  0.00  0.00    +0.225 C 
ATOM     19  C   UNL     1      -3.163   1.113   2.634  0.00  0.00    +0.048 C 
ENDBRANCH  17  18
ENDBRANCH  12  17
ENDBRANCH   1   9
BRANCH   2  20
ATOM     20  C   UNL     1       4.216  -3.104   0.058  0.00  0.00    +0.114 A 
ATOM     21  N   UNL     1       4.739  -3.946  -0.825  0.00  0.00    -0.244 NA
ATOM     22  C   UNL     1       4.005  -4.474  -1.780  0.00  0.00    +0.046 A 
ATOM     23  C   UNL     1       2.688  -4.161  -1.873  0.00  0.00    +0.070 A 
ATOM     24  S   UNL     1       2.515  -3.042  -0.489  0.00  0.00    -0.075 S 
ATOM     25  C   UNL     1       4.626  -5.426  -2.769  0.00  0.00    +0.066 C 
ENDBRANCH   2  20
BRANCH   3  26
ATOM     26  N   UNL     1       7.103  -3.454   1.101  0.00  0.00    -0.343 N 
ATOM     27  H   UNL     1       6.872  -4.008   0.338  0.00  0.00    +0.144 HD
ATOM     28  H   UNL     1       7.991  -3.505   1.487  0.00  0.00    +0.144 HD
ENDBRANCH   3  26
TORSDOF 7
