REMARK  Name = ZINC40138811
REMARK  8 active torsions:
REMARK  status: ('A' for Active; 'I' for Inactive)
REMARK    1  A    between atoms: C_6  and  O_11
REMARK    2  A    between atoms: O_11  and  C_12
REMARK    3  A    between atoms: C_12  and  C_13
REMARK    4  A    between atoms: C_13  and  C_14
REMARK    5  A    between atoms: C_14  and  N_15
REMARK    6  A    between atoms: N_23  and  N_24
REMARK    7  A    between atoms: C_25  and  C_27
REMARK    8  A    between atoms: C_30  and  O_33
REMARK                            x       y       z     vdW  Elec       q    Type
REMARK                         _______ _______ _______ _____ _____    ______ ____
ROOT
ATOM      1  N   UNL     1       7.616  -6.591  -0.114  0.00  0.00    -0.265 N 
ATOM      2  C   UNL     1       8.219  -7.127  -1.247  0.00  0.00    +0.046 A 
ATOM      3  C   UNL     1       7.810  -7.176  -2.575  0.00  0.00    +0.024 A 
ATOM      4  C   UNL     1       8.610  -7.779  -3.525  0.00  0.00    +0.002 A 
ATOM      5  C   UNL     1       9.824  -8.341  -3.170  0.00  0.00    +0.001 A 
ATOM      6  C   UNL     1      10.247  -8.302  -1.856  0.00  0.00    +0.012 A 
ATOM      7  C   UNL     1       9.448  -7.697  -0.892  0.00  0.00    +0.028 A 
ATOM      8  C   UNL     1       9.600  -7.489   0.567  0.00  0.00    +0.153 C 
ATOM      9  N   UNL     1      10.603  -7.861   1.326  0.00  0.00    -0.174 NA
ATOM     10  C   UNL     1       8.380  -6.767   0.978  0.00  0.00    +0.271 C 
ATOM     11  O   UNL     1       8.111  -6.399   2.107  0.00  0.00    -0.268 OA
ENDROOT
BRANCH   9  12
ATOM     12  N   UNL     1      11.752  -8.416   0.748  0.00  0.00    -0.202 N 
ATOM     13  C   UNL     1      12.730  -8.910   1.532  0.00  0.00    +0.263 C 
ATOM     14  O   UNL     1      12.616  -8.873   2.742  0.00  0.00    -0.268 OA
ATOM     15  H   UNL     1      11.843  -8.445  -0.218  0.00  0.00    +0.178 HD
BRANCH  13  16
ATOM     16  C   UNL     1      13.939  -9.495   0.923  0.00  0.00    +0.039 A 
ATOM     17  C   UNL     1      14.075  -9.533  -0.468  0.00  0.00    +0.016 A 
ATOM     18  C   UNL     1      15.206 -10.079  -1.032  0.00  0.00    +0.046 A 
ATOM     19  C   UNL     1      16.211 -10.594  -0.221  0.00  0.00    +0.117 A 
ATOM     20  C   UNL     1      16.079 -10.558   1.162  0.00  0.00    +0.046 A 
ATOM     21  C   UNL     1      14.955 -10.007   1.735  0.00  0.00    +0.016 A 
BRANCH  19  22
ATOM     22  O   UNL     1      17.323 -11.132  -0.782  0.00  0.00    -0.507 OA
ATOM     23  H   UNL     1      18.037 -10.496  -0.928  0.00  0.00    +0.292 HD
ENDBRANCH  19  22
ENDBRANCH  13  16
ENDBRANCH   9  12
BRANCH   1  24
ATOM     24  C   UNL     1       6.317  -5.915  -0.112  0.00  0.00    +0.117 C 
BRANCH  24  25
ATOM     25  C   UNL     1       6.519  -4.420  -0.365  0.00  0.00    +0.060 C 
BRANCH  25  26
ATOM     26  C   UNL     1       5.162  -3.714  -0.363  0.00  0.00    +0.230 C 
BRANCH  26  27
ATOM     27  O   UNL     1       5.351  -2.318  -0.600  0.00  0.00    -0.492 OA
BRANCH  27  33
ATOM     28  C   UNL     1       0.904   2.154  -0.934  0.00  0.00    +0.001 A 
ATOM     29  C   UNL     1       2.154   2.740  -1.131  0.00  0.00    +0.001 A 
ATOM     30  C   UNL     1       3.290   1.991  -1.108  0.00  0.00    +0.008 A 
ATOM     31  C   UNL     1       3.206   0.606  -0.882  0.00  0.00    -0.014 A 
ATOM     32  C   UNL     1       4.357  -0.199  -0.852  0.00  0.00    +0.054 A 
ATOM     33  C   UNL     1       4.237  -1.541  -0.629  0.00  0.00    +0.121 A 
ATOM     34  C   UNL     1       2.982  -2.126  -0.432  0.00  0.00    +0.046 A 
ATOM     35  C   UNL     1       1.849  -1.374  -0.456  0.00  0.00    +0.012 A 
ATOM     36  C   UNL     1       1.935   0.011  -0.681  0.00  0.00    -0.018 A 
ATOM     37  C   UNL     1       0.784   0.817  -0.712  0.00  0.00    +0.008 A 
ENDBRANCH  27  33
ENDBRANCH  26  27
ENDBRANCH  25  26
ENDBRANCH  24  25
ENDBRANCH   1  24
TORSDOF 8
