REMARK  Name = ZINC39670165
REMARK  8 active torsions:
REMARK  status: ('A' for Active; 'I' for Inactive)
REMARK    1  A    between atoms: C_1  and  C_2
REMARK    2  A    between atoms: C_7  and  C_11
REMARK    3  A    between atoms: C_11  and  N_12
REMARK    4  A    between atoms: C_13  and  C_15
REMARK    5  A    between atoms: C_26  and  C_28
REMARK    6  A    between atoms: C_31  and  O_38
REMARK    7  A    between atoms: C_32  and  C_34
REMARK    8  A    between atoms: O_38  and  C_39
REMARK                            x       y       z     vdW  Elec       q    Type
REMARK                         _______ _______ _______ _____ _____    ______ ____
ROOT
ATOM      1  C   UNL     1       2.838  -7.693   3.163  0.00  0.00    +0.100 C 
ATOM      2  C   UNL     1       3.906  -7.861   2.059  0.00  0.00    +0.121 C 
ATOM      3  N   UNL     1       4.791  -8.941   2.556  0.00  0.00    -0.296 N 
ATOM      4  C   UNL     1       3.867  -9.915   3.184  0.00  0.00    +0.115 C 
ATOM      5  C   UNL     1       2.815  -9.044   3.899  0.00  0.00    -0.004 C 
ATOM      6  C   UNL     1       1.435  -9.684   3.785  0.00  0.00    -0.010 C 
ATOM      7  C   UNL     1       1.419 -10.997   4.573  0.00  0.00    -0.082 C 
ATOM      8  N   UNL     1       1.742 -10.729   5.979  0.00  0.00    +0.379 N 
ATOM      9  C   UNL     1       3.107 -10.200   6.088  0.00  0.00    -0.082 C 
ATOM     10  C   UNL     1       3.193  -8.854   5.364  0.00  0.00    -0.010 C 
ATOM     11  C   UNL     1       6.133  -9.019   2.458  0.00  0.00    +0.247 C 
ATOM     12  O   UNL     1       6.767  -8.076   2.026  0.00  0.00    -0.270 OA
ATOM     13  H   UNL     1       1.090 -10.054   6.350  0.00  0.00    -0.086 HD
ATOM     14  H   UNL     1       1.671 -11.586   6.508  0.00  0.00    -0.086 HD
ENDROOT
BRANCH  11  15
ATOM     15  C   UNL     1       6.832 -10.250   2.875  0.00  0.00    +0.038 A 
ATOM     16  C   UNL     1       6.136 -11.460   2.953  0.00  0.00    +0.016 A 
ATOM     17  C   UNL     1       6.792 -12.606   3.343  0.00  0.00    +0.047 A 
ATOM     18  C   UNL     1       8.146 -12.561   3.658  0.00  0.00    +0.132 A 
ATOM     19  C   UNL     1       8.841 -11.360   3.582  0.00  0.00    +0.097 A 
ATOM     20  C   UNL     1       8.193 -10.211   3.188  0.00  0.00    +0.029 A 
BRANCH  19  21
ATOM     21  C   UNL     1      10.308 -11.318   3.925  0.00  0.00    +0.421 C 
ATOM     22  F   UNL     1      10.784 -10.011   3.775  0.00  0.00    -0.166 F 
ATOM     23  F   UNL     1      10.489 -11.730   5.250  0.00  0.00    -0.166 F 
ATOM     24  F   UNL     1      11.012 -12.172   3.070  0.00  0.00    -0.166 F 
ENDBRANCH  19  21
BRANCH  18  25
ATOM     25  O   UNL     1       8.789 -13.693   4.042  0.00  0.00    -0.495 OA
ATOM     26  C   UNL     1       8.013 -14.892   4.099  0.00  0.00    +0.277 C 
ENDBRANCH  18  25
ENDBRANCH  11  15
BRANCH   1  28
ATOM     27  N   UNL     1       0.591  -6.660   3.222  0.00  0.00    -0.309 N 
ATOM     28  C   UNL     1       1.491  -7.406   2.551  0.00  0.00    +0.219 C 
ATOM     29  O   UNL     1       1.217  -7.846   1.455  0.00  0.00    -0.275 OA
ATOM     30  H   UNL     1       0.810  -6.308   4.099  0.00  0.00    +0.149 HD
BRANCH  27  31
ATOM     31  C   UNL     1      -0.718  -6.381   2.627  0.00  0.00    +0.159 C 
BRANCH  31  38
ATOM     32  C   UNL     1      -5.083  -3.563   7.906  0.00  0.00    +0.044 C 
ATOM     33  C   UNL     1      -4.152  -3.668   6.725  0.00  0.00    -0.046 A 
ATOM     34  C   UNL     1      -3.731  -2.508   6.054  0.00  0.00    +0.021 A 
ATOM     35  C   UNL     1      -2.897  -2.598   4.996  0.00  0.00    +0.093 A 
ATOM     36  N   UNL     1      -2.453  -3.814   4.564  0.00  0.00    -0.308 N 
ATOM     37  C   UNL     1      -1.623  -4.186   3.541  0.00  0.00    +0.115 A 
ATOM     38  C   UNL     1      -1.530  -5.533   3.573  0.00  0.00    +0.051 A 
ATOM     39  N   UNL     1      -2.276  -5.989   4.582  0.00  0.00    -0.342 N 
ATOM     40  C   UNL     1      -2.847  -4.963   5.198  0.00  0.00    +0.116 A 
ATOM     41  C   UNL     1      -3.712  -4.885   6.308  0.00  0.00    +0.048 A 
ATOM     42  H   UNL     1      -2.384  -6.922   4.825  0.00  0.00    +0.167 HD
ENDBRANCH  31  38
ENDBRANCH  27  31
ENDBRANCH   1  28
TORSDOF 6
