REMARK  Name = ZINC21289895
REMARK  10 active torsions:
REMARK  status: ('A' for Active; 'I' for Inactive)
REMARK    1  A    between atoms: C_1  and  C_2
REMARK    2  A    between atoms: C_3  and  C_33
REMARK    3  A    between atoms: C_4  and  C_32
REMARK    4  A    between atoms: C_7  and  C_8
REMARK    5  A    between atoms: N_10  and  N_11
REMARK    6  A    between atoms: C_12  and  C_14
REMARK    7  A    between atoms: C_17  and  C_20
REMARK    8  A    between atoms: C_20  and  S_21
REMARK    9  A    between atoms: S_21  and  C_22
REMARK   10  A    between atoms: C_33  and  C_35
REMARK                            x       y       z     vdW  Elec       q    Type
REMARK                         _______ _______ _______ _____ _____    ______ ____
ROOT
ATOM      1  N   UNL     1      11.719   5.081   1.104  0.00  0.00    -0.230 N 
ATOM      2  C   UNL     1      11.104   4.776  -0.056  0.00  0.00    +0.260 C 
ATOM      3  O   UNL     1      11.690   4.922  -1.111  0.00  0.00    -0.269 OA
ATOM      4  H   UNL     1      11.189   4.949   2.058  0.00  0.00    +0.173 HD
ENDROOT
BRANCH   2   5
ATOM      5  C   UNL     1       9.717   4.265  -0.045  0.00  0.00    +0.038 A 
ATOM      6  C   UNL     1       9.077   3.949  -1.245  0.00  0.00    +0.013 A 
ATOM      7  C   UNL     1       7.783   3.472  -1.228  0.00  0.00    +0.005 A 
ATOM      8  C   UNL     1       7.119   3.307  -0.025  0.00  0.00    -0.037 A 
ATOM      9  C   UNL     1       7.745   3.624   1.167  0.00  0.00    +0.005 A 
ATOM     10  C   UNL     1       9.041   4.097   1.164  0.00  0.00    +0.013 A 
BRANCH   8  11
ATOM     11  C   UNL     1       5.705   2.787  -0.014  0.00  0.00    +0.112 C 
BRANCH  11  12
ATOM     12  S   UNL     1       5.728   0.980   0.097  0.00  0.00    -0.083 S 
BRANCH  12  13
ATOM     13  C   UNL     1       3.997   0.651   0.091  0.00  0.00    +0.168 A 
ATOM     14  N   UNL     1       3.434  -0.592   0.159  0.00  0.00    -0.333 N 
ATOM     15  H   UNL     1       4.075  -1.484   0.223  0.00  0.00    +0.168 HD
ATOM     16  C   UNL     1       2.059  -0.422   0.128  0.00  0.00    +0.067 A 
ATOM     17  C   UNL     1       0.982  -1.294   0.166  0.00  0.00    +0.028 A 
ATOM     18  C   UNL     1      -0.305  -0.799   0.111  0.00  0.00    +0.002 A 
ATOM     19  C   UNL     1      -0.529   0.567   0.029  0.00  0.00    +0.002 A 
ATOM     20  C   UNL     1       0.529   1.448  -0.009  0.00  0.00    +0.030 A 
ATOM     21  C   UNL     1       1.838   0.962   0.040  0.00  0.00    +0.090 A 
ATOM     22  N   UNL     1       3.057   1.562   0.021  0.00  0.00    -0.222 NA
ENDBRANCH  12  13
ENDBRANCH  11  12
ENDBRANCH   8  11
ENDBRANCH   2   5
BRANCH   1  25
ATOM     23  C   UNL     1      13.649   5.870   2.254  0.00  0.00    +0.277 C 
ATOM     24  O   UNL     1      13.062   5.724   3.310  0.00  0.00    -0.267 OA
ATOM     25  N   UNL     1      13.034   5.565   1.094  0.00  0.00    -0.229 N 
ATOM     26  H   UNL     1      13.564   5.697   0.139  0.00  0.00    +0.173 HD
BRANCH  23  33
ATOM     27  C   UNL     1      15.302   6.663   4.775  0.00  0.00    +0.047 C 
ATOM     28  C   UNL     1      15.756   6.726   3.340  0.00  0.00    -0.010 A 
ATOM     29  C   UNL     1      17.023   7.155   2.874  0.00  0.00    +0.041 A 
ATOM     30  C   UNL     1      17.001   7.055   1.492  0.00  0.00    +0.024 A 
ATOM     31  N   UNL     1      15.800   6.588   1.121  0.00  0.00    -0.354 N 
ATOM     32  H   UNL     1      15.575   6.433   0.056  0.00  0.00    +0.166 HD
ATOM     33  C   UNL     1      15.027   6.377   2.243  0.00  0.00    +0.107 A 
ATOM     34  C   UNL     1      18.134   7.411   0.564  0.00  0.00    +0.064 C 
BRANCH  29  35
ATOM     35  C   UNL     1      18.142   7.623   3.698  0.00  0.00    +0.162 C 
ATOM     36  O   UNL     1      18.957   6.830   4.121  0.00  0.00    -0.292 OA
ATOM     37  C   UNL     1      18.280   9.089   4.019  0.00  0.00    +0.091 C 
ENDBRANCH  29  35
ENDBRANCH  23  33
ENDBRANCH   1  25
TORSDOF 7
