REMARK  Name = ZINC62240773
REMARK  7 active torsions:
REMARK  status: ('A' for Active; 'I' for Inactive)
REMARK    1  A    between atoms: C_1  and  C_2
REMARK    2  A    between atoms: C_2  and  C_3
REMARK    3  A    between atoms: C_2  and  N_10
REMARK    4  A    between atoms: N_8  and  C_9
REMARK    5  A    between atoms: N_10  and  C_11
REMARK    6  A    between atoms: C_11  and  C_12
REMARK    7  A    between atoms: C_12  and  C_18
REMARK                            x       y       z     vdW  Elec       q    Type
REMARK                         _______ _______ _______ _____ _____    ______ ____
ROOT
ATOM      1  C   UNL     1       0.009  -0.111   2.376  0.00  0.00    -0.070 C 
ENDROOT
BRANCH   1   2
ATOM      2  C   UNL     1       0.653  -0.527   3.699  0.00  0.00    -0.014 C 
ATOM      3  C   UNL     1       1.986   0.208   3.873  0.00  0.00    +0.038 C 
ATOM      4  C   UNL     1       1.723   1.714   3.951  0.00  0.00    +0.160 C 
ATOM      5  O   UNL     1       0.828   1.985   5.031  0.00  0.00    -0.380 OA
ATOM      6  C   UNL     1      -0.451   1.363   4.899  0.00  0.00    +0.160 C 
ATOM      7  C   UNL     1      -0.276  -0.158   4.860  0.00  0.00    +0.038 C 
BRANCH   2   8
ATOM      8  C   UNL     1       0.892  -2.015   3.699  0.00  0.00    -0.024 A 
ATOM      9  C   UNL     1       0.593  -2.762   2.574  0.00  0.00    +0.007 A 
ATOM     10  C   UNL     1       0.812  -4.127   2.573  0.00  0.00    +0.020 A 
ATOM     11  C   UNL     1       1.330  -4.746   3.696  0.00  0.00    +0.042 A 
ATOM     12  C   UNL     1       1.629  -3.999   4.821  0.00  0.00    +0.040 A 
ATOM     13  C   UNL     1       1.415  -2.632   4.821  0.00  0.00    +0.046 A 
ATOM     14 CL   UNL     1       1.796  -1.693   6.230  0.00  0.00    -0.083 Cl
ATOM     15 CL   UNL     1       1.604  -6.460   3.694  0.00  0.00    -0.083 Cl
ENDBRANCH   2   8
ENDBRANCH   1   2
BRANCH   1  16
ATOM     16  N   UNL     1      -1.340  -0.686   2.286  0.00  0.00    +0.387 N 
ATOM     17  H   UNL     1      -1.877  -0.411   3.094  0.00  0.00    -0.085 HD
ATOM     18  H   UNL     1      -1.275  -1.692   2.251  0.00  0.00    -0.085 HD
BRANCH  16  20
ATOM     19  C   UNL     1      -1.257  -0.716  -0.162  0.00  0.00    -0.004 C 
ATOM     20  C   UNL     1      -2.001  -0.195   1.069  0.00  0.00    +0.013 C 
BRANCH  20  21
ATOM     21  C   UNL     1      -3.426  -0.686   1.039  0.00  0.00    +0.206 C 
ATOM     22  O   UNL     1      -3.849  -1.376   1.942  0.00  0.00    -0.277 OA
ATOM     23  N   UNL     1      -4.230  -0.357   0.009  0.00  0.00    -0.242 N 
ATOM     24  C   UNL     1      -5.504  -0.796  -0.018  0.00  0.00    +0.306 C 
ATOM     25  O   UNL     1      -5.928  -1.488   0.887  0.00  0.00    -0.252 OA
ATOM     26  N   UNL     1      -6.309  -0.468  -1.049  0.00  0.00    -0.302 N 
ATOM     27  C   UNL     1      -7.694  -0.945  -1.078  0.00  0.00    +0.129 C 
ATOM     28  H   UNL     1      -3.892   0.195  -0.714  0.00  0.00    +0.159 HD
ATOM     29  H   UNL     1      -5.971   0.084  -1.771  0.00  0.00    +0.150 HD
ENDBRANCH  20  21
ENDBRANCH  16  20
ENDBRANCH   1  16
TORSDOF 5
