REMARK  Name = ZINC39711492
REMARK  13 active torsions:
REMARK  status: ('A' for Active; 'I' for Inactive)
REMARK    1  A    between atoms: C_1  and  C_2
REMARK    2  A    between atoms: C_2  and  O_3
REMARK    3  A    between atoms: O_3  and  C_4
REMARK    4  A    between atoms: C_11  and  C_16
REMARK    5  A    between atoms: C_16  and  C_18
REMARK    6  A    between atoms: C_16  and  N_28
REMARK    7  A    between atoms: N_23  and  C_24
REMARK    8  A    between atoms: C_24  and  C_25
REMARK    9  A    between atoms: C_24  and  C_26
REMARK   10  A    between atoms: C_24  and  C_27
REMARK   11  A    between atoms: N_31  and  C_34
REMARK   12  A    between atoms: C_39  and  O_40
REMARK   13  A    between atoms: O_40  and  C_41
REMARK                            x       y       z     vdW  Elec       q    Type
REMARK                         _______ _______ _______ _____ _____    ______ ____
ROOT
ATOM      1  C   UNL     1       3.878  -5.987  -4.346  0.00  0.00    -0.009 C 
ENDROOT
BRANCH   1   9
ATOM      2  C   UNL     1       1.897  -9.814  -0.407  0.00  0.00    +0.121 A 
ATOM      3  C   UNL     1       0.974 -10.342  -1.317  0.00  0.00    +0.047 A 
ATOM      4  C   UNL     1       0.682  -9.738  -2.497  0.00  0.00    +0.027 A 
ATOM      5  C   UNL     1       1.310  -8.531  -2.858  0.00  0.00    +0.041 A 
ATOM      6  N   UNL     1       1.013  -7.948  -4.020  0.00  0.00    -0.285 N 
ATOM      7  C   UNL     1       1.565  -6.815  -4.421  0.00  0.00    +0.223 C 
ATOM      8  O   UNL     1       1.253  -6.331  -5.493  0.00  0.00    -0.275 OA
ATOM      9  C   UNL     1       2.583  -6.125  -3.543  0.00  0.00    +0.088 C 
ATOM     10  C   UNL     1       2.924  -6.783  -2.221  0.00  0.00    -0.006 C 
ATOM     11  C   UNL     1       2.286  -7.950  -1.921  0.00  0.00    -0.004 A 
ATOM     12  C   UNL     1       2.553  -8.648  -0.662  0.00  0.00    +0.055 A 
ATOM     13  H   UNL     1       0.362  -8.376  -4.598  0.00  0.00    +0.155 HD
BRANCH   2  14
ATOM     14  O   UNL     1       2.139 -10.474   0.756  0.00  0.00    -0.492 OA
BRANCH  14  16
ATOM     15  C   UNL     1       1.826 -12.287   2.323  0.00  0.00    +0.048 C 
ATOM     16  C   UNL     1       1.424 -11.693   0.971  0.00  0.00    +0.225 C 
ENDBRANCH  14  16
ENDBRANCH   2  14
ENDBRANCH   1   9
BRANCH   1  17
ATOM     17  N   UNL     1       4.204  -7.274  -4.974  0.00  0.00    +0.387 N 
ATOM     18  C   UNL     1       5.646  -7.333  -5.244  0.00  0.00    -0.059 C 
ATOM     19  C   UNL     1       6.005  -8.718  -5.794  0.00  0.00    +0.086 C 
ATOM     20  N   UNL     1       5.157  -8.989  -6.964  0.00  0.00    -0.331 N 
ATOM     21  C   UNL     1       3.705  -8.795  -6.828  0.00  0.00    +0.086 C 
ATOM     22  C   UNL     1       3.455  -7.407  -6.230  0.00  0.00    -0.059 C 
ATOM     23  H   UNL     1       3.950  -8.025  -4.351  0.00  0.00    -0.081 HD
BRANCH  20  24
ATOM     24  C   UNL     1       5.715  -9.420  -8.173  0.00  0.00    +0.072 A 
ATOM     25  C   UNL     1       5.867 -10.776  -8.425  0.00  0.00    +0.027 A 
ATOM     26  C   UNL     1       6.418 -11.199  -9.620  0.00  0.00    +0.002 A 
ATOM     27  C   UNL     1       6.818 -10.274 -10.566  0.00  0.00    +0.004 A 
ATOM     28  C   UNL     1       6.670  -8.921 -10.322  0.00  0.00    +0.047 A 
ATOM     29  C   UNL     1       6.114  -8.489  -9.130  0.00  0.00    +0.141 A 
BRANCH  29  30
ATOM     30  O   UNL     1       5.963  -7.159  -8.891  0.00  0.00    -0.493 OA
ATOM     31  C   UNL     1       6.394  -6.262  -9.917  0.00  0.00    +0.277 C 
ENDBRANCH  29  30
ENDBRANCH  20  24
ENDBRANCH   1  17
BRANCH   1  32
ATOM     32  C   UNL     1       5.016  -5.573  -3.410  0.00  0.00    +0.205 C 
ATOM     33  N   UNL     1       5.132  -6.521  -2.293  0.00  0.00    -0.152 NA
ATOM     34  N   UNL     1       4.938  -5.917  -1.236  0.00  0.00    -0.070 NA
ATOM     35  N   UNL     1       4.677  -4.561  -1.426  0.00  0.00    -0.179 N 
ATOM     36  N   UNL     1       4.712  -4.277  -2.769  0.00  0.00    -0.183 NA
ATOM     37  H   UNL     1       4.498  -3.919  -0.721  0.00  0.00    +0.191 HD
BRANCH  36  38
ATOM     38  C   UNL     1       3.421  -3.751  -3.231  0.00  0.00    +0.035 C 
ATOM     39  C   UNL     1       2.300  -4.307  -2.351  0.00  0.00    +0.029 C 
ATOM     40  C   UNL     1       3.430  -2.224  -3.142  0.00  0.00    +0.029 C 
ATOM     41  C   UNL     1       3.187  -4.176  -4.682  0.00  0.00    +0.029 C 
ENDBRANCH  36  38
ENDBRANCH   1  32
TORSDOF 8
