REMARK  Name = ZINC12127239
REMARK  13 active torsions:
REMARK  status: ('A' for Active; 'I' for Inactive)
REMARK    1  A    between atoms: C_1  and  N_72
REMARK    2  A    between atoms: C_2  and  N_72
REMARK    3  A    between atoms: C_3  and  C_4
REMARK    4  A    between atoms: C_3  and  N_72
REMARK    5  A    between atoms: C_4  and  C_5
REMARK    6  A    between atoms: C_5  and  N_6
REMARK    7  A    between atoms: C_9  and  C_13
REMARK    8  A    between atoms: C_9  and  C_21
REMARK    9  A    between atoms: C_13  and  C_14
REMARK   10  A    between atoms: C_26  and  C_27
REMARK   11  A    between atoms: C_26  and  N_74
REMARK   12  A    between atoms: C_31  and  O_33
REMARK   13  A    between atoms: O_33  and  C_34
REMARK                            x       y       z     vdW  Elec       q    Type
REMARK                         _______ _______ _______ _____ _____    ______ ____
ROOT
ATOM      1  N   UNL     1       0.764   8.724  -5.886  0.00  0.00    -0.224 N 
ATOM      2  C   UNL     1       0.415   7.458  -5.580  0.00  0.00    +0.247 C 
ATOM      3  O   UNL     1       1.119   6.473  -5.626  0.00  0.00    -0.273 OA
ATOM      4  C   UNL     1      -1.042   7.524  -5.165  0.00  0.00    +0.119 C 
ATOM      5  N   UNL     1      -1.376   8.953  -5.298  0.00  0.00    -0.284 N 
ATOM      6  C   UNL     1      -0.259   9.571  -5.723  0.00  0.00    +0.309 C 
ATOM      7  O   UNL     1      -0.188  10.765  -5.937  0.00  0.00    -0.252 OA
ATOM      8  H   UNL     1      -2.233   9.367  -5.113  0.00  0.00    +0.151 HD
ENDROOT
BRANCH   4   9
ATOM      9  C   UNL     1      -1.210   7.064  -3.715  0.00  0.00    +0.018 C 
ATOM     10  C   UNL     1      -0.204   7.800  -2.825  0.00  0.00    -0.013 C 
ATOM     11  C   UNL     1      -0.337   7.294  -1.387  0.00  0.00    -0.078 C 
ATOM     12  C   UNL     1      -1.065   5.116  -2.161  0.00  0.00    -0.078 C 
ATOM     13  C   UNL     1      -0.955   5.558  -3.622  0.00  0.00    -0.013 C 
ATOM     14  N   UNL     1      -0.056   5.843  -1.362  0.00  0.00    +0.382 N 
ATOM     15  H   UNL     1       0.873   5.676  -1.768  0.00  0.00    -0.081 HD
BRANCH  14  16
ATOM     16  C   UNL     1      -0.065   5.351   0.031  0.00  0.00    -0.043 C 
BRANCH  16  17
ATOM     17  C   UNL     1      -0.049   3.844   0.023  0.00  0.00    -0.060 A 
ATOM     18  C   UNL     1       1.156   3.166   0.008  0.00  0.00    +0.002 A 
ATOM     19  C   UNL     1       1.174   1.783   0.000  0.00  0.00    +0.004 A 
ATOM     20  C   UNL     1      -0.013   1.076   0.008  0.00  0.00    +0.045 A 
ATOM     21  C   UNL     1      -1.223   1.754   0.017  0.00  0.00    +0.120 A 
ATOM     22  C   UNL     1      -1.238   3.141   0.029  0.00  0.00    +0.047 A 
BRANCH  21  23
ATOM     23  O   UNL     1      -2.391   1.060   0.019  0.00  0.00    -0.495 OA
ATOM     24  C   UNL     1      -2.299  -0.366   0.011  0.00  0.00    +0.277 C 
ENDBRANCH  21  23
ENDBRANCH  16  17
ENDBRANCH  14  16
ENDBRANCH   4   9
BRANCH   1  25
ATOM     25  C   UNL     1       2.098   9.122  -6.340  0.00  0.00    +0.116 C 
BRANCH  25  26
ATOM     26  C   UNL     1       2.963   9.482  -5.130  0.00  0.00    +0.001 C 
BRANCH  26  27
ATOM     27  C   UNL     1       4.357   9.898  -5.605  0.00  0.00    -0.078 C 
BRANCH  27  30
ATOM     28  C   UNL     1       6.592  10.418  -4.835  0.00  0.00    -0.097 C 
ATOM     29  C   UNL     1       4.675  11.443  -3.768  0.00  0.00    -0.097 C 
ATOM     30  N   UNL     1       5.186  10.221  -4.425  0.00  0.00    +0.376 N 
ATOM     31  H   UNL     1       5.138   9.440  -3.760  0.00  0.00    -0.083 HD
ENDBRANCH  27  30
ENDBRANCH  26  27
ENDBRANCH  25  26
ENDBRANCH   1  25
BRANCH   4  32
ATOM     32  C   UNL     1      -1.910   6.679  -6.100  0.00  0.00    +0.070 C 
BRANCH  32  33
ATOM     33  C   UNL     1      -1.726   7.152  -7.519  0.00  0.00    -0.045 A 
ATOM     34  C   UNL     1      -2.549   8.137  -8.031  0.00  0.00    +0.006 A 
ATOM     35  C   UNL     1      -2.378   8.575  -9.331  0.00  0.00    +0.038 A 
ATOM     36  C   UNL     1      -1.390   8.018 -10.124  0.00  0.00    +0.123 A 
ATOM     37  C   UNL     1      -0.569   7.027  -9.612  0.00  0.00    +0.038 A 
ATOM     38  C   UNL     1      -0.738   6.595  -8.310  0.00  0.00    +0.006 A 
ATOM     39  F   UNL     1      -1.226   8.441 -11.396  0.00  0.00    -0.205 F 
ENDBRANCH  32  33
ENDBRANCH   4  32
TORSDOF 10
