REMARK  Name = ZINC39695963
REMARK  11 active torsions:
REMARK  status: ('A' for Active; 'I' for Inactive)
REMARK    1  A    between atoms: C_1  and  C_2
REMARK    2  A    between atoms: C_2  and  C_3
REMARK    3  A    between atoms: C_6  and  C_9
REMARK    4  A    between atoms: C_9  and  C_11
REMARK    5  A    between atoms: C_9  and  N_12
REMARK    6  A    between atoms: C_13  and  C_15
REMARK    7  A    between atoms: C_26  and  C_28
REMARK    8  A    between atoms: C_31  and  O_36
REMARK    9  A    between atoms: C_32  and  O_34
REMARK   10  A    between atoms: O_34  and  C_35
REMARK   11  A    between atoms: O_36  and  C_37
REMARK                            x       y       z     vdW  Elec       q    Type
REMARK                         _______ _______ _______ _____ _____    ______ ____
ROOT
ATOM      1  C   UNL     1       2.907  -0.125   7.801  0.00  0.00    +0.100 C 
ATOM      2  C   UNL     1       2.397   1.332   7.736  0.00  0.00    +0.121 C 
ATOM      3  N   UNL     1       2.747   1.910   9.056  0.00  0.00    -0.296 N 
ATOM      4  C   UNL     1       4.085   1.350   9.360  0.00  0.00    +0.115 C 
ATOM      5  C   UNL     1       4.015  -0.109   8.867  0.00  0.00    -0.004 C 
ATOM      6  C   UNL     1       3.652  -1.039  10.021  0.00  0.00    -0.010 C 
ATOM      7  C   UNL     1       4.794  -1.049  11.041  0.00  0.00    -0.082 C 
ATOM      8  N   UNL     1       6.029  -1.503  10.391  0.00  0.00    +0.379 N 
ATOM      9  C   UNL     1       6.422  -0.553   9.343  0.00  0.00    -0.082 C 
ATOM     10  C   UNL     1       5.348  -0.522   8.251  0.00  0.00    -0.010 C 
ATOM     11  C   UNL     1       2.013   2.753   9.808  0.00  0.00    +0.247 C 
ATOM     12  O   UNL     1       0.874   3.025   9.482  0.00  0.00    -0.270 OA
ATOM     13  H   UNL     1       6.765  -1.568  11.078  0.00  0.00    -0.086 HD
ATOM     14  H   UNL     1       5.877  -2.412   9.979  0.00  0.00    -0.086 HD
ENDROOT
BRANCH  11  15
ATOM     15  C   UNL     1       2.594   3.349  11.028  0.00  0.00    +0.041 A 
ATOM     16  C   UNL     1       3.980   3.411  11.185  0.00  0.00    +0.017 A 
ATOM     17  C   UNL     1       4.521   3.967  12.324  0.00  0.00    +0.050 A 
ATOM     18  C   UNL     1       3.689   4.466  13.318  0.00  0.00    +0.162 A 
ATOM     19  C   UNL     1       2.305   4.406  13.168  0.00  0.00    +0.162 A 
ATOM     20  C   UNL     1       1.757   3.855  12.026  0.00  0.00    +0.062 A 
BRANCH  19  21
ATOM     21  O   UNL     1       1.494   4.894  14.144  0.00  0.00    -0.491 OA
ATOM     22  C   UNL     1       0.085   4.800  13.924  0.00  0.00    +0.277 C 
ENDBRANCH  19  21
BRANCH  18  23
ATOM     23  O   UNL     1       4.227   5.013  14.439  0.00  0.00    -0.491 OA
ATOM     24  C   UNL     1       5.653   5.041  14.528  0.00  0.00    +0.277 C 
ENDBRANCH  18  23
ENDBRANCH  11  15
BRANCH   1  26
ATOM     25  N   UNL     1       3.407  -1.835   6.085  0.00  0.00    -0.308 N 
ATOM     26  C   UNL     1       3.469  -0.544   6.467  0.00  0.00    +0.219 C 
ATOM     27  O   UNL     1       3.977   0.280   5.737  0.00  0.00    -0.275 OA
ATOM     28  H   UNL     1       3.000  -2.495   6.669  0.00  0.00    +0.149 HD
BRANCH  25  29
ATOM     29  C   UNL     1       3.953  -2.243   4.788  0.00  0.00    +0.100 C 
ATOM     30  C   UNL     1       5.453  -2.509   4.927  0.00  0.00    +0.033 C 
BRANCH  29  34
ATOM     31  C   UNL     1       1.994  -5.803   3.471  0.00  0.00    -0.048 A 
ATOM     32  C   UNL     1       2.289  -4.801   2.565  0.00  0.00    +0.004 A 
ATOM     33  C   UNL     1       2.923  -3.649   2.991  0.00  0.00    +0.006 A 
ATOM     34  C   UNL     1       3.261  -3.498   4.323  0.00  0.00    -0.027 A 
ATOM     35  C   UNL     1       2.965  -4.499   5.229  0.00  0.00    +0.006 A 
ATOM     36  C   UNL     1       2.327  -5.650   4.804  0.00  0.00    +0.004 A 
BRANCH  31  38
ATOM     37  C   UNL     1      -0.213  -6.871   3.099  0.00  0.00    +0.009 C 
ATOM     38  C   UNL     1       1.303  -7.059   3.006  0.00  0.00    +0.032 C 
ENDBRANCH  31  38
ENDBRANCH  29  34
ENDBRANCH  25  29
ENDBRANCH   1  26
TORSDOF 7
