REMARK  Name = ZINC35671609
REMARK  10 active torsions:
REMARK  status: ('A' for Active; 'I' for Inactive)
REMARK    1  A    between atoms: C_5  and  C_7
REMARK    2  A    between atoms: C_7  and  O_8
REMARK    3  A    between atoms: O_8  and  C_9
REMARK    4  A    between atoms: C_12  and  C_15
REMARK    5  A    between atoms: C_17  and  C_34
REMARK    6  A    between atoms: C_18  and  N_20
REMARK    7  A    between atoms: N_20  and  C_21
REMARK    8  A    between atoms: C_21  and  C_22
REMARK    9  A    between atoms: C_22  and  C_24
REMARK   10  A    between atoms: C_22  and  N_29
REMARK                            x       y       z     vdW  Elec       q    Type
REMARK                         _______ _______ _______ _____ _____    ______ ____
ROOT
ATOM      1  C   UNL     1      -0.700  -8.325  -0.336  0.00  0.00    +0.231 A 
ATOM      2  N   UNL     1       0.253  -9.209  -0.190  0.00  0.00    -0.196 NA
ATOM      3  C   UNL     1      -0.312 -10.440  -0.069  0.00  0.00    +0.201 A 
ATOM      4  C   UNL     1      -1.685 -10.263  -0.151  0.00  0.00    +0.225 A 
ATOM      5  O   UNL     1      -1.896  -8.944  -0.310  0.00  0.00    -0.421 OA
ENDROOT
BRANCH   1   9
ATOM      6  C   UNL     1      -0.113  -4.144  -0.805  0.00  0.00    +0.121 A 
ATOM      7  C   UNL     1       0.983  -4.985  -0.663  0.00  0.00    +0.046 A 
ATOM      8  C   UNL     1       0.797  -6.342  -0.511  0.00  0.00    +0.017 A 
ATOM      9  C   UNL     1      -0.496  -6.871  -0.499  0.00  0.00    +0.037 A 
ATOM     10  C   UNL     1      -1.595  -6.021  -0.642  0.00  0.00    +0.017 A 
ATOM     11  C   UNL     1      -1.400  -4.665  -0.789  0.00  0.00    +0.046 A 
BRANCH   6  12
ATOM     12  O   UNL     1       0.075  -2.807  -0.955  0.00  0.00    -0.487 OA
BRANCH  12  13
ATOM     13  C   UNL     1       1.425  -2.338  -0.963  0.00  0.00    +0.266 C 
BRANCH  13  18
ATOM     14  C   UNL     1       0.255   1.222  -1.420  0.00  0.00    +0.000 A 
ATOM     15  C   UNL     1       1.456   1.906  -1.458  0.00  0.00    +0.001 A 
ATOM     16  C   UNL     1       2.647   1.216  -1.336  0.00  0.00    +0.020 A 
ATOM     17  C   UNL     1       2.638  -0.158  -1.175  0.00  0.00    +0.047 A 
ATOM     18  C   UNL     1       1.436  -0.841  -1.137  0.00  0.00    +0.008 A 
ATOM     19  C   UNL     1       0.244  -0.151  -1.260  0.00  0.00    +0.008 A 
ATOM     20 CL   UNL     1       4.135  -1.024  -1.023  0.00  0.00    -0.083 Cl
ENDBRANCH  13  18
ENDBRANCH  12  13
ENDBRANCH   6  12
ENDBRANCH   1   9
BRANCH   4  21
ATOM     21  N   UNL     1      -2.647 -11.247  -0.077  0.00  0.00    -0.314 N 
ATOM     22  H   UNL     1      -2.385 -12.173   0.044  0.00  0.00    +0.149 HD
BRANCH  21  23
ATOM     23  C   UNL     1      -4.065 -10.894  -0.182  0.00  0.00    +0.097 C 
BRANCH  23  24
ATOM     24  C   UNL     1      -4.909 -12.170  -0.177  0.00  0.00    +0.016 C 
BRANCH  24  25
ATOM     25  N   UNL     1      -6.317 -11.826  -0.415  0.00  0.00    +0.387 N 
ATOM     26  C   UNL     1      -6.476 -11.219  -1.761  0.00  0.00    -0.078 C 
ATOM     27  C   UNL     1      -7.977 -11.441  -2.076  0.00  0.00    -0.020 C 
ATOM     28  C   UNL     1      -8.252 -12.839  -1.476  0.00  0.00    -0.020 C 
ATOM     29  C   UNL     1      -7.147 -13.050  -0.425  0.00  0.00    -0.078 C 
ATOM     30  H   UNL     1      -6.646 -11.189   0.296  0.00  0.00    -0.081 HD
ENDBRANCH  24  25
BRANCH  24  31
ATOM     31  C   UNL     1      -4.778 -12.854   1.160  0.00  0.00    +0.093 A 
ATOM     32  C   UNL     1      -3.982 -13.903   1.432  0.00  0.00    +0.043 A 
ATOM     33  C   UNL     1      -4.172 -14.219   2.797  0.00  0.00    +0.041 A 
ATOM     34  C   UNL     1      -5.074 -13.344   3.277  0.00  0.00    +0.195 A 
ATOM     35  O   UNL     1      -5.433 -12.516   2.283  0.00  0.00    -0.469 OA
ENDBRANCH  24  31
ENDBRANCH  23  24
ENDBRANCH  21  23
ENDBRANCH   4  21
BRANCH   3  36
ATOM     36  C   UNL     1       0.379 -11.682   0.108  0.00  0.00    +0.124 C 
ATOM     37  N   UNL     1       0.926 -12.667   0.248  0.00  0.00    -0.189 NA
ENDBRANCH   3  36
TORSDOF 10
