REMARK  Name = ZINC12278975
REMARK  9 active torsions:
REMARK  status: ('A' for Active; 'I' for Inactive)
REMARK    1  A    between atoms: C_1  and  O_2
REMARK    2  A    between atoms: O_2  and  C_3
REMARK    3  A    between atoms: C_6  and  C_13
REMARK    4  A    between atoms: C_13  and  C_14
REMARK    5  A    between atoms: C_14  and  C_20
REMARK    6  A    between atoms: C_20  and  C_21
REMARK    7  A    between atoms: C_21  and  C_22
REMARK    8  A    between atoms: N_24  and  C_25
REMARK    9  A    between atoms: C_25  and  C_26
REMARK                            x       y       z     vdW  Elec       q    Type
REMARK                         _______ _______ _______ _____ _____    ______ ____
ROOT
ATOM      1  C   UNL     1       2.917   4.231   1.433  0.00  0.00    +0.039 C 
ATOM      2  C   UNL     1       4.277   4.963   1.447  0.00  0.00    +0.035 C 
ATOM      3  C   UNL     1       4.911   4.426   2.752  0.00  0.00    +0.098 C 
ATOM      4  C   UNL     1       4.232   3.092   2.972  0.00  0.00    +0.214 C 
ATOM      5  O   UNL     1       4.631   2.225   3.720  0.00  0.00    -0.276 OA
ATOM      6  N   UNL     1       3.120   3.008   2.219  0.00  0.00    -0.309 N 
ATOM      7  H   UNL     1       2.530   2.239   2.196  0.00  0.00    +0.149 HD
ENDROOT
BRANCH   1   8
ATOM      8  C   UNL     1       2.520   3.879  -0.002  0.00  0.00    +0.061 C 
BRANCH   8  12
ATOM      9  C   UNL     1      -1.211   1.733   0.017  0.00  0.00    +0.128 A 
ATOM     10  C   UNL     1      -0.013   1.076   0.008  0.00  0.00    +0.046 A 
ATOM     11  C   UNL     1       1.189   1.778   0.000  0.00  0.00    +0.008 A 
ATOM     12  C   UNL     1       1.207   3.140   0.007  0.00  0.00    -0.037 A 
ATOM     13  C   UNL     1      -0.004   3.853   0.023  0.00  0.00    -0.011 A 
ATOM     14  C   UNL     1      -1.230   3.143   0.031  0.00  0.00    +0.024 A 
ATOM     15  C   UNL     1      -2.439   3.856   0.045  0.00  0.00    +0.012 A 
ATOM     16  C   UNL     1      -2.419   5.217   0.052  0.00  0.00    +0.001 A 
ATOM     17  C   UNL     1      -1.214   5.916   0.044  0.00  0.00    +0.001 A 
ATOM     18  C   UNL     1      -0.023   5.259   0.030  0.00  0.00    +0.009 A 
BRANCH   9  20
ATOM     19  C   UNL     1      -2.275  -0.392   0.010  0.00  0.00    +0.277 C 
ATOM     20  O   UNL     1      -2.375   1.034   0.019  0.00  0.00    -0.495 OA
ENDBRANCH   9  20
ENDBRANCH   8  12
ENDBRANCH   1   8
BRANCH   1  21
ATOM     21  C   UNL     1       1.839   5.104   2.081  0.00  0.00    +0.035 C 
BRANCH  21  22
ATOM     22  C   UNL     1       2.253   5.445   3.514  0.00  0.00    +0.098 C 
BRANCH  22  23
ATOM     23  C   UNL     1       1.192   6.304   4.152  0.00  0.00    +0.213 C 
ATOM     24  O   UNL     1       0.203   6.613   3.523  0.00  0.00    -0.276 OA
ATOM     25  N   UNL     1       1.343   6.729   5.422  0.00  0.00    -0.308 N 
ATOM     26  H   UNL     1       2.135   6.483   5.925  0.00  0.00    +0.149 HD
BRANCH  25  27
ATOM     27  C   UNL     1       0.312   7.565   6.042  0.00  0.00    +0.178 C 
BRANCH  27  28
ATOM     28  C   UNL     1       0.719   7.901   7.454  0.00  0.00    +0.128 A 
ATOM     29  N   UNL     1      -0.114   8.674   8.198  0.00  0.00    -0.309 N 
ATOM     30  H   UNL     1      -0.946   8.992   7.814  0.00  0.00    +0.170 HD
ATOM     31  C   UNL     1       0.206   9.003   9.471  0.00  0.00    +0.259 A 
ATOM     32  O   UNL     1      -0.531   9.695  10.150  0.00  0.00    -0.267 OA
ATOM     33  C   UNL     1       1.479   8.494  10.003  0.00  0.00    +0.065 A 
ATOM     34  C   UNL     1       1.901   8.775  11.301  0.00  0.00    +0.015 A 
ATOM     35  C   UNL     1       3.102   8.271  11.748  0.00  0.00    +0.001 A 
ATOM     36  C   UNL     1       3.893   7.488  10.917  0.00  0.00    +0.002 A 
ATOM     37  C   UNL     1       3.494   7.199   9.631  0.00  0.00    +0.028 A 
ATOM     38  C   UNL     1       2.280   7.698   9.155  0.00  0.00    +0.078 A 
ATOM     39  N   UNL     1       1.846   7.433   7.897  0.00  0.00    -0.232 NA
ENDBRANCH  27  28
ENDBRANCH  25  27
ENDBRANCH  22  23
ENDBRANCH  21  22
ENDBRANCH   1  21
TORSDOF 8
