REMARK  Name = ZINC14536038
REMARK  10 active torsions:
REMARK  status: ('A' for Active; 'I' for Inactive)
REMARK    1  A    between atoms: C_1  and  O_2
REMARK    2  A    between atoms: O_2  and  C_3
REMARK    3  A    between atoms: C_8  and  C_9
REMARK    4  A    between atoms: N_13  and  C_16
REMARK    5  A    between atoms: C_16  and  C_17
REMARK    6  A    between atoms: C_26  and  C_27
REMARK    7  A    between atoms: C_26  and  N_66
REMARK    8  A    between atoms: C_30  and  O_35
REMARK    9  A    between atoms: C_31  and  O_33
REMARK   10  A    between atoms: O_33  and  C_34
REMARK                            x       y       z     vdW  Elec       q    Type
REMARK                         _______ _______ _______ _____ _____    ______ ____
ROOT
ATOM      1  C   UNL     1       1.720   5.602  -6.505  0.00  0.00    +0.050 A 
ATOM      2  C   UNL     1       1.107   5.341  -5.292  0.00  0.00    +0.017 A 
ATOM      3  C   UNL     1       1.889   5.233  -4.130  0.00  0.00    -0.044 A 
ATOM      4  C   UNL     1       3.230   5.379  -4.205  0.00  0.00    +0.022 A 
ATOM      5  N   UNL     1       3.834   5.641  -5.400  0.00  0.00    -0.307 N 
ATOM      6  C   UNL     1       3.127   5.754  -6.537  0.00  0.00    +0.260 A 
ATOM      7  O   UNL     1       3.695   5.987  -7.591  0.00  0.00    -0.267 OA
ATOM      8  C   UNL     1       4.111   5.260  -2.985  0.00  0.00    +0.035 C 
ATOM      9  C   UNL     1       3.271   5.394  -1.715  0.00  0.00    -0.072 C 
ATOM     10  C   UNL     1       1.181   4.961  -2.828  0.00  0.00    -0.041 C 
ATOM     11  N   UNL     1       2.135   4.457  -1.828  0.00  0.00    +0.385 N 
ATOM     12  H   UNL     1       2.484   3.539  -2.129  0.00  0.00    -0.081 HD
ENDROOT
BRANCH   1  18
ATOM     13  C   UNL     1       0.925   4.683  -8.686  0.00  0.00    +0.128 A 
ATOM     14  C   UNL     1       0.169   4.798  -9.841  0.00  0.00    +0.046 A 
ATOM     15  C   UNL     1      -0.581   5.937 -10.068  0.00  0.00    +0.004 A 
ATOM     16  C   UNL     1      -0.585   6.966  -9.142  0.00  0.00    +0.001 A 
ATOM     17  C   UNL     1       0.160   6.863  -7.984  0.00  0.00    +0.012 A 
ATOM     18  C   UNL     1       0.919   5.718  -7.746  0.00  0.00    +0.029 A 
BRANCH  13  20
ATOM     19  C   UNL     1       1.623   2.550  -9.469  0.00  0.00    +0.277 C 
ATOM     20  O   UNL     1       1.666   3.565  -8.465  0.00  0.00    -0.495 OA
ENDBRANCH  13  20
ENDBRANCH   1  18
BRANCH   5  21
ATOM     21  C   UNL     1       5.289   5.802  -5.444  0.00  0.00    +0.160 C 
BRANCH  21  22
ATOM     22  C   UNL     1       5.932   4.477  -5.764  0.00  0.00    -0.028 A 
ATOM     23  C   UNL     1       6.404   3.674  -4.742  0.00  0.00    +0.005 A 
ATOM     24  C   UNL     1       6.990   2.457  -5.035  0.00  0.00    +0.000 A 
ATOM     25  C   UNL     1       7.112   2.047  -6.349  0.00  0.00    +0.000 A 
ATOM     26  C   UNL     1       6.645   2.852  -7.371  0.00  0.00    +0.000 A 
ATOM     27  C   UNL     1       6.055   4.067  -7.078  0.00  0.00    +0.005 A 
ENDBRANCH  21  22
ENDBRANCH   5  21
BRANCH  11  28
ATOM     28  C   UNL     1       1.465   4.310  -0.516  0.00  0.00    -0.042 C 
BRANCH  28  29
ATOM     29  C   UNL     1       0.166   3.569  -0.702  0.00  0.00    -0.060 A 
ATOM     30  C   UNL     1       0.143   2.189  -0.630  0.00  0.00    +0.005 A 
ATOM     31  C   UNL     1      -1.046   1.505  -0.800  0.00  0.00    +0.049 A 
ATOM     32  C   UNL     1      -2.217   2.202  -1.050  0.00  0.00    +0.158 A 
ATOM     33  C   UNL     1      -2.195   3.592  -1.117  0.00  0.00    +0.161 A 
ATOM     34  C   UNL     1      -1.000   4.271  -0.946  0.00  0.00    +0.051 A 
BRANCH  33  35
ATOM     35  O   UNL     1      -3.342   4.281  -1.357  0.00  0.00    -0.491 OA
ATOM     36  C   UNL     1      -3.243   5.705  -1.419  0.00  0.00    +0.277 C 
ENDBRANCH  33  35
BRANCH  32  37
ATOM     37  O   UNL     1      -3.387   1.530  -1.223  0.00  0.00    -0.503 OA
ATOM     38  H   UNL     1      -3.881   1.384  -0.405  0.00  0.00    +0.292 HD
ENDBRANCH  32  37
ENDBRANCH  28  29
ENDBRANCH  11  28
TORSDOF 8
