REMARK  Name = ZINC12562229
REMARK  11 active torsions:
REMARK  status: ('A' for Active; 'I' for Inactive)
REMARK    1  A    between atoms: C_1  and  C_2
REMARK    2  A    between atoms: C_2  and  O_3
REMARK    3  A    between atoms: O_3  and  C_4
REMARK    4  A    between atoms: C_9  and  N_10
REMARK    5  A    between atoms: N_10  and  C_11
REMARK    6  A    between atoms: C_11  and  C_13
REMARK    7  A    between atoms: C_11  and  C_14
REMARK    8  A    between atoms: N_16  and  C_17
REMARK    9  A    between atoms: C_20  and  S_23
REMARK   10  A    between atoms: S_23  and  N_26
REMARK   11  A    between atoms: C_28  and  C_31
REMARK                            x       y       z     vdW  Elec       q    Type
REMARK                         _______ _______ _______ _____ _____    ______ ____
ROOT
ATOM      1  C   UNL     1       2.021  -4.248   2.350  0.00  0.00    +0.154 C 
ATOM      2  C   UNL     1       0.959  -4.175   3.449  0.00  0.00    +0.038 C 
ENDROOT
BRANCH   1   3
ATOM      3  C   UNL     1       2.694  -5.596   2.391  0.00  0.00    +0.237 C 
ATOM      4  O   UNL     1       3.889  -5.672   2.581  0.00  0.00    -0.273 OA
ATOM      5  N   UNL     1       1.967  -6.718   2.216  0.00  0.00    -0.284 N 
ATOM      6  H   UNL     1       1.001  -6.663   2.140  0.00  0.00    +0.155 HD
BRANCH   5   7
ATOM      7  C   UNL     1       2.605  -7.961   2.143  0.00  0.00    +0.034 A 
ATOM      8  C   UNL     1       3.866  -8.063   1.571  0.00  0.00    +0.025 A 
ATOM      9  C   UNL     1       4.496  -9.291   1.507  0.00  0.00    +0.030 A 
ATOM     10  C   UNL     1       3.867 -10.419   2.001  0.00  0.00    +0.105 A 
ATOM     11  C   UNL     1       2.609 -10.321   2.566  0.00  0.00    +0.030 A 
ATOM     12  C   UNL     1       1.976  -9.096   2.639  0.00  0.00    +0.025 A 
BRANCH  10  13
ATOM     13  S   UNL     1       4.671 -11.984   1.910  0.00  0.00    +0.056 S 
ATOM     14  O   UNL     1       6.065 -11.721   1.832  0.00  0.00    -0.153 OA
ATOM     15  O   UNL     1       4.104 -12.792   2.933  0.00  0.00    -0.153 OA
BRANCH  13  16
ATOM     16  N   UNL     1       4.238 -12.674   0.468  0.00  0.00    -0.204 NA
ATOM     17  H   UNL     1       3.642 -12.203  -0.136  0.00  0.00    +0.144 HD
ATOM     18  H   UNL     1       4.580 -13.549   0.227  0.00  0.00    +0.144 HD
ENDBRANCH  13  16
ENDBRANCH  10  13
ENDBRANCH   5   7
ENDBRANCH   1   3
BRANCH   1  19
ATOM     19  N   UNL     1       3.019  -3.198   2.565  0.00  0.00    -0.330 N 
ATOM     20  H   UNL     1       3.837  -3.397   3.048  0.00  0.00    +0.147 HD
BRANCH  19  26
ATOM     21  C   UNL     1       3.743  -0.909   2.280  0.00  0.00    +0.142 A 
ATOM     22  C   UNL     1       3.511   0.368   1.794  0.00  0.00    +0.055 A 
ATOM     23  C   UNL     1       2.345   0.645   1.113  0.00  0.00    +0.001 A 
ATOM     24  C   UNL     1       1.394  -0.343   0.894  0.00  0.00    +0.126 A 
ATOM     25  C   UNL     1       1.625  -1.624   1.386  0.00  0.00    +0.072 A 
ATOM     26  C   UNL     1       2.793  -1.907   2.075  0.00  0.00    +0.073 A 
ATOM     27  O   UNL     1       0.332   0.143   0.192  0.00  0.00    -0.488 OA
ATOM     28  C   UNL     1       0.317   1.577   0.287  0.00  0.00    +0.175 C 
ATOM     29  C   UNL     1       1.810   1.922   0.493  0.00  0.00    +0.083 C 
ATOM     30  C   UNL     1      -0.515   2.031   1.488  0.00  0.00    +0.052 C 
BRANCH  21  31
ATOM     31  O   UNL     1       4.893  -1.187   2.953  0.00  0.00    -0.490 OA
BRANCH  31  33
ATOM     32  C   UNL     1       7.042  -0.613   3.899  0.00  0.00    +0.048 C 
ATOM     33  C   UNL     1       5.820  -0.113   3.125  0.00  0.00    +0.226 C 
ENDBRANCH  31  33
ENDBRANCH  21  31
ENDBRANCH  19  26
ENDBRANCH   1  19
TORSDOF 8
