REMARK  Name = ZINC58312675
REMARK  13 active torsions:
REMARK  status: ('A' for Active; 'I' for Inactive)
REMARK    1  A    between atoms: C_1  and  C_2
REMARK    2  A    between atoms: C_2  and  C_3
REMARK    3  A    between atoms: C_2  and  C_4
REMARK    4  A    between atoms: C_4  and  N_5
REMARK    5  A    between atoms: C_6  and  N_33
REMARK    6  A    between atoms: C_7  and  N_14
REMARK    7  A    between atoms: N_14  and  C_15
REMARK    8  A    between atoms: C_15  and  C_16
REMARK    9  A    between atoms: C_16  and  O_17
REMARK   10  A    between atoms: O_17  and  C_18
REMARK   11  A    between atoms: C_19  and  C_21
REMARK   12  A    between atoms: C_21  and  N_22
REMARK   13  A    between atoms: N_22  and  C_23
REMARK                            x       y       z     vdW  Elec       q    Type
REMARK                         _______ _______ _______ _____ _____    ______ ____
ROOT
ATOM      1  N   UNL     1      -4.057   2.635  -2.637  0.00  0.00    -0.261 N 
ATOM      2  C   UNL     1      -3.833   3.560  -1.680  0.00  0.00    +0.237 C 
ATOM      3  O   UNL     1      -3.264   3.248  -0.656  0.00  0.00    -0.274 OA
ENDROOT
BRANCH   1   6
ATOM      4  N   UNL     1      -2.093  -0.428  -3.149  0.00  0.00    -0.280 N 
ATOM      5  C   UNL     1      -2.565   0.852  -3.323  0.00  0.00    +0.127 A 
ATOM      6  C   UNL     1      -3.552   1.326  -2.484  0.00  0.00    +0.140 A 
ATOM      7  C   UNL     1      -4.047   0.481  -1.472  0.00  0.00    +0.277 A 
ATOM      8  O   UNL     1      -4.919   0.875  -0.717  0.00  0.00    -0.266 OA
ATOM      9  N   UNL     1      -3.550  -0.764  -1.344  0.00  0.00    -0.273 N 
ATOM     10  H   UNL     1      -3.890  -1.347  -0.647  0.00  0.00    +0.173 HD
ATOM     11  C   UNL     1      -2.591  -1.211  -2.175  0.00  0.00    +0.331 A 
ATOM     12  O   UNL     1      -2.164  -2.341  -2.041  0.00  0.00    -0.246 OA
BRANCH   5  13
ATOM     13  N   UNL     1      -2.059   1.650  -4.322  0.00  0.00    -0.343 N 
ATOM     14  H   UNL     1      -1.313   1.341  -4.858  0.00  0.00    +0.144 HD
ATOM     15  H   UNL     1      -2.449   2.522  -4.489  0.00  0.00    +0.144 HD
ENDBRANCH   5  13
BRANCH   4  16
ATOM     16  C   UNL     1      -1.045  -0.944  -4.033  0.00  0.00    +0.131 C 
BRANCH  16  18
ATOM     17  C   UNL     1      -2.432  -0.562  -6.075  0.00  0.00    +0.009 C 
ATOM     18  C   UNL     1      -1.687  -1.613  -5.250  0.00  0.00    +0.003 C 
ATOM     19  C   UNL     1      -0.600  -2.260  -6.110  0.00  0.00    +0.009 C 
ENDBRANCH  16  18
ENDBRANCH   4  16
ENDBRANCH   1   6
BRANCH   1  20
ATOM     20  C   UNL     1      -4.824   2.989  -3.834  0.00  0.00    +0.142 C 
BRANCH  20  21
ATOM     21  C   UNL     1      -6.298   2.643  -3.615  0.00  0.00    +0.178 C 
BRANCH  21  22
ATOM     22  O   UNL     1      -6.830   3.460  -2.571  0.00  0.00    -0.381 OA
ATOM     23  C   UNL     1      -8.208   3.216  -2.286  0.00  0.00    +0.194 C 
ENDBRANCH  21  22
ENDBRANCH  20  21
ENDBRANCH   1  20
BRANCH   2  24
ATOM     24  C   UNL     1      -4.292   4.981  -1.885  0.00  0.00    +0.198 C 
BRANCH  24  25
ATOM     25  N   UNL     1      -3.933   5.783  -0.713  0.00  0.00    -0.335 N 
ATOM     26  H   UNL     1      -3.471   5.371   0.034  0.00  0.00    +0.147 HD
BRANCH  25  27
ATOM     27  C   UNL     1      -4.257   7.141  -0.670  0.00  0.00    +0.031 A 
ATOM     28  C   UNL     1      -4.923   7.725  -1.738  0.00  0.00    +0.023 A 
ATOM     29  C   UNL     1      -5.241   9.068  -1.694  0.00  0.00    +0.002 A 
ATOM     30  C   UNL     1      -4.893   9.820  -0.591  0.00  0.00    +0.004 A 
ATOM     31  C   UNL     1      -4.225   9.241   0.481  0.00  0.00    -0.042 A 
ATOM     32  C   UNL     1      -3.914   7.902   0.448  0.00  0.00    -0.023 A 
ATOM     33  C   UNL     1      -3.211   7.203   1.583  0.00  0.00    +0.037 C 
ATOM     34  C   UNL     1      -2.537   8.219   2.503  0.00  0.00    +0.005 C 
ATOM     35  C   UNL     1      -3.571   9.283   2.889  0.00  0.00    +0.005 C 
ATOM     36  C   UNL     1      -3.870  10.127   1.647  0.00  0.00    +0.035 C 
ENDBRANCH  25  27
ENDBRANCH  24  25
ENDBRANCH   2  24
TORSDOF 10
