REMARK  Name = ZINC08534745
REMARK  4 active torsions:
REMARK  status: ('A' for Active; 'I' for Inactive)
REMARK    1  A    between atoms: C_1  and  C_2
REMARK    2  A    between atoms: C_4  and  C_26
REMARK    3  A    between atoms: C_6  and  C_8
REMARK    4  A    between atoms: C_6  and  C_9
REMARK                            x       y       z     vdW  Elec       q    Type
REMARK                         _______ _______ _______ _____ _____    ______ ____
ROOT
ATOM      1  C   UNL     1      -0.049   1.645   0.474  0.00  0.00    +0.021 C 
ATOM      2  C   UNL     1      -0.036   0.127   0.283  0.00  0.00    +0.046 C 
ATOM      3  C   UNL     1       0.637  -0.221  -1.050  0.00  0.00    +0.031 C 
ATOM      4  C   UNL     1       0.557  -1.740  -1.243  0.00  0.00    +0.046 C 
ATOM      5  C   UNL     1       1.335  -2.426  -0.117  0.00  0.00    +0.031 C 
ATOM      6  C   UNL     1       0.705  -2.064   1.230  0.00  0.00    +0.046 C 
ATOM      7  C   UNL     1       0.750  -0.529   1.423  0.00  0.00    +0.031 C 
ATOM      8  C   UNL     1       1.490  -2.736   2.357  0.00  0.00    +0.021 C 
ATOM      9  C   UNL     1      -0.888  -2.165  -1.179  0.00  0.00    +0.225 C 
ATOM     10  O   UNL     1      -1.251  -3.139  -1.803  0.00  0.00    -0.275 OA
ATOM     11  N   UNL     1      -1.780  -1.484  -0.443  0.00  0.00    -0.255 N 
ATOM     12  C   UNL     1      -1.448  -0.398   0.288  0.00  0.00    +0.225 C 
ATOM     13  O   UNL     1      -2.294   0.175   0.941  0.00  0.00    -0.275 OA
ATOM     14  C   UNL     1       1.164  -2.121  -2.595  0.00  0.00    +0.021 C 
ATOM     15  H   UNL     1      -2.699  -1.791  -0.424  0.00  0.00    +0.158 HD
ENDROOT
BRANCH   6  16
ATOM     16  C   UNL     1      -0.724  -2.542   1.260  0.00  0.00    +0.225 C 
ATOM     17  O   UNL     1      -1.558  -1.922   1.885  0.00  0.00    -0.275 OA
ATOM     18  N   UNL     1      -1.075  -3.660   0.593  0.00  0.00    -0.264 N 
ATOM     19  C   UNL     1      -2.388  -4.100   0.621  0.00  0.00    +0.165 A 
ATOM     20  N   UNL     1      -3.422  -3.567   1.229  0.00  0.00    -0.225 NA
ATOM     21  C   UNL     1      -4.658  -4.108   1.170  0.00  0.00    +0.080 A 
ATOM     22  C   UNL     1      -5.847  -3.639   1.774  0.00  0.00    +0.029 A 
ATOM     23  C   UNL     1      -7.028  -4.314   1.613  0.00  0.00    +0.002 A 
ATOM     24  C   UNL     1      -7.102  -5.475   0.857  0.00  0.00    +0.001 A 
ATOM     25  C   UNL     1      -5.959  -5.963   0.251  0.00  0.00    +0.017 A 
ATOM     26  C   UNL     1      -4.771  -5.293   0.407  0.00  0.00    +0.041 A 
ATOM     27  S   UNL     1      -3.107  -5.533  -0.168  0.00  0.00    -0.052 S 
ATOM     28  H   UNL     1      -0.407  -4.156   0.093  0.00  0.00    +0.157 HD
ENDBRANCH   6  16
TORSDOF 1
