REMARK  Name = ZINC33038093
REMARK  5 active torsions:
REMARK  status: ('A' for Active; 'I' for Inactive)
REMARK    1  A    between atoms: C_5  and  C_7
REMARK    2  A    between atoms: N_16  and  C_19
REMARK    3  A    between atoms: C_19  and  C_20
REMARK    4  A    between atoms: N_22  and  C_23
REMARK    5  A    between atoms: C_23  and  C_24
REMARK                            x       y       z     vdW  Elec       q    Type
REMARK                         _______ _______ _______ _____ _____    ______ ____
ROOT
ATOM      1  C   UNL     1      10.060  -1.149  -3.147  0.00  0.00    +0.028 A 
ATOM      2  C   UNL     1      10.647   0.083  -3.146  0.00  0.00    +0.094 A 
ATOM      3  N   UNL     1       9.679   1.034  -3.132  0.00  0.00    -0.355 N 
ATOM      4  H   UNL     1       9.955   2.099  -3.129  0.00  0.00    +0.166 HD
ATOM      5  C   UNL     1       8.446   0.417  -3.123  0.00  0.00    +0.131 A 
ATOM      6  C   UNL     1       8.662  -0.954  -3.133  0.00  0.00    +0.107 A 
ATOM      7  N   UNL     1       7.573  -1.811  -3.127  0.00  0.00    -0.191 NA
ATOM      8  C   UNL     1       6.322  -1.312  -3.112  0.00  0.00    +0.352 A 
ATOM      9  O   UNL     1       5.377  -2.076  -3.107  0.00  0.00    -0.244 OA
ATOM     10  N   UNL     1       6.096   0.013  -3.103  0.00  0.00    -0.249 N 
ATOM     11  C   UNL     1       7.115   0.896  -3.114  0.00  0.00    +0.281 A 
ATOM     12  O   UNL     1       6.892   2.093  -3.111  0.00  0.00    -0.265 OA
ENDROOT
BRANCH   1  17
ATOM     13  C   UNL     1      12.206  -4.053  -2.098  0.00  0.00    +0.001 A 
ATOM     14  C   UNL     1      12.076  -4.894  -3.188  0.00  0.00    +0.003 A 
ATOM     15  C   UNL     1      11.294  -4.524  -4.266  0.00  0.00    +0.039 A 
ATOM     16  C   UNL     1      10.636  -3.308  -4.259  0.00  0.00    +0.131 A 
ATOM     17  C   UNL     1      10.763  -2.456  -3.161  0.00  0.00    +0.021 A 
ATOM     18  C   UNL     1      11.558  -2.834  -2.082  0.00  0.00    +0.011 A 
ATOM     19  F   UNL     1       9.872  -2.946  -5.312  0.00  0.00    -0.205 F 
ENDBRANCH   1  17
BRANCH  10  20
ATOM     20  C   UNL     1       4.716   0.507  -3.088  0.00  0.00    +0.225 C 
BRANCH  20  21
ATOM     21  C   UNL     1       4.257   0.669  -1.662  0.00  0.00    +0.233 C 
ATOM     22  O   UNL     1       5.007   0.399  -0.748  0.00  0.00    -0.274 OA
ATOM     23  N   UNL     1       3.011   1.114  -1.401  0.00  0.00    -0.309 N 
ATOM     24  H   UNL     1       2.331   1.359  -2.230  0.00  0.00    +0.149 HD
BRANCH  23  25
ATOM     25  C   UNL     1       2.565   1.272  -0.015  0.00  0.00    +0.146 C 
BRANCH  25  26
ATOM     26  C   UNL     1       1.146   1.780   0.001  0.00  0.00    +0.007 A 
ATOM     27  C   UNL     1      -0.013   1.076   0.008  0.00  0.00    +0.013 A 
ATOM     28  C   UNL     1      -1.213   1.761   0.017  0.00  0.00    +0.008 A 
ATOM     29  C   UNL     1      -1.196   3.116   0.030  0.00  0.00    +0.045 A 
ATOM     30  S   UNL     1       0.555   3.464   0.015  0.00  0.00    -0.100 S 
ENDBRANCH  25  26
ENDBRANCH  23  25
ENDBRANCH  20  21
ENDBRANCH  10  20
TORSDOF 5
