REMARK  Name = ZINC39964806
REMARK  11 active torsions:
REMARK  status: ('A' for Active; 'I' for Inactive)
REMARK    1  A    between atoms: C_1  and  C_2
REMARK    2  A    between atoms: C_2  and  O_3
REMARK    3  A    between atoms: O_3  and  C_4
REMARK    4  A    between atoms: C_6  and  C_22
REMARK    5  A    between atoms: C_9  and  O_10
REMARK    6  A    between atoms: O_10  and  C_11
REMARK    7  A    between atoms: C_11  and  C_12
REMARK    8  A    between atoms: C_16  and  N_18
REMARK    9  A    between atoms: C_23  and  C_24
REMARK   10  A    between atoms: C_23  and  C_26
REMARK   11  A    between atoms: C_32  and  C_36
REMARK                            x       y       z     vdW  Elec       q    Type
REMARK                         _______ _______ _______ _____ _____    ______ ____
ROOT
ATOM      1  C   UNL     1       0.956  -1.938   1.398  0.00  0.00    +0.164 A 
ATOM      2  C   UNL     1       0.311  -2.737   0.474  0.00  0.00    +0.057 A 
ATOM      3  C   UNL     1       0.534  -4.119   0.471  0.00  0.00    -0.019 A 
ATOM      4  C   UNL     1       1.410  -4.684   1.405  0.00  0.00    +0.032 A 
ATOM      5  C   UNL     1       2.050  -3.879   2.323  0.00  0.00    +0.087 A 
ATOM      6  C   UNL     1       1.831  -2.507   2.321  0.00  0.00    +0.181 A 
ATOM      7 CL   UNL     1       3.137  -4.581   3.481  0.00  0.00    -0.080 Cl
ENDROOT
BRANCH   3   8
ATOM      8  C   UNL     1      -0.150  -4.974  -0.510  0.00  0.00    +0.026 C 
ATOM      9  C   UNL     1      -0.550  -6.215  -0.160  0.00  0.00    +0.072 C 
BRANCH   9  10
ATOM     10  C   UNL     1      -0.459  -6.659   1.277  0.00  0.00    +0.216 C 
ATOM     11  N   UNL     1       0.513  -7.751   1.407  0.00  0.00    -0.359 N 
ATOM     12  C   UNL     1      -0.124  -8.790   1.864  0.00  0.00    +0.060 A 
ATOM     13  C   UNL     1       0.301 -10.157   2.195  0.00  0.00    +0.027 A 
ATOM     14  C   UNL     1      -0.605 -11.040   2.661  0.00  0.00    +0.005 A 
ATOM     15  C   UNL     1      -1.959 -10.710   2.848  0.00  0.00    -0.048 A 
ATOM     16  C   UNL     1      -2.453  -9.486   2.575  0.00  0.00    +0.030 A 
ATOM     17  C   UNL     1      -1.558  -8.441   2.062  0.00  0.00    +0.061 A 
ATOM     18  N   UNL     1      -1.751  -7.198   1.720  0.00  0.00    -0.359 N 
ATOM     19  C   UNL     1      -2.895 -11.768   3.373  0.00  0.00    +0.044 C 
ATOM     20  H   UNL     1       1.458  -7.707   1.191  0.00  0.00    +0.162 HD
ATOM     21  H   UNL     1      -2.593  -6.718   1.753  0.00  0.00    +0.162 HD
ENDBRANCH   9  10
BRANCH   9  22
ATOM     22  C   UNL     1      -1.060  -7.110  -1.155  0.00  0.00    +0.099 C 
ATOM     23  N   UNL     1      -1.464  -7.820  -1.944  0.00  0.00    -0.191 NA
ENDBRANCH   9  22
ENDBRANCH   3   8
BRANCH   1  24
ATOM     24  O   UNL     1       0.741  -0.596   1.403  0.00  0.00    -0.489 OA
BRANCH  24  26
ATOM     25  C   UNL     1      -0.282   1.437   0.588  0.00  0.00    +0.048 C 
ATOM     26  C   UNL     1      -0.169  -0.081   0.428  0.00  0.00    +0.226 C 
ENDBRANCH  24  26
ENDBRANCH   1  24
BRANCH   6  27
ATOM     27  O   UNL     1       2.469  -1.718   3.225  0.00  0.00    -0.482 OA
BRANCH  27  28
ATOM     28  C   UNL     1       1.809  -1.498   4.474  0.00  0.00    +0.264 C 
BRANCH  28  29
ATOM     29  C   UNL     1       2.659  -0.606   5.341  0.00  0.00    -0.008 A 
ATOM     30  C   UNL     1       3.598  -1.160   6.192  0.00  0.00    +0.007 A 
ATOM     31  C   UNL     1       4.378  -0.342   6.987  0.00  0.00    +0.003 A 
ATOM     32  C   UNL     1       4.220   1.030   6.932  0.00  0.00    +0.033 A 
ATOM     33  C   UNL     1       3.282   1.584   6.081  0.00  0.00    +0.127 A 
ATOM     34  C   UNL     1       2.505   0.766   5.282  0.00  0.00    +0.039 A 
BRANCH  33  35
ATOM     35  N   UNL     1       3.112   3.053   6.022  0.00  0.00    +0.056 N 
ATOM     36  O   UNL     1       3.794   3.769   6.719  0.00  0.00    -0.126 OA
ATOM     37  O   UNL     1       2.292   3.538   5.278  0.00  0.00    -0.126 OA
ENDBRANCH  33  35
ENDBRANCH  28  29
ENDBRANCH  27  28
ENDBRANCH   6  27
TORSDOF 9
