REMARK  Name = ZINC01430913
REMARK  5 active torsions:
REMARK  status: ('A' for Active; 'I' for Inactive)
REMARK    1  A    between atoms: C_1  and  S_2
REMARK    2  A    between atoms: S_2  and  C_3
REMARK    3  A    between atoms: C_10  and  N_23
REMARK    4  A    between atoms: C_11  and  C_21
REMARK    5  A    between atoms: C_12  and  C_14
REMARK                            x       y       z     vdW  Elec       q    Type
REMARK                         _______ _______ _______ _____ _____    ______ ____
ROOT
ATOM      1  C   UNL     1      -5.686   1.321   1.140  0.00  0.00    +0.193 A 
ATOM      2  N   UNL     1      -5.839   2.637   1.181  0.00  0.00    -0.207 NA
ATOM      3  C   UNL     1      -4.842   3.447   0.836  0.00  0.00    +0.128 A 
ATOM      4  C   UNL     1      -3.631   2.891   0.432  0.00  0.00    +0.067 A 
ATOM      5  C   UNL     1      -3.507   1.512   0.403  0.00  0.00    +0.232 A 
ATOM      6  N   UNL     1      -4.547   0.762   0.760  0.00  0.00    -0.186 NA
ATOM      7  O   UNL     1      -2.351   0.927   0.018  0.00  0.00    -0.423 OA
ATOM      8  C   UNL     1      -1.209   1.636   0.017  0.00  0.00    +0.200 C 
ATOM      9  C   UNL     1      -1.202   2.990   0.030  0.00  0.00    +0.098 C 
ATOM     10  C   UNL     1      -2.483   3.777   0.035  0.00  0.00    +0.103 C 
ATOM     11  N   UNL     1      -5.005   4.823   0.879  0.00  0.00    -0.343 N 
ATOM     12  H   UNL     1      -5.852   5.202   1.162  0.00  0.00    +0.144 HD
ATOM     13  H   UNL     1      -4.273   5.407   0.626  0.00  0.00    +0.144 HD
ENDROOT
BRANCH  10  14
ATOM     14  C   UNL     1      -2.736   4.334  -1.343  0.00  0.00    -0.034 A 
ATOM     15  C   UNL     1      -2.881   3.478  -2.418  0.00  0.00    +0.005 A 
ATOM     16  C   UNL     1      -3.117   3.988  -3.681  0.00  0.00    +0.015 A 
ATOM     17  C   UNL     1      -3.198   5.356  -3.870  0.00  0.00    +0.018 A 
ATOM     18  C   UNL     1      -3.047   6.213  -2.794  0.00  0.00    +0.015 A 
ATOM     19  C   UNL     1      -2.817   5.701  -1.531  0.00  0.00    +0.005 A 
ATOM     20 BR   UNL     1      -3.513   6.055  -5.598  0.00  0.00    -0.050 Br
ENDBRANCH  10  14
BRANCH   8  21
ATOM     21  N   UNL     1      -0.011   0.966   0.007  0.00  0.00    -0.328 N 
ATOM     22  H   UNL     1       0.002  -0.004   0.002  0.00  0.00    +0.145 HD
ATOM     23  H   UNL     1       0.822   1.462   0.002  0.00  0.00    +0.145 HD
ENDBRANCH   8  21
BRANCH   1  25
ATOM     24  C   UNL     1      -8.271   1.545   2.011  0.00  0.00    +0.093 C 
ATOM     25  S   UNL     1      -7.035   0.287   1.604  0.00  0.00    -0.089 S 
ENDBRANCH   1  25
BRANCH   9  26
ATOM     26  C   UNL     1       0.049   3.685   0.034  0.00  0.00    +0.101 C 
ATOM     27  N   UNL     1       1.042   4.237   0.037  0.00  0.00    -0.191 NA
ENDBRANCH   9  26
TORSDOF 4
