REMARK  Name = ZINC39631476
REMARK  14 active torsions:
REMARK  status: ('A' for Active; 'I' for Inactive)
REMARK    1  A    between atoms: C_1  and  C_2
REMARK    2  A    between atoms: C_2  and  C_3
REMARK    3  A    between atoms: C_3  and  C_5
REMARK    4  A    between atoms: C_3  and  C_6
REMARK    5  A    between atoms: C_10  and  C_19
REMARK    6  A    between atoms: N_21  and  C_22
REMARK    7  A    between atoms: C_22  and  C_24
REMARK    8  A    between atoms: C_22  and  C_25
REMARK    9  A    between atoms: C_25  and  C_26
REMARK   10  A    between atoms: C_26  and  C_27
REMARK   11  A    between atoms: C_27  and  C_28
REMARK   12  A    between atoms: C_28  and  C_29
REMARK   13  A    between atoms: C_28  and  C_30
REMARK   14  A    between atoms: C_28  and  O_31
REMARK                            x       y       z     vdW  Elec       q    Type
REMARK                         _______ _______ _______ _____ _____    ______ ____
ROOT
ATOM      1  C   UNL     1      -1.387  -2.151  -0.104  0.00  0.00    +0.218 C 
ATOM      2  O   UNL     1      -0.344  -2.755  -0.238  0.00  0.00    -0.275 OA
ATOM      3  N   UNL     1      -2.560  -2.814  -0.141  0.00  0.00    -0.300 N 
ATOM      4  C   UNL     1      -3.925  -2.254  -0.004  0.00  0.00    +0.121 C 
ATOM      5  C   UNL     1      -4.774  -3.040  -1.029  0.00  0.00    +0.100 C 
ATOM      6  C   UNL     1      -4.015  -4.361  -1.236  0.00  0.00    -0.004 C 
ATOM      7  C   UNL     1      -2.776  -4.268  -0.335  0.00  0.00    +0.115 C 
ATOM      8  C   UNL     1      -3.590  -4.503  -2.695  0.00  0.00    -0.010 C 
ATOM      9  C   UNL     1      -2.888  -5.851  -2.888  0.00  0.00    -0.082 C 
ATOM     10  N   UNL     1      -3.801  -6.938  -2.515  0.00  0.00    +0.379 N 
ATOM     11  C   UNL     1      -4.132  -6.847  -1.088  0.00  0.00    -0.082 C 
ATOM     12  C   UNL     1      -4.886  -5.542  -0.819  0.00  0.00    -0.010 C 
ATOM     13  H   UNL     1      -4.647  -6.867  -3.060  0.00  0.00    -0.086 HD
ATOM     14  H   UNL     1      -3.358  -7.825  -2.700  0.00  0.00    -0.086 HD
ENDROOT
BRANCH   5  15
ATOM     15  C   UNL     1      -6.151  -3.304  -0.477  0.00  0.00    +0.218 C 
ATOM     16  O   UNL     1      -6.307  -3.461   0.715  0.00  0.00    -0.275 OA
ATOM     17  N   UNL     1      -7.210  -3.365  -1.309  0.00  0.00    -0.312 N 
ATOM     18  H   UNL     1      -7.085  -3.240  -2.263  0.00  0.00    +0.149 HD
BRANCH  17  19
ATOM     19  C   UNL     1      -8.549  -3.622  -0.773  0.00  0.00    +0.070 C 
ATOM     20  C   UNL     1      -9.175  -2.304  -0.311  0.00  0.00    +0.028 C 
BRANCH  19  21
ATOM     21  C   UNL     1      -9.423  -4.248  -1.862  0.00  0.00    +0.022 C 
BRANCH  21  22
ATOM     22  C   UNL     1      -8.866  -5.623  -2.235  0.00  0.00    +0.005 C 
BRANCH  22  23
ATOM     23  C   UNL     1      -9.740  -6.249  -3.324  0.00  0.00    +0.034 C 
BRANCH  23  24
ATOM     24  C   UNL     1      -9.183  -7.624  -3.697  0.00  0.00    +0.061 C 
ATOM     25  C   UNL     1      -9.981  -8.196  -4.870  0.00  0.00    +0.041 C 
ATOM     26  C   UNL     1      -7.713  -7.487  -4.098  0.00  0.00    +0.041 C 
BRANCH  24  27
ATOM     27  O   UNL     1      -9.291  -8.502  -2.575  0.00  0.00    -0.389 OA
ATOM     28  H   UNL     1     -10.197  -8.636  -2.265  0.00  0.00    +0.210 HD
ENDBRANCH  24  27
ENDBRANCH  23  24
ENDBRANCH  22  23
ENDBRANCH  21  22
ENDBRANCH  19  21
ENDBRANCH  17  19
ENDBRANCH   5  15
BRANCH   1  29
ATOM     29  C   UNL     1      -1.373  -0.658   0.105  0.00  0.00    +0.072 C 
ATOM     30  C   UNL     1      -2.029  -0.324   1.446  0.00  0.00    +0.017 C 
BRANCH  29  32
ATOM     31  C   UNL     1       0.084   1.369   0.193  0.00  0.00    +0.004 C 
ATOM     32  C   UNL     1       0.073  -0.158   0.106  0.00  0.00    +0.009 C 
ENDBRANCH  29  32
ENDBRANCH   1  29
TORSDOF 9
