REMARK  Name = ZINC28051901
REMARK  8 active torsions:
REMARK  status: ('A' for Active; 'I' for Inactive)
REMARK    1  A    between atoms: C_1  and  C_2
REMARK    2  A    between atoms: C_5  and  C_8
REMARK    3  A    between atoms: C_13  and  C_22
REMARK    4  A    between atoms: C_16  and  C_21
REMARK    5  A    between atoms: C_25  and  O_30
REMARK    6  A    between atoms: C_27  and  O_28
REMARK    7  A    between atoms: O_28  and  C_29
REMARK    8  A    between atoms: O_30  and  C_31
REMARK                            x       y       z     vdW  Elec       q    Type
REMARK                         _______ _______ _______ _____ _____    ______ ____
ROOT
ATOM      1  C   UNL     1       3.969  -1.650   0.164  0.00  0.00    +0.032 C 
ATOM      2  C   UNL     1       3.857  -0.190   0.605  0.00  0.00    +0.059 C 
ATOM      3  C   UNL     1       2.474   0.333   0.288  0.00  0.00    +0.019 C 
ATOM      4  C   UNL     1       1.405  -0.491   0.305  0.00  0.00    +0.024 C 
ATOM      5  C   UNL     1       0.002  -0.004   0.002  0.00  0.00    +0.094 C 
ATOM      6  C   UNL     1      -0.018   1.491   0.010  0.00  0.00    +0.049 A 
ATOM      7  C   UNL     1      -1.059   2.416   0.019  0.00  0.00    +0.087 A 
ATOM      8  N   UNL     1      -0.495   3.598   0.023  0.00  0.00    -0.081 NA
ATOM      9  O   UNL     1       0.719   3.522   0.010  0.00  0.00    -0.339 OA
ATOM     10  C   UNL     1       1.120   2.255   0.004  0.00  0.00    +0.226 A 
ATOM     11  N   UNL     1       2.371   1.672  -0.006  0.00  0.00    -0.286 N 
ATOM     12  C   UNL     1      -2.536   2.117   0.026  0.00  0.00    +0.069 C 
ATOM     13  C   UNL     1       1.549  -1.857   0.608  0.00  0.00    +0.162 C 
ATOM     14  O   UNL     1       0.562  -2.567   0.635  0.00  0.00    -0.292 OA
ATOM     15  C   UNL     1       2.895  -2.459   0.899  0.00  0.00    +0.088 C 
ATOM     16  H   UNL     1       3.273   2.255  -0.242  0.00  0.00    +0.155 HD
ENDROOT
BRANCH   1  21
ATOM     17  C   UNL     1       9.206  -3.691   1.505  0.00  0.00    +0.044 C 
ATOM     18  C   UNL     1       7.840  -3.159   1.155  0.00  0.00    -0.050 A 
ATOM     19  C   UNL     1       7.423  -3.140  -0.162  0.00  0.00    +0.003 A 
ATOM     20  C   UNL     1       6.170  -2.652  -0.483  0.00  0.00    +0.004 A 
ATOM     21  C   UNL     1       5.335  -2.183   0.513  0.00  0.00    -0.043 A 
ATOM     22  C   UNL     1       5.754  -2.197   1.831  0.00  0.00    +0.004 A 
ATOM     23  C   UNL     1       7.005  -2.691   2.152  0.00  0.00    +0.003 A 
ENDBRANCH   1  21
BRANCH   5  24
ATOM     24  C   UNL     1      -0.421  -0.505  -1.355  0.00  0.00    +0.007 A 
ATOM     25  C   UNL     1       0.301  -0.150  -2.478  0.00  0.00    +0.012 A 
ATOM     26  C   UNL     1      -0.082  -0.612  -3.723  0.00  0.00    +0.046 A 
ATOM     27  C   UNL     1      -1.199  -1.425  -3.849  0.00  0.00    +0.124 A 
ATOM     28  C   UNL     1      -1.929  -1.778  -2.724  0.00  0.00    +0.091 A 
ATOM     29  C   UNL     1      -1.540  -1.317  -1.476  0.00  0.00    +0.128 A 
BRANCH  29  30
ATOM     30  O   UNL     1      -2.253  -1.661  -0.371  0.00  0.00    -0.495 OA
ATOM     31  C   UNL     1      -3.393  -2.500  -0.570  0.00  0.00    +0.277 C 
ENDBRANCH  29  30
BRANCH  27  32
ATOM     32  O   UNL     1      -1.579  -1.875  -5.074  0.00  0.00    -0.495 OA
ATOM     33  C   UNL     1      -0.780  -1.472  -6.189  0.00  0.00    +0.277 C 
ENDBRANCH  27  32
ENDBRANCH   5  24
TORSDOF 4
