REMARK  Name = ZINC36577402
REMARK  14 active torsions:
REMARK  status: ('A' for Active; 'I' for Inactive)
REMARK    1  A    between atoms: C_1  and  C_2
REMARK    2  A    between atoms: C_2  and  C_3
REMARK    3  A    between atoms: C_3  and  C_4
REMARK    4  A    between atoms: C_4  and  N_5
REMARK    5  A    between atoms: C_6  and  C_8
REMARK    6  A    between atoms: C_8  and  C_10
REMARK    7  A    between atoms: C_8  and  N_19
REMARK    8  A    between atoms: C_11  and  O_18
REMARK    9  A    between atoms: C_13  and  O_17
REMARK   10  A    between atoms: C_15  and  O_16
REMARK   11  A    between atoms: N_19  and  C_20
REMARK   12  A    between atoms: C_20  and  C_21
REMARK   13  A    between atoms: C_21  and  C_22
REMARK   14  A    between atoms: C_23  and  C_25
REMARK                            x       y       z     vdW  Elec       q    Type
REMARK                         _______ _______ _______ _____ _____    ______ ____
ROOT
ATOM      1  C   UNL     1       2.444  -3.589  -4.874  0.00  0.00    +0.199 C 
ENDROOT
BRANCH   1   2
ATOM      2  C   UNL     1       1.913  -3.097  -6.196  0.00  0.00    +0.065 A 
ATOM      3  C   UNL     1       0.802  -2.267  -6.230  0.00  0.00    +0.129 A 
ATOM      4  C   UNL     1       0.313  -1.814  -7.446  0.00  0.00    +0.091 A 
ATOM      5  C   UNL     1       0.935  -2.189  -8.627  0.00  0.00    +0.124 A 
ATOM      6  C   UNL     1       2.047  -3.018  -8.593  0.00  0.00    +0.091 A 
ATOM      7  C   UNL     1       2.538  -3.468  -7.377  0.00  0.00    +0.129 A 
BRANCH   7   8
ATOM      8  O   UNL     1       3.630  -4.276  -7.342  0.00  0.00    -0.506 OA
ATOM      9  H   UNL     1       3.423  -5.219  -7.386  0.00  0.00    +0.292 HD
ENDBRANCH   7   8
BRANCH   5  10
ATOM     10  O   UNL     1       0.455  -1.745  -9.819  0.00  0.00    -0.507 OA
ATOM     11  H   UNL     1       0.842  -0.909 -10.112  0.00  0.00    +0.292 HD
ENDBRANCH   5  10
BRANCH   3  12
ATOM     12  O   UNL     1       0.192  -1.900  -5.073  0.00  0.00    -0.506 OA
ATOM     13  H   UNL     1       0.649  -1.195  -4.594  0.00  0.00    +0.292 HD
ENDBRANCH   3  12
ENDBRANCH   1   2
BRANCH   1  15
ATOM     14  N   UNL     1       1.530  -1.881  -3.337  0.00  0.00    -0.313 N 
ATOM     15  C   UNL     1       1.517  -3.158  -3.768  0.00  0.00    +0.238 C 
ATOM     16  O   UNL     1       0.759  -3.960  -3.265  0.00  0.00    -0.273 OA
ATOM     17  H   UNL     1       2.127  -1.237  -3.748  0.00  0.00    +0.149 HD
BRANCH  14  18
ATOM     18  C   UNL     1       0.642  -1.467  -2.247  0.00  0.00    +0.104 C 
BRANCH  18  19
ATOM     19  C   UNL     1       0.854   0.020  -1.955  0.00  0.00    +0.018 C 
BRANCH  19  21
ATOM     20  C   UNL     1       0.138   1.940  -0.525  0.00  0.00    +0.004 C 
ATOM     21  C   UNL     1      -0.073   0.453  -0.817  0.00  0.00    -0.002 C 
ENDBRANCH  19  21
ENDBRANCH  18  19
ENDBRANCH  14  18
ENDBRANCH   1  15
BRANCH   1  22
ATOM     22  N   UNL     1       2.530  -5.052  -4.897  0.00  0.00    -0.282 N 
ATOM     23  C   UNL     1       3.720  -5.660  -4.721  0.00  0.00    +0.249 C 
ATOM     24  O   UNL     1       4.660  -5.036  -4.267  0.00  0.00    -0.270 OA
BRANCH  23  25
ATOM     25  C   UNL     1       3.882  -7.084  -5.079  0.00  0.00    +0.055 A 
ATOM     26  C   UNL     1       2.834  -7.983  -4.874  0.00  0.00    +0.014 A 
ATOM     27  C   UNL     1       2.991  -9.311  -5.210  0.00  0.00    +0.001 A 
ATOM     28  C   UNL     1       4.186  -9.755  -5.750  0.00  0.00    +0.001 A 
ATOM     29  C   UNL     1       5.230  -8.871  -5.956  0.00  0.00    +0.021 A 
ATOM     30  C   UNL     1       5.084  -7.537  -5.630  0.00  0.00    +0.053 A 
ATOM     31 CL   UNL     1       6.392  -6.427  -5.896  0.00  0.00    -0.083 Cl
ENDBRANCH  23  25
BRANCH  22  32
ATOM     32  C   UNL     1       1.323  -5.853  -5.112  0.00  0.00    +0.109 C 
BRANCH  32  33
ATOM     33  C   UNL     1       0.805  -6.366  -3.767  0.00  0.00    +0.016 C 
ATOM     34  C   UNL     1      -0.395  -7.286  -4.000  0.00  0.00    +0.005 C 
ENDBRANCH  32  33
ENDBRANCH  22  32
ENDBRANCH   1  22
TORSDOF 12
