REMARK  Name = ZINC13639723
REMARK  5 active torsions:
REMARK  status: ('A' for Active; 'I' for Inactive)
REMARK    1  A    between atoms: C_4  and  N_7
REMARK    2  A    between atoms: C_8  and  C_10
REMARK    3  A    between atoms: C_17  and  C_26
REMARK    4  A    between atoms: C_29  and  O_33
REMARK    5  A    between atoms: C_31  and  O_32
REMARK                            x       y       z     vdW  Elec       q    Type
REMARK                         _______ _______ _______ _____ _____    ______ ____
ROOT
ATOM      1  C   UNL     1      -1.563   6.415  -1.780  0.00  0.00    +0.058 A 
ATOM      2  C   UNL     1      -2.954   6.344  -1.743  0.00  0.00    +0.015 A 
ATOM      3  C   UNL     1      -3.575   5.204  -1.282  0.00  0.00    +0.001 A 
ATOM      4  C   UNL     1      -2.814   4.131  -0.848  0.00  0.00    +0.006 A 
ATOM      5  C   UNL     1      -1.438   4.186  -0.871  0.00  0.00    -0.019 A 
ATOM      6  C   UNL     1      -0.780   5.324  -1.347  0.00  0.00    +0.044 A 
ATOM      7  N   UNL     1       0.596   5.446  -1.445  0.00  0.00    -0.336 N 
ATOM      8  C   UNL     1       1.410   4.323  -0.904  0.00  0.00    +0.108 C 
ATOM      9  C   UNL     1       0.681   3.050  -1.281  0.00  0.00    +0.029 C 
ATOM     10  C   UNL     1      -0.606   3.058  -0.398  0.00  0.00    +0.049 C 
ATOM     11  C   UNL     1      -1.072   1.652  -0.477  0.00  0.00    -0.023 C 
ATOM     12  C   UNL     1      -0.017   0.868  -0.669  0.00  0.00    -0.030 C 
ATOM     13  C   UNL     1       1.252   1.718  -0.782  0.00  0.00    +0.033 C 
ATOM     14  H   UNL     1       0.873   5.677  -2.387  0.00  0.00    +0.147 HD
ENDROOT
BRANCH   8  15
ATOM     15  C   UNL     1       1.528   4.422   0.596  0.00  0.00    +0.015 A 
ATOM     16  C   UNL     1       0.592   5.141   1.316  0.00  0.00    +0.012 A 
ATOM     17  C   UNL     1       0.697   5.233   2.690  0.00  0.00    +0.046 A 
ATOM     18  C   UNL     1       1.743   4.604   3.351  0.00  0.00    +0.120 A 
ATOM     19  C   UNL     1       2.683   3.883   2.631  0.00  0.00    +0.091 A 
ATOM     20  C   UNL     1       2.572   3.787   1.252  0.00  0.00    +0.125 A 
BRANCH  20  21
ATOM     21  O   UNL     1       3.488   3.076   0.544  0.00  0.00    -0.506 OA
ATOM     22  H   UNL     1       4.250   3.596   0.253  0.00  0.00    +0.292 HD
ENDBRANCH  20  21
BRANCH  18  23
ATOM     23  O   UNL     1       1.846   4.696   4.703  0.00  0.00    -0.507 OA
ATOM     24  H   UNL     1       1.383   3.994   5.181  0.00  0.00    +0.292 HD
ENDBRANCH  18  23
ENDBRANCH   8  15
BRANCH   1  26
ATOM     25  N   UNL     1      -1.649   8.682  -2.690  0.00  0.00    -0.281 N 
ATOM     26  C   UNL     1      -0.905   7.637  -2.276  0.00  0.00    +0.250 C 
ATOM     27  O   UNL     1       0.308   7.704  -2.310  0.00  0.00    -0.270 OA
ATOM     28  H   UNL     1      -2.615   8.602  -2.735  0.00  0.00    +0.155 HD
BRANCH  25  32
ATOM     29  C   UNL     1       0.198  12.253  -3.779  0.00  0.00    +0.000 A 
ATOM     30  C   UNL     1      -0.958  11.850  -4.422  0.00  0.00    +0.002 A 
ATOM     31  C   UNL     1      -1.572  10.666  -4.064  0.00  0.00    +0.023 A 
ATOM     32  C   UNL     1      -1.029   9.881  -3.056  0.00  0.00    +0.034 A 
ATOM     33  C   UNL     1       0.129  10.291  -2.407  0.00  0.00    +0.023 A 
ATOM     34  C   UNL     1       0.742  11.473  -2.774  0.00  0.00    +0.002 A 
ENDBRANCH  25  32
ENDBRANCH   1  26
TORSDOF 5
