REMARK  Name = ZINC39660430
REMARK  10 active torsions:
REMARK  status: ('A' for Active; 'I' for Inactive)
REMARK    1  A    between atoms: C_1  and  C_2
REMARK    2  A    between atoms: C_2  and  C_3
REMARK    3  A    between atoms: C_3  and  C_4
REMARK    4  A    between atoms: C_4  and  C_5
REMARK    5  A    between atoms: C_5  and  C_6
REMARK    6  A    between atoms: C_6  and  N_7
REMARK    7  A    between atoms: C_8  and  C_10
REMARK    8  A    between atoms: C_21  and  C_23
REMARK    9  A    between atoms: C_26  and  O_30
REMARK   10  A    between atoms: O_30  and  C_31
REMARK                            x       y       z     vdW  Elec       q    Type
REMARK                         _______ _______ _______ _____ _____    ______ ____
ROOT
ATOM      1  C   UNL     1       3.326  -6.292  -5.803  0.00  0.00    +0.100 C 
ATOM      2  C   UNL     1       4.713  -5.677  -5.511  0.00  0.00    +0.121 C 
ATOM      3  N   UNL     1       5.480  -6.771  -4.870  0.00  0.00    -0.296 N 
ATOM      4  C   UNL     1       5.083  -7.987  -5.618  0.00  0.00    +0.115 C 
ATOM      5  C   UNL     1       3.574  -7.809  -5.876  0.00  0.00    -0.004 C 
ATOM      6  C   UNL     1       3.208  -8.337  -7.260  0.00  0.00    -0.010 C 
ATOM      7  C   UNL     1       3.408  -9.855  -7.290  0.00  0.00    -0.082 C 
ATOM      8  N   UNL     1       2.564 -10.482  -6.266  0.00  0.00    +0.379 N 
ATOM      9  C   UNL     1       2.984 -10.039  -4.931  0.00  0.00    -0.082 C 
ATOM     10  C   UNL     1       2.766  -8.529  -4.801  0.00  0.00    -0.010 C 
ATOM     11  C   UNL     1       6.344  -6.680  -3.839  0.00  0.00    +0.247 C 
ATOM     12  O   UNL     1       6.473  -5.628  -3.244  0.00  0.00    -0.270 OA
ATOM     13  H   UNL     1       1.601 -10.220  -6.418  0.00  0.00    -0.086 HD
ATOM     14  H   UNL     1       2.651 -11.486  -6.328  0.00  0.00    -0.086 HD
ENDROOT
BRANCH  11  15
ATOM     15  C   UNL     1       7.135  -7.859  -3.433  0.00  0.00    +0.040 A 
ATOM     16  C   UNL     1       7.338  -8.909  -4.331  0.00  0.00    +0.036 A 
ATOM     17  C   UNL     1       8.077 -10.008  -3.948  0.00  0.00    +0.085 A 
ATOM     18  C   UNL     1       8.618 -10.072  -2.669  0.00  0.00    +0.157 A 
ATOM     19  C   UNL     1       8.418  -9.029  -1.772  0.00  0.00    +0.085 A 
ATOM     20  C   UNL     1       7.685  -7.924  -2.150  0.00  0.00    +0.036 A 
ATOM     21 CL   UNL     1       9.095  -9.115  -0.176  0.00  0.00    -0.080 Cl
ATOM     22 CL   UNL     1       8.331 -11.313  -5.064  0.00  0.00    -0.080 Cl
BRANCH  18  23
ATOM     23  O   UNL     1       9.345 -11.156  -2.295  0.00  0.00    -0.492 OA
ATOM     24  C   UNL     1      10.752 -11.110  -2.537  0.00  0.00    +0.277 C 
ENDBRANCH  18  23
ENDBRANCH  11  15
BRANCH   1  26
ATOM     25  N   UNL     1       1.037  -5.974  -4.921  0.00  0.00    -0.315 N 
ATOM     26  C   UNL     1       2.364  -5.972  -4.688  0.00  0.00    +0.218 C 
ATOM     27  O   UNL     1       2.785  -5.712  -3.580  0.00  0.00    -0.275 OA
ATOM     28  H   UNL     1       0.701  -6.181  -5.807  0.00  0.00    +0.149 HD
BRANCH  25  29
ATOM     29  C   UNL     1       0.102  -5.662  -3.837  0.00  0.00    +0.104 C 
BRANCH  29  30
ATOM     30  C   UNL     1      -1.333  -5.733  -4.364  0.00  0.00    +0.019 C 
BRANCH  30  31
ATOM     31  C   UNL     1      -2.309  -5.407  -3.232  0.00  0.00    +0.002 C 
BRANCH  31  32
ATOM     32  C   UNL     1      -3.743  -5.478  -3.760  0.00  0.00    -0.000 C 
BRANCH  32  34
ATOM     33  C   UNL     1      -6.154  -5.224  -3.155  0.00  0.00    +0.004 C 
ATOM     34  C   UNL     1      -4.720  -5.153  -2.628  0.00  0.00    -0.003 C 
ENDBRANCH  32  34
ENDBRANCH  31  32
ENDBRANCH  30  31
ENDBRANCH  29  30
ENDBRANCH  25  29
ENDBRANCH   1  26
TORSDOF 8
