REMARK  Name = ZINC09575758
REMARK  4 active torsions:
REMARK  status: ('A' for Active; 'I' for Inactive)
REMARK    1  A    between atoms: C_9  and  C_11
REMARK    2  A    between atoms: C_18  and  O_30
REMARK    3  A    between atoms: C_19  and  C_22
REMARK    4  A    between atoms: C_22  and  N_23
REMARK                            x       y       z     vdW  Elec       q    Type
REMARK                         _______ _______ _______ _____ _____    ______ ____
ROOT
ATOM      1  C   UNL     1       6.462   0.962  -0.119  0.00  0.00    +0.096 C 
ATOM      2  C   UNL     1       6.957   2.231  -0.108  0.00  0.00    +0.179 C 
ATOM      3  C   UNL     1       8.376   2.609  -0.133  0.00  0.00    +0.232 C 
ATOM      4  O   UNL     1       9.344   1.870  -0.167  0.00  0.00    -0.283 OA
ATOM      5  C   UNL     1       8.366   4.083  -0.107  0.00  0.00    +0.068 A 
ATOM      6  C   UNL     1       9.378   5.045  -0.113  0.00  0.00    +0.019 A 
ATOM      7  C   UNL     1       9.056   6.372  -0.083  0.00  0.00    +0.046 A 
ATOM      8  C   UNL     1       7.721   6.767  -0.046  0.00  0.00    +0.122 A 
ATOM      9  C   UNL     1       6.707   5.824  -0.040  0.00  0.00    +0.020 A 
ATOM     10  C   UNL     1       7.017   4.470  -0.071  0.00  0.00    +0.144 A 
ATOM     11  O   UNL     1       6.229   3.372  -0.078  0.00  0.00    -0.451 OA
ENDROOT
BRANCH   1  20
ATOM     12  C   UNL     1       0.518   0.864  -0.014  0.00  0.00    +0.019 A 
ATOM     13  C   UNL     1       1.614   1.702  -0.021  0.00  0.00    +0.048 A 
ATOM     14  C   UNL     1       2.894   1.166  -0.052  0.00  0.00    +0.136 A 
ATOM     15  C   UNL     1       3.056  -0.233  -0.077  0.00  0.00    +0.022 A 
ATOM     16  C   UNL     1       1.932  -1.065  -0.070  0.00  0.00    +0.027 A 
ATOM     17  C   UNL     1       0.681  -0.515  -0.039  0.00  0.00    +0.019 A 
ATOM     18 BR   UNL     1      -0.839  -1.640  -0.029  0.00  0.00    -0.050 Br
ATOM     19  C   UNL     1       4.453  -0.472  -0.106  0.00  0.00    +0.058 A 
ATOM     20  C   UNL     1       5.063   0.747  -0.098  0.00  0.00    +0.133 A 
ATOM     21  O   UNL     1       4.125   1.718  -0.065  0.00  0.00    -0.455 OA
ENDBRANCH   1  20
BRANCH   8  22
ATOM     22  O   UNL     1       7.411   8.088  -0.015  0.00  0.00    -0.506 OA
ATOM     23  H   UNL     1       7.377   8.505  -0.888  0.00  0.00    +0.292 HD
ENDBRANCH   8  22
BRANCH   9  24
ATOM     24  C   UNL     1       5.266   6.266   0.000  0.00  0.00    -0.036 C 
BRANCH  24  25
ATOM     25  N   UNL     1       4.883   6.558   1.388  0.00  0.00    +0.383 N 
ATOM     26  C   UNL     1       4.995   5.318   2.181  0.00  0.00    -0.078 C 
ATOM     27  C   UNL     1       5.203   5.697   3.626  0.00  0.00    -0.019 C 
ATOM     28  C   UNL     1       3.874   5.697   4.405  0.00  0.00    -0.002 C 
ATOM     29  C   UNL     1       2.724   6.304   3.576  0.00  0.00    -0.002 C 
ATOM     30  C   UNL     1       3.154   7.527   2.808  0.00  0.00    -0.019 C 
ATOM     31  C   UNL     1       3.598   7.103   1.392  0.00  0.00    -0.078 C 
ATOM     32  H   UNL     1       5.525   7.240   1.764  0.00  0.00    -0.081 HD
ENDBRANCH  24  25
ENDBRANCH   9  24
TORSDOF 4
