REMARK  Name = ZINC00814240
REMARK  10 active torsions:
REMARK  status: ('A' for Active; 'I' for Inactive)
REMARK    1  A    between atoms: C_1  and  C_2
REMARK    2  A    between atoms: C_2  and  C_3
REMARK    3  A    between atoms: C_5  and  C_26
REMARK    4  A    between atoms: C_6  and  N_8
REMARK    5  A    between atoms: C_9  and  C_11
REMARK    6  A    between atoms: C_11  and  C_12
REMARK    7  A    between atoms: C_19  and  C_25
REMARK    8  A    between atoms: C_20  and  C_24
REMARK    9  A    between atoms: C_26  and  O_28
REMARK   10  A    between atoms: O_28  and  C_29
REMARK                            x       y       z     vdW  Elec       q    Type
REMARK                         _______ _______ _______ _____ _____    ______ ____
ROOT
ATOM      1  C   UNL     1      -6.426  -2.387   3.167  0.00  0.00    +0.127 C 
ENDROOT
BRANCH   1   2
ATOM      2  C   UNL     1      -6.303  -2.348   4.691  0.00  0.00    +0.166 C 
ATOM      3  C   UNL     1      -7.545  -2.935   5.313  0.00  0.00    +0.238 C 
ATOM      4  O   UNL     1      -7.586  -4.120   5.566  0.00  0.00    -0.273 OA
ATOM      5  N   UNL     1      -8.608  -2.158   5.590  0.00  0.00    -0.282 N 
ATOM      6  C   UNL     1      -8.540  -0.768   5.442  0.00  0.00    +0.055 A 
ATOM      7  C   UNL     1      -9.685   0.008   5.531  0.00  0.00    +0.028 A 
ATOM      8  C   UNL     1      -9.601   1.380   5.374  0.00  0.00    -0.046 A 
ATOM      9  C   UNL     1      -8.381   1.982   5.126  0.00  0.00    -0.046 A 
ATOM     10  C   UNL     1      -7.233   1.215   5.038  0.00  0.00    +0.028 A 
ATOM     11  C   UNL     1      -7.309  -0.157   5.200  0.00  0.00    +0.049 A 
ATOM     12  N   UNL     1      -6.155  -0.955   5.137  0.00  0.00    -0.331 N 
ATOM     13  C   UNL     1      -8.303   3.477   4.952  0.00  0.00    +0.044 C 
ATOM     14  C   UNL     1     -10.847   2.222   5.472  0.00  0.00    +0.044 C 
ATOM     15  H   UNL     1      -9.433  -2.567   5.896  0.00  0.00    +0.155 HD
ATOM     16  H   UNL     1      -5.287  -0.599   5.381  0.00  0.00    +0.147 HD
ENDBRANCH   1   2
BRANCH   1  18
ATOM     17  N   UNL     1      -5.014  -1.859   1.205  0.00  0.00    -0.279 N 
ATOM     18  C   UNL     1      -5.138  -1.910   2.546  0.00  0.00    +0.220 C 
ATOM     19  O   UNL     1      -4.213  -1.572   3.254  0.00  0.00    -0.275 OA
ATOM     20  H   UNL     1      -5.754  -2.130   0.639  0.00  0.00    +0.155 HD
BRANCH  17  24
ATOM     21  C   UNL     1      -1.412  -0.526   0.013  0.00  0.00    -0.008 A 
ATOM     22  C   UNL     1      -2.203  -0.814  -1.037  0.00  0.00    +0.028 A 
ATOM     23  C   UNL     1      -3.524  -1.303  -0.714  0.00  0.00    +0.088 A 
ATOM     24  C   UNL     1      -3.830  -1.421   0.635  0.00  0.00    +0.086 A 
ATOM     25  S   UNL     1      -2.433  -0.916   1.416  0.00  0.00    -0.078 S 
BRANCH  21  27
ATOM     26  C   UNL     1      -0.019   1.526   0.010  0.00  0.00    +0.009 C 
ATOM     27  C   UNL     1       0.002  -0.004   0.002  0.00  0.00    +0.039 C 
ENDBRANCH  21  27
BRANCH  23  28
ATOM     28  C   UNL     1      -4.491  -1.656  -1.756  0.00  0.00    +0.341 C 
ATOM     29  O   UNL     1      -5.595  -2.064  -1.449  0.00  0.00    -0.245 OA
BRANCH  28  30
ATOM     30  O   UNL     1      -4.157  -1.528  -3.057  0.00  0.00    -0.464 OA
ATOM     31  C   UNL     1      -5.148  -1.890  -4.020  0.00  0.00    +0.280 C 
ENDBRANCH  28  30
ENDBRANCH  23  28
ENDBRANCH  17  24
ENDBRANCH   1  18
TORSDOF 6
