REMARK  Name = ZINC40629950
REMARK  10 active torsions:
REMARK  status: ('A' for Active; 'I' for Inactive)
REMARK    1  A    between atoms: C_1  and  C_2
REMARK    2  A    between atoms: C_2  and  C_34
REMARK    3  A    between atoms: C_4  and  N_10
REMARK    4  A    between atoms: C_6  and  C_8
REMARK    5  A    between atoms: C_6  and  C_9
REMARK    6  A    between atoms: C_12  and  N_31
REMARK    7  A    between atoms: C_13  and  N_17
REMARK    8  A    between atoms: N_17  and  N_18
REMARK    9  A    between atoms: N_18  and  C_19
REMARK   10  A    between atoms: N_18  and  C_25
REMARK                            x       y       z     vdW  Elec       q    Type
REMARK                         _______ _______ _______ _____ _____    ______ ____
ROOT
ATOM      1  N   UNL     1       8.002  -3.529  -1.483  0.00  0.00    -0.324 N 
ATOM      2  C   UNL     1       8.342  -2.870  -2.654  0.00  0.00    +0.155 A 
ATOM      3  C   UNL     1       7.380  -2.169  -3.374  0.00  0.00    +0.206 A 
ATOM      4  C   UNL     1       7.771  -1.524  -4.543  0.00  0.00    +0.171 A 
ATOM      5  N   UNL     1       9.044  -1.601  -4.928  0.00  0.00    -0.217 NA
ATOM      6  C   UNL     1       9.926  -2.275  -4.219  0.00  0.00    +0.225 A 
ATOM      7  N   UNL     1       9.596  -2.894  -3.104  0.00  0.00    -0.218 NA
ATOM      8  H   UNL     1       7.087  -3.507  -1.162  0.00  0.00    +0.148 HD
ENDROOT
BRANCH   1  12
ATOM      9  C   UNL     1      10.887  -4.272   1.761  0.00  0.00    -0.010 C 
ATOM     10  C   UNL     1       9.639  -5.134   1.541  0.00  0.00    -0.072 C 
ATOM     11  C   UNL     1       8.606  -4.350   0.738  0.00  0.00    +0.009 C 
ATOM     12  C   UNL     1       9.028  -4.261  -0.729  0.00  0.00    +0.069 C 
ATOM     13  C   UNL     1       9.140  -5.683  -1.279  0.00  0.00    +0.009 C 
ATOM     14  C   UNL     1      10.177  -6.477  -0.491  0.00  0.00    -0.072 C 
ATOM     15  N   UNL     1       9.980  -6.414   0.946  0.00  0.00    +0.386 N 
ATOM     16  C   UNL     1      11.586  -6.019  -0.881  0.00  0.00    -0.010 C 
ATOM     17  C   UNL     1      10.047  -7.957  -0.919  0.00  0.00    -0.010 C 
ATOM     18  C   UNL     1       9.029  -5.410   2.935  0.00  0.00    -0.010 C 
ATOM     19  H   UNL     1      10.827  -6.765   1.402  0.00  0.00    -0.084 HD
ATOM     20  H   UNL     1       9.250  -7.088   1.199  0.00  0.00    -0.084 HD
ENDBRANCH   1  12
BRANCH   3  21
ATOM     21  N   UNL     1       5.976  -2.111  -2.909  0.00  0.00    +0.063 N 
ATOM     22  O   UNL     1       5.620  -1.223  -2.169  0.00  0.00    -0.126 OA
ATOM     23  O   UNL     1       5.184  -2.951  -3.269  0.00  0.00    -0.126 OA
ENDBRANCH   3  21
BRANCH   4  24
ATOM     24  N   UNL     1       6.850  -0.813  -5.297  0.00  0.00    -0.242 N 
ATOM     25  H   UNL     1       5.925  -0.762  -5.010  0.00  0.00    +0.172 HD
BRANCH  24  26
ATOM     26  N   UNL     1       7.256  -0.168  -6.472  0.00  0.00    -0.221 N 
BRANCH  26  27
ATOM     27  C   UNL     1       7.508  -0.912  -7.627  0.00  0.00    +0.053 A 
ATOM     28  C   UNL     1       8.090  -0.307  -8.733  0.00  0.00    +0.025 A 
ATOM     29  C   UNL     1       8.338  -1.046  -9.873  0.00  0.00    +0.002 A 
ATOM     30  C   UNL     1       8.006  -2.388  -9.914  0.00  0.00    +0.000 A 
ATOM     31  C   UNL     1       7.425  -2.994  -8.815  0.00  0.00    +0.002 A 
ATOM     32  C   UNL     1       7.181  -2.262  -7.670  0.00  0.00    +0.025 A 
ENDBRANCH  26  27
BRANCH  26  33
ATOM     33  C   UNL     1       7.409   1.221  -6.490  0.00  0.00    +0.053 A 
ATOM     34  C   UNL     1       8.235   1.842  -5.561  0.00  0.00    +0.025 A 
ATOM     35  C   UNL     1       8.383   3.215  -5.581  0.00  0.00    +0.002 A 
ATOM     36  C   UNL     1       7.711   3.971  -6.524  0.00  0.00    +0.000 A 
ATOM     37  C   UNL     1       6.888   3.356  -7.450  0.00  0.00    +0.002 A 
ATOM     38  C   UNL     1       6.739   1.983  -7.439  0.00  0.00    +0.025 A 
ENDBRANCH  26  33
ENDBRANCH  24  26
ENDBRANCH   4  24
TORSDOF 6
