REMARK  Name = ZINC33771512
REMARK  6 active torsions:
REMARK  status: ('A' for Active; 'I' for Inactive)
REMARK    1  A    between atoms: C_3  and  C_6
REMARK    2  A    between atoms: C_6  and  N_7
REMARK    3  A    between atoms: C_11  and  C_12
REMARK    4  A    between atoms: C_15  and  O_18
REMARK    5  A    between atoms: O_18  and  C_19
REMARK    6  A    between atoms: C_19  and  C_20
REMARK                            x       y       z     vdW  Elec       q    Type
REMARK                         _______ _______ _______ _____ _____    ______ ____
ROOT
ATOM      1  N   UNL     1       6.877   0.987   1.423  0.00  0.00    -0.214 N 
ATOM      2  C   UNL     1       6.369   2.058   2.066  0.00  0.00    +0.259 C 
ATOM      3  O   UNL     1       6.478   3.176   1.599  0.00  0.00    -0.269 OA
ATOM      4  C   UNL     1       5.676   1.836   3.351  0.00  0.00    +0.100 C 
ATOM      5  C   UNL     1       5.130   2.884   4.066  0.00  0.00    +0.026 C 
ATOM      6  C   UNL     1       5.594   0.445   3.837  0.00  0.00    +0.257 C 
ATOM      7  O   UNL     1       5.039   0.181   4.886  0.00  0.00    -0.270 OA
ATOM      8  N   UNL     1       6.150  -0.527   3.084  0.00  0.00    -0.236 N 
ATOM      9  C   UNL     1       6.760  -0.252   1.923  0.00  0.00    +0.316 C 
ATOM     10  O   UNL     1       7.236  -1.174   1.291  0.00  0.00    -0.252 OA
ATOM     11  H   UNL     1       6.105  -1.446   3.389  0.00  0.00    +0.159 HD
ENDROOT
BRANCH   5  12
ATOM     12  C   UNL     1       5.030   4.211   3.459  0.00  0.00    -0.024 A 
ATOM     13  C   UNL     1       4.542   4.352   2.150  0.00  0.00    +0.011 A 
ATOM     14  C   UNL     1       4.451   5.594   1.589  0.00  0.00    +0.046 A 
ATOM     15  C   UNL     1       4.841   6.718   2.311  0.00  0.00    +0.121 A 
ATOM     16  C   UNL     1       5.325   6.584   3.609  0.00  0.00    +0.046 A 
ATOM     17  C   UNL     1       5.416   5.349   4.184  0.00  0.00    +0.011 A 
BRANCH  15  18
ATOM     18  O   UNL     1       4.748   7.948   1.748  0.00  0.00    -0.487 OA
BRANCH  18  19
ATOM     19  C   UNL     1       5.165   9.059   2.544  0.00  0.00    +0.264 C 
BRANCH  19  20
ATOM     20  C   UNL     1       4.991  10.333   1.759  0.00  0.00    -0.010 A 
ATOM     21  C   UNL     1       6.023  10.803   0.967  0.00  0.00    +0.010 A 
ATOM     22  C   UNL     1       5.865  11.971   0.246  0.00  0.00    +0.039 A 
ATOM     23  C   UNL     1       4.673  12.671   0.316  0.00  0.00    +0.123 A 
ATOM     24  C   UNL     1       3.640  12.200   1.109  0.00  0.00    +0.039 A 
ATOM     25  C   UNL     1       3.799  11.029   1.825  0.00  0.00    +0.010 A 
ATOM     26  F   UNL     1       4.517  13.813  -0.388  0.00  0.00    -0.205 F 
ENDBRANCH  19  20
ENDBRANCH  18  19
ENDBRANCH  15  18
ENDBRANCH   5  12
BRANCH   1  27
ATOM     27  C   UNL     1       7.569   1.180   0.146  0.00  0.00    +0.192 C 
BRANCH  27  30
ATOM     28  C   UNL     1       5.072   1.572  -2.536  0.00  0.00    +0.041 A 
ATOM     29  C   UNL     1       5.878   2.109  -1.506  0.00  0.00    +0.046 A 
ATOM     30  C   UNL     1       6.576   1.084  -0.983  0.00  0.00    +0.123 A 
ATOM     31  O   UNL     1       6.237  -0.038  -1.638  0.00  0.00    -0.466 OA
ATOM     32  C   UNL     1       5.325   0.251  -2.581  0.00  0.00    +0.195 A 
ENDBRANCH  27  30
ENDBRANCH   1  27
TORSDOF 6
