REMARK  Name = ZINC09641199
REMARK  7 active torsions:
REMARK  status: ('A' for Active; 'I' for Inactive)
REMARK    1  A    between atoms: C_1  and  C_2
REMARK    2  A    between atoms: C_2  and  C_4
REMARK    3  A    between atoms: C_2  and  N_10
REMARK    4  A    between atoms: C_11  and  C_13
REMARK    5  A    between atoms: C_18  and  N_19
REMARK    6  A    between atoms: N_19  and  S_20
REMARK    7  A    between atoms: S_20  and  C_23
REMARK                            x       y       z     vdW  Elec       q    Type
REMARK                         _______ _______ _______ _____ _____    ______ ____
ROOT
ATOM      1  C   UNL     1       3.124   7.507   3.389  0.00  0.00    +0.059 A 
ATOM      2  C   UNL     1       4.398   7.125   3.818  0.00  0.00    +0.015 A 
ATOM      3  C   UNL     1       5.455   7.147   2.935  0.00  0.00    +0.001 A 
ATOM      4  C   UNL     1       5.262   7.541   1.620  0.00  0.00    +0.002 A 
ATOM      5  C   UNL     1       4.009   7.915   1.180  0.00  0.00    +0.025 A 
ATOM      6  C   UNL     1       2.931   7.900   2.056  0.00  0.00    +0.060 A 
ENDROOT
BRANCH   1   8
ATOM      7  N   UNL     1       2.180   7.115   5.610  0.00  0.00    -0.305 N 
ATOM      8  C   UNL     1       1.990   7.492   4.330  0.00  0.00    +0.246 C 
ATOM      9  O   UNL     1       0.881   7.821   3.952  0.00  0.00    -0.270 OA
ATOM     10  H   UNL     1       3.064   6.852   5.912  0.00  0.00    +0.150 HD
BRANCH   7  12
ATOM     11  C   UNL     1       0.302   5.773   6.419  0.00  0.00    +0.033 C 
ATOM     12  C   UNL     1       1.053   7.100   6.545  0.00  0.00    +0.100 C 
BRANCH  12  13
ATOM     13  C   UNL     1       1.566   7.255   7.954  0.00  0.00    -0.027 A 
ATOM     14  C   UNL     1       2.719   6.600   8.345  0.00  0.00    +0.005 A 
ATOM     15  C   UNL     1       3.192   6.745   9.636  0.00  0.00    +0.000 A 
ATOM     16  C   UNL     1       2.508   7.538  10.538  0.00  0.00    +0.000 A 
ATOM     17  C   UNL     1       1.353   8.190  10.148  0.00  0.00    +0.000 A 
ATOM     18  C   UNL     1       0.881   8.047   8.856  0.00  0.00    +0.005 A 
ENDBRANCH  12  13
ENDBRANCH   7  12
ENDBRANCH   1   8
BRANCH   6  19
ATOM     19  N   UNL     1       1.669   8.277   1.615  0.00  0.00    -0.216 N 
ATOM     20  H   UNL     1       1.071   8.756   2.210  0.00  0.00    +0.174 HD
BRANCH  19  21
ATOM     21  S   UNL     1       1.185   7.907   0.076  0.00  0.00    +0.072 S 
ATOM     22  O   UNL     1       2.188   8.406  -0.797  0.00  0.00    -0.150 OA
ATOM     23  O   UNL     1      -0.178   8.298  -0.027  0.00  0.00    -0.150 OA
BRANCH  21  24
ATOM     24  C   UNL     1       1.216   6.151  -0.073  0.00  0.00    +0.109 A 
ATOM     25  C   UNL     1       2.368   5.516  -0.502  0.00  0.00    +0.030 A 
ATOM     26  C   UNL     1       2.397   4.140  -0.619  0.00  0.00    +0.025 A 
ATOM     27  C   UNL     1       1.267   3.395  -0.306  0.00  0.00    +0.037 A 
ATOM     28  C   UNL     1       0.113   4.036   0.124  0.00  0.00    -0.024 A 
ATOM     29  C   UNL     1       0.090   5.412   0.239  0.00  0.00    +0.034 A 
ATOM     30  C   UNL     1      -1.111   3.227   0.465  0.00  0.00    +0.046 C 
ATOM     31  C   UNL     1      -1.189   2.007  -0.459  0.00  0.00    +0.101 C 
ATOM     32  C   UNL     1       0.141   1.304  -0.486  0.00  0.00    +0.218 C 
ATOM     33  O   UNL     1       0.178   0.095  -0.572  0.00  0.00    -0.275 OA
ATOM     34  N   UNL     1       1.290   2.002  -0.423  0.00  0.00    -0.285 N 
ATOM     35  H   UNL     1       2.139   1.535  -0.458  0.00  0.00    +0.155 HD
ENDBRANCH  21  24
ENDBRANCH  19  21
ENDBRANCH   6  19
TORSDOF 6
