REMARK  Name = ZINC13562411
REMARK  12 active torsions:
REMARK  status: ('A' for Active; 'I' for Inactive)
REMARK    1  A    between atoms: C_1  and  C_2
REMARK    2  A    between atoms: C_2  and  C_4
REMARK    3  A    between atoms: C_7  and  N_10
REMARK    4  A    between atoms: C_11  and  C_12
REMARK    5  A    between atoms: C_13  and  O_37
REMARK    6  A    between atoms: C_16  and  C_18
REMARK    7  A    between atoms: C_18  and  C_19
REMARK    8  A    between atoms: C_21  and  C_26
REMARK    9  A    between atoms: C_22  and  O_25
REMARK   10  A    between atoms: N_27  and  C_28
REMARK   11  A    between atoms: C_31  and  C_34
REMARK   12  A    between atoms: C_34  and  C_36
REMARK                            x       y       z     vdW  Elec       q    Type
REMARK                         _______ _______ _______ _____ _____    ______ ____
ROOT
ATOM      1  C   UNL     1      -7.768  -7.620  -2.514  0.00  0.00    +0.070 C 
ENDROOT
BRANCH   1   6
ATOM      2  C   UNL     1      -6.226  -4.640  -0.760  0.00  0.00    +0.035 A 
ATOM      3  C   UNL     1      -7.269  -4.262   0.102  0.00  0.00    +0.125 A 
ATOM      4  C   UNL     1      -8.455  -4.979   0.101  0.00  0.00    +0.046 A 
ATOM      5  C   UNL     1      -8.610  -6.061  -0.745  0.00  0.00    +0.007 A 
ATOM      6  C   UNL     1      -7.584  -6.438  -1.597  0.00  0.00    -0.042 A 
ATOM      7  C   UNL     1      -6.400  -5.734  -1.615  0.00  0.00    +0.017 A 
BRANCH   2   9
ATOM      8  N   UNL     1      -4.807  -2.869   0.032  0.00  0.00    -0.255 NA
ATOM      9  C   UNL     1      -4.964  -3.889  -0.768  0.00  0.00    +0.123 C 
BRANCH   8  13
ATOM     10  C   UNL     1      -1.259  -0.755   0.010  0.00  0.00    +0.017 A 
ATOM     11  C   UNL     1      -2.482  -0.072   0.019  0.00  0.00    +0.013 A 
ATOM     12  C   UNL     1      -3.654  -0.771   0.026  0.00  0.00    +0.028 A 
ATOM     13  C   UNL     1      -3.635  -2.170   0.025  0.00  0.00    +0.064 A 
ATOM     14  C   UNL     1      -2.413  -2.854   0.016  0.00  0.00    +0.028 A 
ATOM     15  C   UNL     1      -1.241  -2.156   0.002  0.00  0.00    +0.013 A 
BRANCH  10  17
ATOM     16  C   UNL     1      -0.018   1.503   0.010  0.00  0.00    +0.091 C 
ATOM     17  C   UNL     1       0.002  -0.004   0.002  0.00  0.00    +0.160 C 
ATOM     18  O   UNL     1       1.061  -0.596  -0.011  0.00  0.00    -0.292 OA
ENDBRANCH  10  17
ENDBRANCH   8  13
ENDBRANCH   2   9
BRANCH   3  19
ATOM     19  O   UNL     1      -7.115  -3.200   0.933  0.00  0.00    -0.506 OA
ATOM     20  H   UNL     1      -7.393  -2.357   0.549  0.00  0.00    +0.292 HD
ENDBRANCH   3  19
ENDBRANCH   1   6
BRANCH   1  21
ATOM     21  C   UNL     1      -8.347  -7.154  -3.824  0.00  0.00    -0.042 A 
ATOM     22  C   UNL     1      -9.714  -7.099  -3.989  0.00  0.00    +0.017 A 
ATOM     23  C   UNL     1     -10.254  -6.667  -5.205  0.00  0.00    +0.035 A 
ATOM     24  C   UNL     1      -9.393  -6.292  -6.250  0.00  0.00    +0.125 A 
ATOM     25  C   UNL     1      -8.021  -6.354  -6.065  0.00  0.00    +0.046 A 
ATOM     26  C   UNL     1      -7.503  -6.778  -4.856  0.00  0.00    +0.007 A 
BRANCH  24  27
ATOM     27  O   UNL     1      -9.903  -5.871  -7.435  0.00  0.00    -0.506 OA
ATOM     28  H   UNL     1     -10.054  -4.917  -7.482  0.00  0.00    +0.292 HD
ENDBRANCH  24  27
BRANCH  23  29
ATOM     29  C   UNL     1     -11.710  -6.606  -5.388  0.00  0.00    +0.123 C 
ATOM     30  N   UNL     1     -12.208  -6.202  -6.525  0.00  0.00    -0.255 NA
BRANCH  30  31
ATOM     31  C   UNL     1     -13.561  -6.145  -6.695  0.00  0.00    +0.064 A 
ATOM     32  C   UNL     1     -14.365  -7.207  -6.265  0.00  0.00    +0.028 A 
ATOM     33  C   UNL     1     -15.718  -7.152  -6.435  0.00  0.00    +0.013 A 
ATOM     34  C   UNL     1     -16.302  -6.031  -7.041  0.00  0.00    +0.017 A 
ATOM     35  C   UNL     1     -15.496  -4.968  -7.471  0.00  0.00    +0.013 A 
ATOM     36  C   UNL     1     -14.144  -5.023  -7.295  0.00  0.00    +0.028 A 
BRANCH  34  37
ATOM     37  C   UNL     1     -17.757  -5.971  -7.224  0.00  0.00    +0.160 C 
ATOM     38  O   UNL     1     -18.454  -6.891  -6.853  0.00  0.00    -0.292 OA
ATOM     39  C   UNL     1     -18.385  -4.765  -7.875  0.00  0.00    +0.091 C 
ENDBRANCH  34  37
ENDBRANCH  30  31
ENDBRANCH  23  29
ENDBRANCH   1  21
TORSDOF 10
