REMARK  Name = ZINC40345196
REMARK  14 active torsions:
REMARK  status: ('A' for Active; 'I' for Inactive)
REMARK    1  A    between atoms: C_1  and  C_2
REMARK    2  A    between atoms: C_2  and  O_3
REMARK    3  A    between atoms: O_3  and  C_4
REMARK    4  A    between atoms: C_7  and  C_13
REMARK    5  A    between atoms: C_9  and  O_10
REMARK    6  A    between atoms: O_10  and  C_11
REMARK    7  A    between atoms: C_11  and  C_12
REMARK    8  A    between atoms: C_16  and  C_32
REMARK    9  A    between atoms: N_23  and  C_24
REMARK   10  A    between atoms: C_24  and  C_25
REMARK   11  A    between atoms: C_25  and  C_26
REMARK   12  A    between atoms: C_26  and  N_27
REMARK   13  A    between atoms: C_35  and  O_38
REMARK   14  A    between atoms: O_38  and  C_39
REMARK                            x       y       z     vdW  Elec       q    Type
REMARK                         _______ _______ _______ _____ _____    ______ ____
ROOT
ATOM      1  C   UNL     1      -1.996  -6.097  -0.011  0.00  0.00    +0.141 C 
ATOM      2  C   UNL     1      -1.766  -6.638  -1.396  0.00  0.00    +0.035 A 
ATOM      3  C   UNL     1      -2.142  -6.650  -2.700  0.00  0.00    +0.072 A 
ATOM      4  N   UNL     1      -1.302  -7.514  -3.342  0.00  0.00    -0.276 N 
ATOM      5  N   UNL     1      -0.460  -8.009  -2.506  0.00  0.00    -0.168 NA
ATOM      6  H   UNL     1      -1.336  -7.724  -4.289  0.00  0.00    +0.189 HD
ATOM      7  C   UNL     1      -0.672  -7.528  -1.298  0.00  0.00    +0.153 A 
ATOM      8  C   UNL     1      -0.228  -7.547   0.108  0.00  0.00    +0.268 C 
ATOM      9  O   UNL     1       0.695  -8.212   0.534  0.00  0.00    -0.268 OA
ATOM     10  N   UNL     1      -0.989  -6.724   0.852  0.00  0.00    -0.285 N 
ENDROOT
BRANCH   1  14
ATOM     11  C   UNL     1      -1.498  -1.849   0.006  0.00  0.00    +0.162 A 
ATOM     12  C   UNL     1      -0.389  -2.680  -0.003  0.00  0.00    +0.050 A 
ATOM     13  C   UNL     1      -0.553  -4.052  -0.008  0.00  0.00    +0.009 A 
ATOM     14  C   UNL     1      -1.823  -4.600  -0.005  0.00  0.00    -0.019 A 
ATOM     15  C   UNL     1      -2.934  -3.777   0.004  0.00  0.00    +0.055 A 
ATOM     16  C   UNL     1      -2.776  -2.400   0.016  0.00  0.00    +0.162 A 
BRANCH  11  17
ATOM     17  O   UNL     1      -1.339  -0.499   0.012  0.00  0.00    -0.489 OA
BRANCH  17  19
ATOM     18  C   UNL     1      -0.019   1.526   0.010  0.00  0.00    +0.048 C 
ATOM     19  C   UNL     1       0.002  -0.004   0.002  0.00  0.00    +0.226 C 
ENDBRANCH  17  19
ENDBRANCH  11  17
BRANCH  16  20
ATOM     20  O   UNL     1      -3.868  -1.589   0.030  0.00  0.00    -0.489 OA
BRANCH  20  21
ATOM     21  C   UNL     1      -5.148  -2.225   0.039  0.00  0.00    +0.226 C 
ATOM     22  C   UNL     1      -6.246  -1.159   0.055  0.00  0.00    +0.048 C 
ENDBRANCH  20  21
ENDBRANCH  16  20
ENDBRANCH   1  14
BRANCH   3  23
ATOM     23  C   UNL     1      -3.248  -5.877  -3.308  0.00  0.00    +0.000 A 
ATOM     24  C   UNL     1      -4.487  -5.808  -2.670  0.00  0.00    +0.013 A 
ATOM     25  C   UNL     1      -5.515  -5.087  -3.239  0.00  0.00    +0.046 A 
ATOM     26  C   UNL     1      -5.319  -4.430  -4.446  0.00  0.00    +0.120 A 
ATOM     27  C   UNL     1      -4.087  -4.496  -5.085  0.00  0.00    +0.046 A 
ATOM     28  C   UNL     1      -3.053  -5.211  -4.519  0.00  0.00    +0.013 A 
BRANCH  26  29
ATOM     29  O   UNL     1      -6.334  -3.720  -5.004  0.00  0.00    -0.495 OA
ATOM     30  C   UNL     1      -6.064  -3.069  -6.247  0.00  0.00    +0.277 C 
ENDBRANCH  26  29
ENDBRANCH   3  23
BRANCH  10  31
ATOM     31  C   UNL     1      -0.837  -6.492   2.291  0.00  0.00    +0.111 C 
BRANCH  31  32
ATOM     32  C   UNL     1      -1.694  -7.497   3.063  0.00  0.00    +0.040 C 
BRANCH  32  33
ATOM     33  C   UNL     1      -1.535  -7.254   4.565  0.00  0.00    +0.124 C 
BRANCH  33  34
ATOM     34  N   UNL     1      -2.355  -8.216   5.305  0.00  0.00    -0.338 N 
ATOM     35  C   UNL     1      -3.659  -8.049   5.686  0.00  0.00    +0.104 A 
ATOM     36  C   UNL     1      -4.022  -9.170   6.338  0.00  0.00    +0.101 A 
ATOM     37  N   UNL     1      -2.968 -10.000   6.354  0.00  0.00    -0.352 N 
ATOM     38  C   UNL     1      -1.967  -9.437   5.733  0.00  0.00    +0.173 A 
ATOM     39  H   UNL     1      -2.953 -10.880   6.761  0.00  0.00    +0.166 HD
ENDBRANCH  33  34
ENDBRANCH  32  33
ENDBRANCH  31  32
ENDBRANCH  10  31
TORSDOF 11
