REMARK  Name = ZINC61099517
REMARK  3 active torsions:
REMARK  status: ('A' for Active; 'I' for Inactive)
REMARK    1  A    between atoms: C_3  and  N_12
REMARK    2  A    between atoms: C_10  and  N_11
REMARK    3  A    between atoms: N_12  and  C_13
REMARK                            x       y       z     vdW  Elec       q    Type
REMARK                         _______ _______ _______ _____ _____    ______ ____
ROOT
ATOM      1  C   UNL     1      -0.045   1.507  -0.070  0.00  0.00    +0.025 A 
ATOM      2  C   UNL     1       1.166   2.175   0.076  0.00  0.00    +0.025 A 
ATOM      3  C   UNL     1       2.363   1.535  -0.172  0.00  0.00    +0.039 A 
ATOM      4  C   UNL     1       2.357   0.187  -0.578  0.00  0.00    +0.008 A 
ATOM      5  C   UNL     1       3.544  -0.518  -0.845  0.00  0.00    +0.028 A 
ATOM      6  C   UNL     1       3.457  -1.820  -1.233  0.00  0.00    +0.083 A 
ATOM      7  N   UNL     1       2.289  -2.434  -1.365  0.00  0.00    -0.366 N 
ATOM      8  C   UNL     1       1.143  -1.838  -1.133  0.00  0.00    +0.093 A 
ATOM      9  C   UNL     1       1.123  -0.496  -0.727  0.00  0.00    +0.020 A 
ATOM     10  C   UNL     1      -0.083   0.187  -0.467  0.00  0.00    +0.034 A 
ATOM     11  H   UNL     1       2.282  -3.363  -1.645  0.00  0.00    +0.165 HD
ENDROOT
BRANCH  10  12
ATOM     12  N   UNL     1      -1.307  -0.469  -0.609  0.00  0.00    -0.357 N 
ATOM     13  H   UNL     1      -2.134   0.003  -0.429  0.00  0.00    +0.142 HD
ATOM     14  H   UNL     1      -1.330  -1.398  -0.888  0.00  0.00    +0.142 HD
ENDBRANCH  10  12
BRANCH   3  15
ATOM     15  N   UNL     1       3.572   2.220  -0.021  0.00  0.00    -0.312 N 
ATOM     16  H   UNL     1       4.405   1.794  -0.277  0.00  0.00    +0.152 HD
BRANCH  15  17
ATOM     17  C   UNL     1       3.580   3.518   0.497  0.00  0.00    +0.073 A 
ATOM     18  C   UNL     1       2.790   3.834   1.594  0.00  0.00    +0.064 A 
ATOM     19  C   UNL     1       2.799   5.120   2.105  0.00  0.00    +0.128 A 
ATOM     20  C   UNL     1       3.596   6.092   1.524  0.00  0.00    +0.079 A 
ATOM     21  C   UNL     1       4.385   5.781   0.429  0.00  0.00    +0.163 A 
ATOM     22  C   UNL     1       4.384   4.494  -0.082  0.00  0.00    +0.180 A 
ATOM     23  F   UNL     1       5.159   4.188  -1.146  0.00  0.00    -0.201 F 
ATOM     24  F   UNL     1       5.161   6.731  -0.136  0.00  0.00    -0.202 F 
ATOM     25  F   UNL     1       2.030   5.427   3.172  0.00  0.00    -0.205 F 
ENDBRANCH  15  17
ENDBRANCH   3  15
TORSDOF 3
