REMARK  Name = ZINC66908973
REMARK  11 active torsions:
REMARK  status: ('A' for Active; 'I' for Inactive)
REMARK    1  A    between atoms: C_1  and  C_2
REMARK    2  A    between atoms: C_2  and  N_3
REMARK    3  A    between atoms: N_3  and  C_4
REMARK    4  A    between atoms: N_3  and  C_6
REMARK    5  A    between atoms: C_4  and  C_5
REMARK    6  A    between atoms: C_6  and  C_8
REMARK    7  A    between atoms: C_6  and  C_24
REMARK    8  A    between atoms: C_8  and  N_9
REMARK    9  A    between atoms: N_12  and  N_13
REMARK   10  A    between atoms: C_14  and  C_16
REMARK   11  A    between atoms: C_16  and  C_17
REMARK                            x       y       z     vdW  Elec       q    Type
REMARK                         _______ _______ _______ _____ _____    ______ ____
ROOT
ATOM      1  N   UNL     1      -3.218  -1.818  -1.202  0.00  0.00    -0.299 N 
ATOM      2  C   UNL     1      -4.566  -1.836  -1.188  0.00  0.00    +0.316 C 
ATOM      3  O   UNL     1      -5.159  -2.092  -0.158  0.00  0.00    -0.251 OA
ATOM      4  N   UNL     1      -5.256  -1.569  -2.315  0.00  0.00    -0.218 N 
ATOM      5  H   UNL     1      -2.746  -1.540  -2.003  0.00  0.00    +0.150 HD
ATOM      6  H   UNL     1      -6.223  -1.505  -2.287  0.00  0.00    +0.174 HD
ENDROOT
BRANCH   4   7
ATOM      7  N   UNL     1      -4.575  -1.385  -3.525  0.00  0.00    -0.233 N 
ATOM      8  C   UNL     1      -5.253  -1.014  -4.630  0.00  0.00    +0.234 C 
ATOM      9  O   UNL     1      -6.452  -0.841  -4.575  0.00  0.00    -0.274 OA
ATOM     10  H   UNL     1      -3.616  -1.523  -3.569  0.00  0.00    +0.173 HD
BRANCH   8  11
ATOM     11  C   UNL     1      -4.521  -0.816  -5.932  0.00  0.00    +0.135 C 
BRANCH  11  12
ATOM     12  C   UNL     1      -5.501  -0.406  -7.001  0.00  0.00    -0.003 A 
ATOM     13  C   UNL     1      -6.056  -1.361  -7.833  0.00  0.00    +0.007 A 
ATOM     14  C   UNL     1      -6.954  -0.986  -8.814  0.00  0.00    +0.000 A 
ATOM     15  C   UNL     1      -7.300   0.344  -8.965  0.00  0.00    +0.003 A 
ATOM     16  C   UNL     1      -6.747   1.300  -8.134  0.00  0.00    +0.038 A 
ATOM     17  C   UNL     1      -5.851   0.925  -7.148  0.00  0.00    +0.127 A 
ATOM     18  F   UNL     1      -5.313   1.859  -6.332  0.00  0.00    -0.205 F 
ENDBRANCH  11  12
ENDBRANCH   8  11
ENDBRANCH   4   7
BRANCH   1  19
ATOM     19  C   UNL     1      -2.467  -2.218  -0.010  0.00  0.00    +0.095 C 
BRANCH  19  20
ATOM     20  C   UNL     1      -0.974  -1.986  -0.246  0.00  0.00    -0.020 C 
BRANCH  20  21
ATOM     21  C   UNL     1      -0.209  -2.319   1.009  0.00  0.00    -0.052 A 
ATOM     22  C   UNL     1       0.885  -3.162   0.961  0.00  0.00    +0.009 A 
ATOM     23  C   UNL     1       1.551  -3.441   2.108  0.00  0.00    +0.045 A 
ATOM     24  S   UNL     1       0.627  -2.498   3.310  0.00  0.00    -0.105 S 
ATOM     25  C   UNL     1      -0.581  -1.792   2.201  0.00  0.00    +0.047 A 
ENDBRANCH  20  21
BRANCH  20  26
ATOM     26  N   UNL     1      -0.747  -0.578  -0.599  0.00  0.00    +0.385 N 
ATOM     27  H   UNL     1      -1.298  -0.342  -1.410  0.00  0.00    -0.081 HD
BRANCH  26  29
ATOM     28  C   UNL     1      -1.077   1.746   0.099  0.00  0.00    -0.017 C 
ATOM     29  C   UNL     1      -1.141   0.279   0.527  0.00  0.00    -0.081 C 
ENDBRANCH  26  29
BRANCH  26  30
ATOM     30  C   UNL     1       0.677  -0.371  -0.896  0.00  0.00    -0.081 C 
ATOM     31  C   UNL     1       1.056  -1.159  -2.151  0.00  0.00    -0.017 C 
ENDBRANCH  26  30
ENDBRANCH  20  26
ENDBRANCH  19  20
ENDBRANCH   1  19
TORSDOF 9
