REMARK  Name = ZINC63855862
REMARK  6 active torsions:
REMARK  status: ('A' for Active; 'I' for Inactive)
REMARK    1  A    between atoms: C_1  and  C_2
REMARK    2  A    between atoms: C_2  and  C_3
REMARK    3  A    between atoms: N_5  and  C_26
REMARK    4  A    between atoms: C_6  and  N_11
REMARK    5  A    between atoms: C_8  and  C_10
REMARK    6  A    between atoms: C_12  and  C_14
REMARK                            x       y       z     vdW  Elec       q    Type
REMARK                         _______ _______ _______ _____ _____    ______ ____
ROOT
ATOM      1  N   UNL     1      -3.534  -2.219  -1.824  0.00  0.00    -0.288 N 
ATOM      2  C   UNL     1      -4.623  -2.929  -2.177  0.00  0.00    +0.281 C 
ATOM      3  O   UNL     1      -5.423  -3.276  -1.331  0.00  0.00    -0.267 OA
ATOM      4  H   UNL     1      -2.919  -1.903  -2.505  0.00  0.00    +0.151 HD
ENDROOT
BRANCH   2   5
ATOM      5  C   UNL     1      -4.846  -3.288  -3.599  0.00  0.00    +0.197 A 
ATOM      6  N   UNL     1      -5.966  -4.006  -3.922  0.00  0.00    -0.303 N 
ATOM      7  H   UNL     1      -6.589  -4.266  -3.226  0.00  0.00    +0.171 HD
ATOM      8  C   UNL     1      -6.209  -4.354  -5.208  0.00  0.00    +0.260 A 
ATOM      9  O   UNL     1      -7.200  -4.991  -5.514  0.00  0.00    -0.267 OA
ATOM     10  C   UNL     1      -5.228  -3.931  -6.221  0.00  0.00    +0.065 A 
ATOM     11  C   UNL     1      -5.387  -4.238  -7.569  0.00  0.00    +0.015 A 
ATOM     12  C   UNL     1      -4.439  -3.819  -8.479  0.00  0.00    +0.001 A 
ATOM     13  C   UNL     1      -3.331  -3.094  -8.060  0.00  0.00    +0.002 A 
ATOM     14  C   UNL     1      -3.154  -2.779  -6.732  0.00  0.00    +0.028 A 
ATOM     15  C   UNL     1      -4.101  -3.193  -5.790  0.00  0.00    +0.079 A 
ATOM     16  N   UNL     1      -3.969  -2.901  -4.482  0.00  0.00    -0.225 NA
ENDBRANCH   2   5
BRANCH   1  20
ATOM     17  C   UNL     1      -1.288  -0.830   0.379  0.00  0.00    +0.043 C 
ATOM     18  N   UNL     1      -2.224   0.026   0.305  0.00  0.00    -0.187 NA
ATOM     19  N   UNL     1      -3.440  -0.485  -0.144  0.00  0.00    -0.203 N 
ATOM     20  C   UNL     1      -3.277  -1.924  -0.412  0.00  0.00    +0.192 C 
ATOM     21  C   UNL     1      -1.797  -2.183  -0.064  0.00  0.00    +0.072 C 
ATOM     22  C   UNL     1      -1.687  -3.198   1.075  0.00  0.00    +0.017 C 
BRANCH  19  23
ATOM     23  C   UNL     1      -4.617   0.246  -0.312  0.00  0.00    +0.054 A 
ATOM     24  C   UNL     1      -5.834  -0.413  -0.441  0.00  0.00    +0.025 A 
ATOM     25  C   UNL     1      -6.997   0.313  -0.607  0.00  0.00    +0.002 A 
ATOM     26  C   UNL     1      -6.951   1.694  -0.646  0.00  0.00    +0.000 A 
ATOM     27  C   UNL     1      -5.742   2.354  -0.519  0.00  0.00    +0.002 A 
ATOM     28  C   UNL     1      -4.576   1.634  -0.346  0.00  0.00    +0.025 A 
ENDBRANCH  19  23
BRANCH  17  30
ATOM     29  C   UNL     1       0.241   0.942   1.198  0.00  0.00    +0.010 C 
ATOM     30  C   UNL     1       0.118  -0.539   0.834  0.00  0.00    +0.049 C 
ENDBRANCH  17  30
ENDBRANCH   1  20
TORSDOF 4
