REMARK  Name = ZINC13039760
REMARK  11 active torsions:
REMARK  status: ('A' for Active; 'I' for Inactive)
REMARK    1  A    between atoms: C_1  and  C_2
REMARK    2  A    between atoms: C_7  and  O_8
REMARK    3  A    between atoms: O_8  and  C_9
REMARK    4  A    between atoms: C_9  and  C_10
REMARK    5  A    between atoms: N_12  and  C_13
REMARK    6  A    between atoms: N_12  and  C_21
REMARK    7  A    between atoms: C_13  and  C_14
REMARK    8  A    between atoms: C_14  and  C_15
REMARK    9  A    between atoms: C_22  and  N_37
REMARK   10  A    between atoms: N_23  and  C_30
REMARK   11  A    between atoms: C_30  and  C_31
REMARK                            x       y       z     vdW  Elec       q    Type
REMARK                         _______ _______ _______ _____ _____    ______ ____
ROOT
ATOM      1  C   UNL     1      -0.483   4.267  -5.426  0.00  0.00    +0.258 C 
ATOM      2  O   UNL     1      -0.666   4.822  -6.489  0.00  0.00    -0.272 OA
ATOM      3  N   UNL     1      -0.448   4.987  -4.285  0.00  0.00    -0.261 N 
ENDROOT
BRANCH   3   4
ATOM      4  C   UNL     1      -0.735   6.368  -4.314  0.00  0.00    +0.140 A 
ATOM      5  C   UNL     1       0.243   7.295  -4.014  0.00  0.00    +0.128 A 
ATOM      6  N   UNL     1      -0.066   8.634  -4.054  0.00  0.00    -0.276 N 
ATOM      7  C   UNL     1      -1.310   9.037  -4.374  0.00  0.00    +0.331 A 
ATOM      8  O   UNL     1      -1.564  10.225  -4.400  0.00  0.00    -0.246 OA
ATOM      9  N   UNL     1      -2.276   8.148  -4.664  0.00  0.00    -0.273 N 
ATOM     10  H   UNL     1      -3.192   8.473  -4.899  0.00  0.00    +0.173 HD
ATOM     11  C   UNL     1      -2.025   6.825  -4.644  0.00  0.00    +0.277 A 
ATOM     12  O   UNL     1      -2.909   6.028  -4.909  0.00  0.00    -0.266 OA
BRANCH   5  13
ATOM     13  N   UNL     1       1.512   6.883  -3.682  0.00  0.00    -0.343 N 
ATOM     14  H   UNL     1       1.706   5.938  -3.589  0.00  0.00    +0.144 HD
ATOM     15  H   UNL     1       2.213   7.539  -3.542  0.00  0.00    +0.144 HD
ENDBRANCH   5  13
BRANCH   6  16
ATOM     16  C   UNL     1       0.964   9.629  -3.743  0.00  0.00    +0.163 C 
BRANCH  16  17
ATOM     17  C   UNL     1       0.948   9.921  -2.264  0.00  0.00    -0.028 A 
ATOM     18  C   UNL     1       0.152  10.937  -1.769  0.00  0.00    +0.005 A 
ATOM     19  C   UNL     1       0.135  11.202  -0.412  0.00  0.00    +0.000 A 
ATOM     20  C   UNL     1       0.921  10.458   0.448  0.00  0.00    +0.000 A 
ATOM     21  C   UNL     1       1.721   9.446  -0.048  0.00  0.00    +0.000 A 
ATOM     22  C   UNL     1       1.734   9.177  -1.404  0.00  0.00    +0.005 A 
ENDBRANCH  16  17
ENDBRANCH   6  16
ENDBRANCH   3   4
BRANCH   1  23
ATOM     23  C   UNL     1      -0.295   2.772  -5.380  0.00  0.00    +0.325 C 
BRANCH  23  24
ATOM     24  O   UNL     1      -0.373   2.241  -6.704  0.00  0.00    -0.482 OA
BRANCH  24  31
ATOM     25  C   UNL     1      -0.523   1.171  -9.313  0.00  0.00    +0.047 C 
ATOM     26  C   UNL     1      -0.287   0.314  -8.096  0.00  0.00    -0.009 A 
ATOM     27  C   UNL     1      -0.135  -1.052  -8.231  0.00  0.00    +0.007 A 
ATOM     28  C   UNL     1       0.082  -1.839  -7.115  0.00  0.00    +0.000 A 
ATOM     29  C   UNL     1       0.147  -1.260  -5.861  0.00  0.00    +0.004 A 
ATOM     30  C   UNL     1       0.001   0.107  -5.721  0.00  0.00    +0.046 A 
ATOM     31  C   UNL     1      -0.223   0.897  -6.839  0.00  0.00    +0.124 A 
ENDBRANCH  24  31
ENDBRANCH  23  24
ENDBRANCH   1  23
BRANCH   3  32
ATOM     32  C   UNL     1      -0.112   4.335  -3.017  0.00  0.00    +0.118 C 
BRANCH  32  33
ATOM     33  C   UNL     1      -1.398   3.927  -2.297  0.00  0.00    +0.050 C 
BRANCH  33  34
ATOM     34  C   UNL     1      -1.052   3.256  -0.993  0.00  0.00    -0.072 C 
ATOM     35  C   UNL     1      -1.035   3.983   0.078  0.00  0.00    -0.028 C 
ATOM     36  C   UNL     1      -0.700   3.460   1.444  0.00  0.00    +0.027 C 
ATOM     37  C   UNL     1      -0.800   1.934   1.468  0.00  0.00    +0.004 C 
ATOM     38  C   UNL     1      -0.023   1.378   0.268  0.00  0.00    +0.005 C 
ATOM     39  C   UNL     1      -0.749   1.786  -1.016  0.00  0.00    +0.030 C 
ENDBRANCH  33  34
ENDBRANCH  32  33
ENDBRANCH   3  32
TORSDOF 10
