REMARK  Name = ZINC21225474
REMARK  7 active torsions:
REMARK  status: ('A' for Active; 'I' for Inactive)
REMARK    1  A    between atoms: C_1  and  C_2
REMARK    2  A    between atoms: C_2  and  O_3
REMARK    3  A    between atoms: O_3  and  C_4
REMARK    4  A    between atoms: C_7  and  C_12
REMARK    5  A    between atoms: C_9  and  O_10
REMARK    6  A    between atoms: O_10  and  C_11
REMARK    7  A    between atoms: C_17  and  C_27
REMARK                            x       y       z     vdW  Elec       q    Type
REMARK                         _______ _______ _______ _____ _____    ______ ____
ROOT
ATOM      1  C   UNL     1      -1.333   2.112   0.020  0.00  0.00    +0.032 C 
ATOM      2  C   UNL     1      -2.129   1.730   1.266  0.00  0.00    +0.059 C 
ATOM      3  C   UNL     1      -3.464   2.455   1.271  0.00  0.00    +0.017 C 
ATOM      4  C   UNL     1      -4.089   2.741   0.115  0.00  0.00    +0.039 C 
ATOM      5  C   UNL     1      -5.415   3.449  -0.024  0.00  0.00    +0.172 C 
ATOM      6  N   UNL     1      -6.149   3.600   1.214  0.00  0.00    -0.329 N 
ATOM      7  C   UNL     1      -5.651   4.383   2.254  0.00  0.00    +0.049 A 
ATOM      8  C   UNL     1      -6.298   5.537   2.667  0.00  0.00    +0.025 A 
ATOM      9  C   UNL     1      -5.740   6.308   3.672  0.00  0.00    +0.002 A 
ATOM     10  C   UNL     1      -4.544   5.934   4.258  0.00  0.00    +0.002 A 
ATOM     11  C   UNL     1      -3.904   4.773   3.860  0.00  0.00    +0.025 A 
ATOM     12  C   UNL     1      -4.472   3.990   2.871  0.00  0.00    +0.052 A 
ATOM     13  N   UNL     1      -3.943   2.759   2.504  0.00  0.00    -0.316 N 
ATOM     14  C   UNL     1      -3.499   2.383  -1.120  0.00  0.00    +0.163 C 
ATOM     15  O   UNL     1      -4.096   2.631  -2.149  0.00  0.00    -0.292 OA
ATOM     16  C   UNL     1      -2.162   1.709  -1.205  0.00  0.00    +0.088 C 
ATOM     17  H   UNL     1      -7.115   3.091   1.346  0.00  0.00    +0.147 HD
ATOM     18  H   UNL     1      -3.930   2.001   3.301  0.00  0.00    +0.152 HD
ENDROOT
BRANCH   1  22
ATOM     19  C   UNL     1       2.399   0.024  -0.020  0.00  0.00    +0.162 A 
ATOM     20  C   UNL     1       1.207  -0.682  -0.013  0.00  0.00    +0.050 A 
ATOM     21  C   UNL     1       0.002  -0.004   0.002  0.00  0.00    +0.008 A 
ATOM     22  C   UNL     1      -0.017   1.378   0.010  0.00  0.00    -0.040 A 
ATOM     23  C   UNL     1       1.169   2.089   0.002  0.00  0.00    +0.053 A 
ATOM     24  C   UNL     1       2.380   1.415  -0.013  0.00  0.00    +0.162 A 
BRANCH  24  25
ATOM     25  O   UNL     1       3.548   2.113  -0.020  0.00  0.00    -0.491 OA
ATOM     26  C   UNL     1       3.452   3.539  -0.012  0.00  0.00    +0.277 C 
ENDBRANCH  24  25
BRANCH  19  27
ATOM     27  O   UNL     1       3.585  -0.641  -0.035  0.00  0.00    -0.489 OA
BRANCH  27  29
ATOM     28  C   UNL     1       4.949  -2.636  -0.059  0.00  0.00    +0.048 C 
ATOM     29  C   UNL     1       3.528  -2.069  -0.042  0.00  0.00    +0.226 C 
ENDBRANCH  27  29
ENDBRANCH  19  27
ENDBRANCH   1  22
BRANCH   5  30
ATOM     30  C   UNL     1      -5.165   4.821  -0.597  0.00  0.00    +0.130 A 
ATOM     31  C   UNL     1      -5.328   5.178  -1.883  0.00  0.00    +0.047 A 
ATOM     32  C   UNL     1      -4.983   6.545  -1.976  0.00  0.00    +0.041 A 
ATOM     33  C   UNL     1      -4.630   6.943  -0.740  0.00  0.00    +0.195 A 
ATOM     34  O   UNL     1      -4.748   5.896   0.092  0.00  0.00    -0.466 OA
ENDBRANCH   5  30
TORSDOF 5
