REMARK  Name = ZINC50901534
REMARK  9 active torsions:
REMARK  status: ('A' for Active; 'I' for Inactive)
REMARK    1  A    between atoms: C_1  and  C_2
REMARK    2  A    between atoms: C_2  and  C_3
REMARK    3  A    between atoms: C_3  and  C_4
REMARK    4  A    between atoms: C_4  and  N_5
REMARK    5  A    between atoms: C_6  and  C_8
REMARK    6  A    between atoms: N_13  and  C_15
REMARK    7  A    between atoms: C_15  and  N_16
REMARK    8  A    between atoms: C_20  and  C_28
REMARK    9  A    between atoms: C_25  and  C_27
REMARK                            x       y       z     vdW  Elec       q    Type
REMARK                         _______ _______ _______ _____ _____    ______ ____
ROOT
ATOM      1  C   UNL     1       3.032  -7.837   5.051  0.00  0.00    +0.043 C 
ENDROOT
BRANCH   1   2
ATOM      2  N   UNL     1       3.629  -8.321   6.298  0.00  0.00    -0.241 N 
ATOM      3  C   UNL     1       4.938  -8.608   6.450  0.00  0.00    +0.245 C 
ATOM      4  O   UNL     1       5.812  -8.518   5.614  0.00  0.00    -0.273 OA
ATOM      5  C   UNL     1       5.087  -9.066   7.883  0.00  0.00    +0.118 C 
ATOM      6  C   UNL     1       6.028  -8.137   8.643  0.00  0.00    +0.019 C 
ATOM      7  C   UNL     1       7.428  -8.215   8.030  0.00  0.00    +0.006 C 
ATOM      8  C   UNL     1       7.936  -9.656   8.105  0.00  0.00    +0.001 C 
ATOM      9  C   UNL     1       6.995 -10.573   7.322  0.00  0.00    +0.006 C 
ATOM     10  C   UNL     1       5.592 -10.503   7.932  0.00  0.00    +0.019 C 
ATOM     11  C   UNL     1       4.645 -11.404   7.138  0.00  0.00    +0.010 C 
ATOM     12  C   UNL     1       5.510  -6.700   8.549  0.00  0.00    +0.010 C 
ATOM     13  N   UNL     1       3.726  -8.979   8.428  0.00  0.00    -0.284 N 
ATOM     14  C   UNL     1       2.943  -8.529   7.429  0.00  0.00    +0.308 C 
ATOM     15  O   UNL     1       1.749  -8.337   7.540  0.00  0.00    -0.252 OA
ATOM     16  H   UNL     1       3.447  -9.198   9.331  0.00  0.00    +0.151 HD
ENDBRANCH   1   2
BRANCH   1  21
ATOM     17  C   UNL     1       2.343  -4.350   3.846  0.00  0.00    +0.058 C 
ATOM     18  C   UNL     1       3.781  -3.822   3.834  0.00  0.00    +0.009 C 
ATOM     19  C   UNL     1       4.535  -4.398   5.037  0.00  0.00    -0.018 C 
ATOM     20  C   UNL     1       4.478  -5.926   4.983  0.00  0.00    -0.077 C 
ATOM     21  N   UNL     1       3.079  -6.369   5.024  0.00  0.00    +0.391 N 
ATOM     22  C   UNL     1       2.366  -5.880   3.837  0.00  0.00    -0.064 C 
ATOM     23  H   UNL     1       2.636  -6.005   5.854  0.00  0.00    -0.079 HD
BRANCH  17  25
ATOM     24  N   UNL     1       1.471  -2.526   2.420  0.00  0.00    -0.315 N 
ATOM     25  C   UNL     1       1.615  -3.850   2.625  0.00  0.00    +0.214 C 
ATOM     26  O   UNL     1       1.157  -4.641   1.827  0.00  0.00    -0.276 OA
ATOM     27  H   UNL     1       1.837  -1.894   3.058  0.00  0.00    +0.149 HD
BRANCH  24  28
ATOM     28  C   UNL     1       0.763  -2.041   1.233  0.00  0.00    +0.104 C 
BRANCH  28  29
ATOM     29  C   UNL     1       0.742  -0.511   1.242  0.00  0.00    +0.018 C 
BRANCH  29  31
ATOM     30  C   UNL     1      -0.019   1.526   0.010  0.00  0.00    +0.004 C 
ATOM     31  C   UNL     1       0.002  -0.004   0.002  0.00  0.00    -0.002 C 
ENDBRANCH  29  31
ENDBRANCH  28  29
ENDBRANCH  24  28
ENDBRANCH  17  25
ENDBRANCH   1  21
TORSDOF 6
