REMARK  Name = ZINC02193860
REMARK  9 active torsions:
REMARK  status: ('A' for Active; 'I' for Inactive)
REMARK    1  A    between atoms: C_1  and  N_2
REMARK    2  A    between atoms: N_2  and  C_3
REMARK    3  A    between atoms: N_2  and  C_4
REMARK    4  A    between atoms: C_7  and  C_10
REMARK    5  A    between atoms: N_11  and  N_12
REMARK    6  A    between atoms: C_13  and  N_31
REMARK    7  A    between atoms: C_14  and  C_25
REMARK    8  A    between atoms: N_27  and  C_28
REMARK    9  A    between atoms: C_28  and  C_29
REMARK                            x       y       z     vdW  Elec       q    Type
REMARK                         _______ _______ _______ _____ _____    ______ ____
ROOT
ATOM      1  N   UNL     1      -4.837   0.929   0.031  0.00  0.00    -0.198 N 
ATOM      2  C   UNL     1      -5.512   0.545  -1.089  0.00  0.00    +0.134 A 
ATOM      3  C   UNL     1      -6.667  -0.149  -0.745  0.00  0.00    +0.105 A 
ATOM      4  C   UNL     1      -6.710  -0.186   0.726  0.00  0.00    +0.124 A 
ATOM      5  C   UNL     1      -5.507   0.523   1.169  0.00  0.00    +0.183 A 
ATOM      6  N   UNL     1      -5.269   0.653   2.457  0.00  0.00    -0.224 NA
ATOM      7  C   UNL     1      -6.126   0.139   3.348  0.00  0.00    +0.092 A 
ATOM      8  C   UNL     1      -5.880   0.274   4.727  0.00  0.00    +0.030 A 
ATOM      9  C   UNL     1      -6.755  -0.252   5.626  0.00  0.00    +0.002 A 
ATOM     10  C   UNL     1      -7.899  -0.927   5.202  0.00  0.00    +0.002 A 
ATOM     11  C   UNL     1      -8.171  -1.077   3.878  0.00  0.00    +0.030 A 
ATOM     12  C   UNL     1      -7.289  -0.547   2.918  0.00  0.00    +0.090 A 
ATOM     13  N   UNL     1      -7.546  -0.689   1.612  0.00  0.00    -0.241 NA
ENDROOT
BRANCH   3  14
ATOM     14  C   UNL     1      -7.619  -0.706  -1.637  0.00  0.00    +0.250 C 
ATOM     15  O   UNL     1      -8.566  -0.038  -2.012  0.00  0.00    -0.270 OA
ATOM     16  N   UNL     1      -7.476  -1.975  -2.068  0.00  0.00    -0.308 N 
ATOM     17  H   UNL     1      -6.722  -2.507  -1.770  0.00  0.00    +0.149 HD
BRANCH  16  18
ATOM     18  C   UNL     1      -8.460  -2.550  -2.989  0.00  0.00    +0.131 C 
BRANCH  18  19
ATOM     19  C   UNL     1      -8.072  -3.970  -3.315  0.00  0.00    -0.016 C 
ATOM     20  C   UNL     1      -8.926  -4.944  -3.118  0.00  0.00    +0.005 C 
ENDBRANCH  18  19
ENDBRANCH  16  18
ENDBRANCH   3  14
BRANCH   2  21
ATOM     21  N   UNL     1      -5.107   0.803  -2.374  0.00  0.00    -0.342 N 
ATOM     22  H   UNL     1      -4.284   1.292  -2.534  0.00  0.00    +0.144 HD
ATOM     23  H   UNL     1      -5.643   0.496  -3.122  0.00  0.00    +0.144 HD
ENDBRANCH   2  21
BRANCH   1  25
ATOM     24  C   UNL     1      -2.500   1.008   0.020  0.00  0.00    +0.141 C 
ATOM     25  N   UNL     1      -3.631   1.644   0.029  0.00  0.00    -0.171 NA
BRANCH  24  29
ATOM     26  C   UNL     1       1.152   3.172   0.008  0.00  0.00    +0.029 A 
ATOM     27  C   UNL     1       1.170   1.782   0.001  0.00  0.00    +0.024 A 
ATOM     28  C   UNL     1      -0.013   1.076   0.008  0.00  0.00    +0.011 A 
ATOM     29  C   UNL     1      -1.232   1.759   0.017  0.00  0.00    -0.005 A 
ATOM     30  C   UNL     1      -1.246   3.157   0.029  0.00  0.00    +0.011 A 
ATOM     31  C   UNL     1      -0.059   3.856   0.022  0.00  0.00    +0.024 A 
BRANCH  26  33
ATOM     32  C   UNL     1       3.629   3.166  -0.016  0.00  0.00    +0.129 C 
ATOM     33  N   UNL     1       2.352   3.883   0.000  0.00  0.00    -0.336 N 
ATOM     34  C   UNL     1       2.335   5.348   0.007  0.00  0.00    +0.129 C 
ENDBRANCH  26  33
ENDBRANCH  24  29
ENDBRANCH   1  25
TORSDOF 7
