REMARK  Name = ZINC55671259
REMARK  10 active torsions:
REMARK  status: ('A' for Active; 'I' for Inactive)
REMARK    1  A    between atoms: C_1  and  C_2
REMARK    2  A    between atoms: C_2  and  C_3
REMARK    3  A    between atoms: C_3  and  C_5
REMARK    4  A    between atoms: C_3  and  C_6
REMARK    5  A    between atoms: C_6  and  C_8
REMARK    6  A    between atoms: C_6  and  N_24
REMARK    7  A    between atoms: N_10  and  C_11
REMARK    8  A    between atoms: C_11  and  C_13
REMARK    9  A    between atoms: C_11  and  C_14
REMARK   10  A    between atoms: C_19  and  C_20
REMARK                            x       y       z     vdW  Elec       q    Type
REMARK                         _______ _______ _______ _____ _____    ______ ____
ROOT
ATOM      1  C   UNL     1       1.657   1.847  -1.011  0.00  0.00    +0.234 C 
ATOM      2  O   UNL     1       2.046   2.562  -1.910  0.00  0.00    -0.274 OA
ATOM      3  N   UNL     1       1.313   2.384   0.176  0.00  0.00    -0.307 N 
ATOM      4  H   UNL     1       1.067   1.807   0.917  0.00  0.00    +0.149 HD
ENDROOT
BRANCH   3   5
ATOM      5  C   UNL     1       1.310   3.839   0.349  0.00  0.00    +0.101 C 
ATOM      6  C   UNL     1       0.011   4.417  -0.214  0.00  0.00    +0.033 C 
BRANCH   5   7
ATOM      7  C   UNL     1       1.414   4.171   1.815  0.00  0.00    -0.016 A 
ATOM      8  C   UNL     1       0.290   4.567   2.516  0.00  0.00    +0.006 A 
ATOM      9  C   UNL     1       0.386   4.872   3.861  0.00  0.00    +0.000 A 
ATOM     10  C   UNL     1       1.605   4.779   4.506  0.00  0.00    +0.001 A 
ATOM     11  C   UNL     1       2.728   4.381   3.806  0.00  0.00    +0.013 A 
ATOM     12  C   UNL     1       2.632   4.073   2.462  0.00  0.00    +0.060 A 
BRANCH  12  13
ATOM     13  C   UNL     1       3.856   3.634   1.700  0.00  0.00    +0.418 C 
ATOM     14  F   UNL     1       4.972   3.679   2.543  0.00  0.00    -0.166 F 
ATOM     15  F   UNL     1       3.674   2.327   1.237  0.00  0.00    -0.166 F 
ATOM     16  F   UNL     1       4.060   4.490   0.612  0.00  0.00    -0.166 F 
ENDBRANCH  12  13
ENDBRANCH   5   7
ENDBRANCH   3   5
BRANCH   1  17
ATOM     17  C   UNL     1       1.558   0.358  -1.221  0.00  0.00    +0.163 C 
BRANCH  17  18
ATOM     18  N   UNL     1       2.392  -0.031  -2.361  0.00  0.00    -0.288 N 
ATOM     19  C   UNL     1       2.872  -1.288  -2.447  0.00  0.00    +0.298 C 
ATOM     20  O   UNL     1       2.612  -2.098  -1.579  0.00  0.00    -0.253 OA
ATOM     21  N   UNL     1       3.640  -1.645  -3.496  0.00  0.00    -0.313 N 
ATOM     22  H   UNL     1       2.599   0.616  -3.053  0.00  0.00    +0.151 HD
ATOM     23  H   UNL     1       3.847  -0.998  -4.188  0.00  0.00    +0.146 HD
ATOM     24  H   UNL     1       3.985  -2.549  -3.558  0.00  0.00    +0.146 HD
ENDBRANCH  17  18
BRANCH  17  25
ATOM     25  C   UNL     1       0.102  -0.022  -1.502  0.00  0.00    +0.015 C 
ATOM     26  C   UNL     1      -0.333   0.581  -2.839  0.00  0.00    +0.010 C 
BRANCH  25  28
ATOM     27  C   UNL     1       0.252  -2.137  -0.180  0.00  0.00    +0.004 C 
ATOM     28  C   UNL     1      -0.024  -1.545  -1.564  0.00  0.00    +0.002 C 
ENDBRANCH  25  28
ENDBRANCH  17  25
ENDBRANCH   1  17
TORSDOF 7
