REMARK  Name = ZINC07717760
REMARK  6 active torsions:
REMARK  status: ('A' for Active; 'I' for Inactive)
REMARK    1  A    between atoms: C_1  and  C_2
REMARK    2  A    between atoms: N_10  and  C_14
REMARK    3  A    between atoms: C_14  and  C_15
REMARK    4  A    between atoms: N_17  and  C_18
REMARK    5  A    between atoms: C_18  and  C_20
REMARK    6  A    between atoms: C_18  and  C_21
REMARK                            x       y       z     vdW  Elec       q    Type
REMARK                         _______ _______ _______ _____ _____    ______ ____
ROOT
ATOM      1  C   UNL     1      -0.759   2.033  -1.229  0.00  0.00    +0.007 C 
ATOM      2  C   UNL     1      -0.019   1.526   0.010  0.00  0.00    -0.014 C 
ATOM      3  C   UNL     1       1.417   2.056  -0.000  0.00  0.00    +0.006 C 
ATOM      4  C   UNL     1       2.152   1.559   1.246  0.00  0.00    +0.035 C 
ATOM      5  C   UNL     1       2.156   0.034   1.263  0.00  0.00    +0.113 C 
ATOM      6  C   UNL     1       0.732  -0.510   1.249  0.00  0.00    +0.035 C 
ATOM      7  C   UNL     1       0.002  -0.004   0.002  0.00  0.00    +0.006 C 
ATOM      8  C   UNL     1       2.903  -0.477   2.474  0.00  0.00    +0.247 C 
ATOM      9  O   UNL     1       2.629  -0.287   3.639  0.00  0.00    -0.273 OA
ATOM     10  N   UNL     1       3.939  -1.189   1.984  0.00  0.00    -0.215 N 
ATOM     11  C   UNL     1       3.945  -1.194   0.645  0.00  0.00    +0.310 C 
ATOM     12  O   UNL     1       4.780  -1.769  -0.025  0.00  0.00    -0.252 OA
ATOM     13  N   UNL     1       2.920  -0.492   0.125  0.00  0.00    -0.285 N 
ATOM     14  H   UNL     1       2.726  -0.359  -0.816  0.00  0.00    +0.151 HD
ENDROOT
BRANCH  10  15
ATOM     15  C   UNL     1       4.935  -1.872   2.814  0.00  0.00    +0.213 C 
BRANCH  15  16
ATOM     16  C   UNL     1       4.472  -3.277   3.100  0.00  0.00    +0.231 C 
ATOM     17  O   UNL     1       3.414  -3.670   2.655  0.00  0.00    -0.274 OA
ATOM     18  N   UNL     1       5.233  -4.098   3.851  0.00  0.00    -0.307 N 
ATOM     19  H   UNL     1       6.079  -3.784   4.208  0.00  0.00    +0.149 HD
BRANCH  18  20
ATOM     20  C   UNL     1       4.783  -5.464   4.129  0.00  0.00    +0.100 C 
ATOM     21  C   UNL     1       3.851  -5.457   5.343  0.00  0.00    +0.033 C 
BRANCH  20  22
ATOM     22  C   UNL     1       5.977  -6.337   4.417  0.00  0.00    -0.027 A 
ATOM     23  C   UNL     1       7.027  -5.846   5.170  0.00  0.00    +0.006 A 
ATOM     24  C   UNL     1       8.120  -6.648   5.439  0.00  0.00    +0.015 A 
ATOM     25  C   UNL     1       8.168  -7.939   4.945  0.00  0.00    +0.018 A 
ATOM     26  C   UNL     1       7.119  -8.429   4.187  0.00  0.00    +0.015 A 
ATOM     27  C   UNL     1       6.024  -7.628   3.924  0.00  0.00    +0.006 A 
ATOM     28 BR   UNL     1       9.666  -9.035   5.306  0.00  0.00    -0.050 Br
ENDBRANCH  20  22
ENDBRANCH  18  20
ENDBRANCH  15  16
ENDBRANCH  10  15
TORSDOF 4
