REMARK  Name = ZINC05298129
REMARK  5 active torsions:
REMARK  status: ('A' for Active; 'I' for Inactive)
REMARK    1  A    between atoms: C_1  and  C_2
REMARK    2  A    between atoms: C_5  and  N_8
REMARK    3  A    between atoms: C_11  and  C_16
REMARK    4  A    between atoms: C_16  and  N_17
REMARK    5  A    between atoms: C_25  and  C_27
REMARK                            x       y       z     vdW  Elec       q    Type
REMARK                         _______ _______ _______ _____ _____    ______ ____
ROOT
ATOM      1  N   UNL     1       2.376  -2.662  -0.035  0.00  0.00    -0.284 N 
ATOM      2  C   UNL     1       1.189  -1.980   0.149  0.00  0.00    +0.224 A 
ATOM      3  N   UNL     1       0.034  -2.642   0.148  0.00  0.00    -0.198 NA
ATOM      4  C   UNL     1      -1.103  -1.991   0.324  0.00  0.00    +0.154 A 
ATOM      5  N   UNL     1      -1.097  -0.682   0.508  0.00  0.00    -0.198 NA
ATOM      6  C   UNL     1       0.054  -0.013   0.506  0.00  0.00    +0.217 A 
ATOM      7  N   UNL     1       1.198  -0.664   0.329  0.00  0.00    -0.181 NA
ATOM      8  N   UNL     1       0.058   1.354   0.693  0.00  0.00    -0.327 N 
ATOM      9  H   UNL     1       2.377  -3.630  -0.086  0.00  0.00    +0.155 HD
ATOM     10  H   UNL     1       0.897   1.841   0.695  0.00  0.00    +0.145 HD
ATOM     11  H   UNL     1      -0.778   1.829   0.818  0.00  0.00    +0.145 HD
ENDROOT
BRANCH   1  16
ATOM     12  C   UNL     1       7.250   0.205  -0.492  0.00  0.00    +0.044 C 
ATOM     13  C   UNL     1       5.955  -0.557  -0.370  0.00  0.00    -0.050 A 
ATOM     14  C   UNL     1       5.942  -1.804   0.227  0.00  0.00    +0.005 A 
ATOM     15  C   UNL     1       4.757  -2.505   0.340  0.00  0.00    +0.023 A 
ATOM     16  C   UNL     1       3.578  -1.955  -0.147  0.00  0.00    +0.034 A 
ATOM     17  C   UNL     1       3.596  -0.705  -0.752  0.00  0.00    +0.023 A 
ATOM     18  C   UNL     1       4.783  -0.007  -0.856  0.00  0.00    +0.005 A 
ENDBRANCH   1  16
BRANCH   4  19
ATOM     19  C   UNL     1      -2.408  -2.744   0.322  0.00  0.00    +0.194 C 
BRANCH  19  20
ATOM     20  N   UNL     1      -2.726  -3.174   1.685  0.00  0.00    -0.217 N 
ATOM     21  C   UNL     1      -2.344  -4.354   2.217  0.00  0.00    +0.247 C 
ATOM     22  O   UNL     1      -1.697  -5.226   1.678  0.00  0.00    -0.273 OA
ATOM     23  C   UNL     1      -2.891  -4.358   3.626  0.00  0.00    +0.115 C 
ATOM     24  C   UNL     1      -1.757  -4.444   4.641  0.00  0.00    +0.035 C 
ATOM     25  C   UNL     1      -2.335  -4.413   6.058  0.00  0.00    +0.003 C 
ATOM     26  C   UNL     1      -3.297  -5.589   6.241  0.00  0.00    +0.000 C 
ATOM     27  C   UNL     1      -4.440  -5.478   5.230  0.00  0.00    +0.006 C 
ATOM     28  C   UNL     1      -3.869  -5.513   3.810  0.00  0.00    +0.018 C 
ATOM     29  C   UNL     1      -5.009  -5.381   2.798  0.00  0.00    +0.010 C 
ATOM     30  N   UNL     1      -3.588  -3.070   3.742  0.00  0.00    -0.285 N 
ATOM     31  C   UNL     1      -3.437  -2.448   2.557  0.00  0.00    +0.310 C 
ATOM     32  O   UNL     1      -3.894  -1.350   2.307  0.00  0.00    -0.252 OA
ATOM     33  H   UNL     1      -4.062  -2.735   4.518  0.00  0.00    +0.151 HD
ENDBRANCH  19  20
ENDBRANCH   4  19
TORSDOF 3
