REMARK  Name = ZINC19569549
REMARK  9 active torsions:
REMARK  status: ('A' for Active; 'I' for Inactive)
REMARK    1  A    between atoms: C_1  and  C_2
REMARK    2  A    between atoms: C_4  and  C_32
REMARK    3  A    between atoms: C_6  and  C_8
REMARK    4  A    between atoms: C_8  and  C_14
REMARK    5  A    between atoms: C_14  and  N_15
REMARK    6  A    between atoms: C_16  and  C_18
REMARK    7  A    between atoms: C_18  and  C_19
REMARK    8  A    between atoms: C_20  and  C_31
REMARK    9  A    between atoms: C_22  and  C_30
REMARK                            x       y       z     vdW  Elec       q    Type
REMARK                         _______ _______ _______ _____ _____    ______ ____
ROOT
ATOM      1  N   UNL     1      -0.391   1.520  -2.329  0.00  0.00    -0.314 N 
ATOM      2  C   UNL     1      -0.846   1.814  -1.095  0.00  0.00    +0.218 C 
ATOM      3  O   UNL     1      -1.821   2.522  -0.961  0.00  0.00    -0.275 OA
ATOM      4  H   UNL     1       0.494   0.877  -2.450  0.00  0.00    +0.149 HD
ENDROOT
BRANCH   1   5
ATOM      5  C   UNL     1      -1.073   2.057  -3.508  0.00  0.00    +0.115 C 
BRANCH   5   6
ATOM      6  C   UNL     1      -0.281   1.693  -4.766  0.00  0.00    +0.015 C 
ATOM      7  C   UNL     1       1.139   2.258  -4.659  0.00  0.00    +0.041 C 
ATOM      8  C   UNL     1       1.065   3.788  -4.598  0.00  0.00    +0.160 C 
ATOM      9  O   UNL     1       0.387   4.279  -5.756  0.00  0.00    -0.380 OA
ATOM     10  C   UNL     1      -0.960   3.819  -5.882  0.00  0.00    +0.160 C 
ATOM     11  C   UNL     1      -0.969   2.292  -5.996  0.00  0.00    +0.041 C 
BRANCH   6  17
ATOM     12  C   UNL     1      -2.577  -2.693  -5.499  0.00  0.00    +0.044 C 
ATOM     13  C   UNL     1      -1.316  -1.905  -5.255  0.00  0.00    -0.050 A 
ATOM     14  C   UNL     1      -0.101  -2.557  -5.159  0.00  0.00    +0.006 A 
ATOM     15  C   UNL     1       1.055  -1.834  -4.934  0.00  0.00    -0.050 A 
ATOM     16  C   UNL     1       0.997  -0.459  -4.807  0.00  0.00    +0.007 A 
ATOM     17  C   UNL     1      -0.218   0.193  -4.904  0.00  0.00    -0.039 A 
ATOM     18  C   UNL     1      -1.375  -0.530  -5.124  0.00  0.00    +0.007 A 
ATOM     19  C   UNL     1       2.380  -2.545  -4.828  0.00  0.00    +0.044 C 
ENDBRANCH   6  17
ENDBRANCH   5   6
ENDBRANCH   1   5
BRANCH   2  20
ATOM     20  C   UNL     1      -0.144   1.261   0.119  0.00  0.00    +0.138 C 
BRANCH  20  21
ATOM     21  C   UNL     1      -0.847   1.735   1.365  0.00  0.00    +0.049 A 
ATOM     22  C   UNL     1      -0.469   2.896   1.964  0.00  0.00    -0.026 A 
ATOM     23  C   UNL     1      -1.152   3.316   3.131  0.00  0.00    +0.063 A 
ATOM     24  C   UNL     1      -1.022   4.440   3.979  0.00  0.00    +0.071 A 
ATOM     25  N   UNL     1      -1.910   4.336   4.928  0.00  0.00    -0.176 NA
ATOM     26  N   UNL     1      -2.647   3.160   4.745  0.00  0.00    -0.246 N 
ATOM     27  H   UNL     1      -3.448   2.898   5.451  0.00  0.00    +0.192 HD
ATOM     28  C   UNL     1      -2.185   2.532   3.644  0.00  0.00    +0.228 A 
ATOM     29  O   UNL     1      -2.531   1.385   3.029  0.00  0.00    -0.404 OA
ATOM     30  C   UNL     1      -1.895   0.976   1.919  0.00  0.00    +0.342 A 
ATOM     31  O   UNL     1      -2.230  -0.066   1.383  0.00  0.00    -0.245 OA
ATOM     32  C   UNL     1      -0.030   5.562   3.815  0.00  0.00    +0.068 C 
ATOM     33  C   UNL     1       0.654   3.723   1.393  0.00  0.00    +0.045 C 
ENDBRANCH  20  21
ENDBRANCH   2  20
TORSDOF 5
