REMARK  Name = ZINC39693322
REMARK  12 active torsions:
REMARK  status: ('A' for Active; 'I' for Inactive)
REMARK    1  A    between atoms: C_1  and  C_2
REMARK    2  A    between atoms: C_2  and  C_3
REMARK    3  A    between atoms: C_3  and  C_4
REMARK    4  A    between atoms: C_4  and  C_5
REMARK    5  A    between atoms: C_5  and  C_7
REMARK    6  A    between atoms: C_5  and  C_8
REMARK    7  A    between atoms: C_12  and  C_21
REMARK    8  A    between atoms: N_23  and  C_24
REMARK    9  A    between atoms: C_24  and  C_25
REMARK   10  A    between atoms: C_25  and  N_26
REMARK   11  A    between atoms: C_27  and  C_29
REMARK   12  A    between atoms: C_29  and  C_30
REMARK                            x       y       z     vdW  Elec       q    Type
REMARK                         _______ _______ _______ _____ _____    ______ ____
ROOT
ATOM      1  C   UNL     1       0.692  -4.708   6.094  0.00  0.00    +0.218 C 
ATOM      2  O   UNL     1      -0.040  -4.072   5.366  0.00  0.00    -0.275 OA
ATOM      3  N   UNL     1       0.244  -5.137   7.291  0.00  0.00    -0.314 N 
ATOM      4  H   UNL     1       0.829  -5.646   7.873  0.00  0.00    +0.149 HD
ENDROOT
BRANCH   1   9
ATOM      5  C   UNL     1       1.879  -3.937   2.212  0.00  0.00    +0.218 C 
ATOM      6  O   UNL     1       1.608  -4.583   1.222  0.00  0.00    -0.275 OA
ATOM      7  N   UNL     1       2.328  -4.559   3.321  0.00  0.00    -0.300 N 
ATOM      8  C   UNL     1       2.599  -3.962   4.650  0.00  0.00    +0.121 C 
ATOM      9  C   UNL     1       2.101  -5.019   5.661  0.00  0.00    +0.100 C 
ATOM     10  C   UNL     1       2.147  -6.350   4.892  0.00  0.00    -0.004 C 
ATOM     11  C   UNL     1       2.656  -5.995   3.487  0.00  0.00    +0.115 C 
ATOM     12  C   UNL     1       0.749  -6.956   4.802  0.00  0.00    -0.010 C 
ATOM     13  C   UNL     1       0.829  -8.306   4.083  0.00  0.00    -0.082 C 
ATOM     14  N   UNL     1       1.727  -9.203   4.820  0.00  0.00    +0.379 N 
ATOM     15  C   UNL     1       3.090  -8.657   4.822  0.00  0.00    -0.082 C 
ATOM     16  C   UNL     1       3.106  -7.322   5.572  0.00  0.00    -0.010 C 
ATOM     17  H   UNL     1       1.402  -9.295   5.771  0.00  0.00    -0.086 HD
ATOM     18  H   UNL     1       1.730 -10.110   4.379  0.00  0.00    -0.086 HD
BRANCH   5  19
ATOM     19  C   UNL     1       1.713  -2.439   2.203  0.00  0.00    +0.072 C 
ATOM     20  C   UNL     1       0.506  -2.064   1.340  0.00  0.00    +0.017 C 
BRANCH  19  21
ATOM     21  C   UNL     1       2.973  -1.790   1.627  0.00  0.00    +0.012 C 
BRANCH  21  22
ATOM     22  C   UNL     1       2.857  -0.268   1.732  0.00  0.00    +0.000 C 
BRANCH  22  24
ATOM     23  C   UNL     1       4.001   1.902   1.262  0.00  0.00    +0.004 C 
ATOM     24  C   UNL     1       4.117   0.381   1.156  0.00  0.00    -0.003 C 
ENDBRANCH  22  24
ENDBRANCH  21  22
ENDBRANCH  19  21
ENDBRANCH   5  19
ENDBRANCH   1   9
BRANCH   3  25
ATOM     25  C   UNL     1      -1.126  -4.835   7.712  0.00  0.00    +0.123 C 
BRANCH  25  26
ATOM     26  C   UNL     1      -1.377  -5.432   9.098  0.00  0.00    +0.123 C 
BRANCH  26  27
ATOM     27  N   UNL     1      -2.748  -5.130   9.519  0.00  0.00    -0.314 N 
ATOM     28  C   UNL     1      -3.195  -5.559  10.715  0.00  0.00    +0.217 C 
ATOM     29  O   UNL     1      -2.463  -6.196  11.444  0.00  0.00    -0.275 OA
ATOM     30  H   UNL     1      -3.333  -4.621   8.936  0.00  0.00    +0.149 HD
BRANCH  28  31
ATOM     31  C   UNL     1      -4.605  -5.248  11.148  0.00  0.00    +0.131 C 
BRANCH  31  32
ATOM     32  C   UNL     1      -4.852  -5.837  12.514  0.00  0.00    -0.031 A 
ATOM     33  C   UNL     1      -5.427  -7.064  12.636  0.00  0.00    +0.005 A 
ATOM     34  C   UNL     1      -5.663  -7.625  13.889  0.00  0.00    +0.001 A 
ATOM     35  C   UNL     1      -5.327  -6.960  15.029  0.00  0.00    +0.008 A 
ATOM     36  C   UNL     1      -4.732  -5.690  14.943  0.00  0.00    -0.018 A 
ATOM     37  C   UNL     1      -4.485  -5.123  13.667  0.00  0.00    -0.014 A 
ATOM     38  C   UNL     1      -3.885  -3.855  13.581  0.00  0.00    +0.009 A 
ATOM     39  C   UNL     1      -3.543  -3.193  14.720  0.00  0.00    +0.001 A 
ATOM     40  C   UNL     1      -3.779  -3.754  15.974  0.00  0.00    +0.001 A 
ATOM     41  C   UNL     1      -4.371  -4.973  16.096  0.00  0.00    +0.008 A 
ENDBRANCH  31  32
ENDBRANCH  28  31
ENDBRANCH  26  27
ENDBRANCH  25  26
ENDBRANCH   3  25
TORSDOF 10
