REMARK  Name = ZINC17046543
REMARK  12 active torsions:
REMARK  status: ('A' for Active; 'I' for Inactive)
REMARK    1  A    between atoms: C_1  and  C_2
REMARK    2  A    between atoms: C_2  and  C_4
REMARK    3  A    between atoms: C_4  and  O_34
REMARK    4  A    between atoms: C_8  and  O_25
REMARK    5  A    between atoms: C_11  and  O_12
REMARK    6  A    between atoms: C_19  and  O_23
REMARK    7  A    between atoms: O_23  and  C_24
REMARK    8  A    between atoms: C_26  and  O_29
REMARK    9  A    between atoms: O_29  and  C_30
REMARK   10  A    between atoms: C_30  and  C_32
REMARK   11  A    between atoms: C_32  and  C_33
REMARK   12  A    between atoms: C_33  and  N_57
REMARK                            x       y       z     vdW  Elec       q    Type
REMARK                         _______ _______ _______ _____ _____    ______ ____
ROOT
ATOM      1  C   UNL     1       2.937  -3.482  -4.370  0.00  0.00    +0.131 C 
ATOM      2  C   UNL     1       1.681  -3.954  -5.100  0.00  0.00    +0.082 C 
ATOM      3  C   UNL     1       0.559  -2.964  -4.921  0.00  0.00    +0.008 A 
ATOM      4  C   UNL     1       0.562  -2.015  -3.930  0.00  0.00    +0.042 A 
ATOM      5  C   UNL     1      -0.516  -1.129  -3.802  0.00  0.00    +0.136 A 
ATOM      6  C   UNL     1      -1.598  -1.200  -4.677  0.00  0.00    +0.078 A 
ATOM      7  C   UNL     1      -1.600  -2.172  -5.697  0.00  0.00    +0.078 A 
ATOM      8  C   UNL     1      -0.520  -3.046  -5.811  0.00  0.00    +0.132 A 
ATOM      9  C   UNL     1      -2.736  -2.259  -6.630  0.00  0.00    +0.198 C 
ATOM     10  O   UNL     1      -2.739  -3.098  -7.511  0.00  0.00    -0.286 OA
ATOM     11  C   UNL     1      -3.872  -1.323  -6.496  0.00  0.00    +0.037 A 
ATOM     12  C   UNL     1      -4.949  -1.397  -7.373  0.00  0.00    +0.012 A 
ATOM     13  C   UNL     1      -6.012  -0.518  -7.243  0.00  0.00    +0.004 A 
ATOM     14  C   UNL     1      -6.013   0.438  -6.247  0.00  0.00    +0.046 A 
ATOM     15  C   UNL     1      -4.947   0.529  -5.358  0.00  0.00    +0.132 A 
ATOM     16  C   UNL     1      -3.868  -0.353  -5.477  0.00  0.00    +0.075 A 
ATOM     17  C   UNL     1      -2.731  -0.268  -4.543  0.00  0.00    +0.202 C 
ATOM     18  O   UNL     1      -2.729   0.571  -3.662  0.00  0.00    -0.286 OA
ATOM     19  C   UNL     1       1.697  -1.872  -2.948  0.00  0.00    +0.214 C 
ATOM     20  C   UNL     1       2.553  -3.136  -2.926  0.00  0.00    +0.092 C 
ENDROOT
BRANCH   1  22
ATOM     21  C   UNL     1       4.966  -4.676  -5.496  0.00  0.00    +0.089 C 
ATOM     22  C   UNL     1       3.968  -4.582  -4.371  0.00  0.00    +0.162 C 
ATOM     23  O   UNL     1       3.994  -5.386  -3.471  0.00  0.00    -0.295 OA
ENDBRANCH   1  22
BRANCH   8  24
ATOM     24  O   UNL     1      -0.515  -3.984  -6.790  0.00  0.00    -0.506 OA
ATOM     25  H   UNL     1      -0.109  -3.688  -7.616  0.00  0.00    +0.292 HD
ENDBRANCH   8  24
BRANCH  15  26
ATOM     26  O   UNL     1      -4.953   1.468  -4.380  0.00  0.00    -0.494 OA
ATOM     27  C   UNL     1      -6.089   2.334  -4.320  0.00  0.00    +0.277 C 
ENDBRANCH  15  26
BRANCH   5  28
ATOM     28  O   UNL     1      -0.506  -0.196  -2.818  0.00  0.00    -0.506 OA
ATOM     29  H   UNL     1      -0.049   0.622  -3.056  0.00  0.00    +0.292 HD
ENDBRANCH   5  28
BRANCH   1  30
ATOM     30  O   UNL     1       3.465  -2.325  -5.019  0.00  0.00    -0.381 OA
ATOM     31  H   UNL     1       3.712  -2.470  -5.943  0.00  0.00    +0.211 HD
ENDBRANCH   1  30
BRANCH  19  32
ATOM     32  O   UNL     1       1.154  -1.639  -1.621  0.00  0.00    -0.456 OA
BRANCH  32  33
ATOM     33  C   UNL     1       1.924  -0.956  -0.760  0.00  0.00    +0.306 C 
ATOM     34  O   UNL     1       3.050  -0.646  -1.070  0.00  0.00    -0.251 OA
BRANCH  33  35
ATOM     35  C   UNL     1       1.384  -0.575   0.595  0.00  0.00    +0.101 C 
BRANCH  35  36
ATOM     36  C   UNL     1       2.455   0.192   1.374  0.00  0.00    -0.075 C 
BRANCH  36  39
ATOM     37  H   UNL     1       1.608  -0.251   3.197  0.00  0.00    -0.090 HD
ATOM     38  H   UNL     1       2.618   1.070   3.228  0.00  0.00    -0.090 HD
ATOM     39  N   UNL     1       1.909   0.578   2.687  0.00  0.00    +0.378 N 
ATOM     40  H   UNL     1       1.103   1.198   2.548  0.00  0.00    -0.090 HD
ENDBRANCH  36  39
ENDBRANCH  35  36
ENDBRANCH  33  35
ENDBRANCH  32  33
ENDBRANCH  19  32
TORSDOF 10
