REMARK  Name = ZINC59850777
REMARK  7 active torsions:
REMARK  status: ('A' for Active; 'I' for Inactive)
REMARK    1  A    between atoms: C_1  and  C_2
REMARK    2  A    between atoms: C_2  and  C_3
REMARK    3  A    between atoms: C_2  and  C_4
REMARK    4  A    between atoms: C_4  and  C_6
REMARK    5  A    between atoms: C_4  and  O_19
REMARK    6  A    between atoms: C_6  and  N_8
REMARK    7  A    between atoms: O_19  and  C_20
REMARK                            x       y       z     vdW  Elec       q    Type
REMARK                         _______ _______ _______ _____ _____    ______ ____
ROOT
ATOM      1  C   UNL     1      -1.440  -2.030  -0.070  0.00  0.00    +0.280 C 
ATOM      2  O   UNL     1      -2.038  -2.742   0.714  0.00  0.00    -0.270 OA
ENDROOT
BRANCH   1   3
ATOM      3  N   UNL     1      -0.843  -2.564  -1.131  0.00  0.00    -0.144 NA
ATOM      4  C   UNL     1      -0.991  -3.859  -1.396  0.00  0.00    +0.199 A 
ATOM      5  N   UNL     1      -1.823  -4.708  -0.736  0.00  0.00    -0.326 N 
ATOM      6  H   UNL     1      -2.405  -4.472   0.003  0.00  0.00    +0.169 HD
ATOM      7  C   UNL     1      -1.696  -5.971  -1.304  0.00  0.00    +0.065 A 
ATOM      8  C   UNL     1      -2.295  -7.194  -1.036  0.00  0.00    +0.028 A 
ATOM      9  C   UNL     1      -1.961  -8.303  -1.788  0.00  0.00    +0.002 A 
ATOM     10  C   UNL     1      -1.031  -8.200  -2.808  0.00  0.00    +0.002 A 
ATOM     11  C   UNL     1      -0.429  -6.988  -3.083  0.00  0.00    +0.028 A 
ATOM     12  C   UNL     1      -0.758  -5.868  -2.334  0.00  0.00    +0.065 A 
ATOM     13  N   UNL     1      -0.339  -4.542  -2.373  0.00  0.00    -0.326 N 
ATOM     14  H   UNL     1       0.310  -4.170  -2.991  0.00  0.00    +0.169 HD
ENDBRANCH   1   3
BRANCH   1  15
ATOM     15  C   UNL     1      -1.375  -0.543   0.163  0.00  0.00    +0.263 C 
BRANCH  15  17
ATOM     16  C   UNL     1       0.140   1.380   0.664  0.00  0.00    +0.011 C 
ATOM     17  C   UNL     1       0.074  -0.131   0.429  0.00  0.00    +0.033 C 
ATOM     18  C   UNL     1       0.594  -0.863   1.667  0.00  0.00    +0.011 C 
ENDBRANCH  15  17
BRANCH  15  19
ATOM     19  O   UNL     1      -2.182  -0.201   1.291  0.00  0.00    -0.476 OA
BRANCH  19  20
ATOM     20  C   UNL     1      -2.830   0.994   1.248  0.00  0.00    +0.157 A 
ATOM     21  C   UNL     1      -2.716   1.805   0.130  0.00  0.00    +0.051 A 
ATOM     22  C   UNL     1      -3.374   3.019   0.087  0.00  0.00    +0.042 A 
ATOM     23  C   UNL     1      -4.147   3.428   1.160  0.00  0.00    +0.126 A 
ATOM     24  C   UNL     1      -4.263   2.620   2.279  0.00  0.00    +0.080 A 
ATOM     25  C   UNL     1      -3.610   1.401   2.322  0.00  0.00    +0.168 A 
ATOM     26  F   UNL     1      -3.727   0.610   3.411  0.00  0.00    -0.202 F 
ATOM     27  F   UNL     1      -4.789   4.615   1.117  0.00  0.00    -0.205 F 
ENDBRANCH  19  20
ENDBRANCH  15  19
ENDBRANCH   1  15
TORSDOF 5
