REMARK  Name = ZINC39602489
REMARK  7 active torsions:
REMARK  status: ('A' for Active; 'I' for Inactive)
REMARK    1  A    between atoms: C_1  and  C_2
REMARK    2  A    between atoms: C_12  and  O_13
REMARK    3  A    between atoms: O_13  and  C_14
REMARK    4  A    between atoms: C_14  and  C_15
REMARK    5  A    between atoms: C_19  and  C_28
REMARK    6  A    between atoms: N_30  and  C_31
REMARK    7  A    between atoms: C_34  and  C_36
REMARK                            x       y       z     vdW  Elec       q    Type
REMARK                         _______ _______ _______ _____ _____    ______ ____
ROOT
ATOM      1  C   UNL     1       0.217  -6.185   3.538  0.00  0.00    +0.253 C 
ATOM      2  O   UNL     1       0.251  -6.524   2.374  0.00  0.00    -0.272 OA
ATOM      3  N   UNL     1       0.195  -7.117   4.511  0.00  0.00    -0.297 N 
ATOM      4  C   UNL     1       0.146  -6.901   5.976  0.00  0.00    +0.121 C 
ATOM      5  C   UNL     1      -0.808  -7.996   6.502  0.00  0.00    +0.100 C 
ATOM      6  C   UNL     1      -0.759  -9.104   5.436  0.00  0.00    -0.004 C 
ATOM      7  C   UNL     1       0.206  -8.592   4.357  0.00  0.00    +0.115 C 
ATOM      8  C   UNL     1      -2.144  -9.322   4.835  0.00  0.00    -0.010 C 
ATOM      9  C   UNL     1      -2.081 -10.466   3.820  0.00  0.00    -0.082 C 
ATOM     10  N   UNL     1      -1.617 -11.689   4.486  0.00  0.00    +0.379 N 
ATOM     11  C   UNL     1      -0.247 -11.501   4.980  0.00  0.00    -0.082 C 
ATOM     12  C   UNL     1      -0.233 -10.400   6.044  0.00  0.00    -0.010 C 
ATOM     13  H   UNL     1      -2.227 -11.900   5.262  0.00  0.00    -0.086 HD
ATOM     14  H   UNL     1      -1.635 -12.455   3.830  0.00  0.00    -0.086 HD
ENDROOT
BRANCH   5  15
ATOM     15  C   UNL     1      -2.208  -7.454   6.634  0.00  0.00    +0.218 C 
ATOM     16  O   UNL     1      -2.589  -6.573   5.892  0.00  0.00    -0.275 OA
ATOM     17  N   UNL     1      -3.036  -7.947   7.576  0.00  0.00    -0.312 N 
ATOM     18  H   UNL     1      -2.731  -8.651   8.169  0.00  0.00    +0.149 HD
BRANCH  17  19
ATOM     19  C   UNL     1      -4.396  -7.420   7.704  0.00  0.00    +0.081 C 
ATOM     20  C   UNL     1      -5.530  -8.429   7.900  0.00  0.00    +0.033 C 
ATOM     21  C   UNL     1      -5.078  -7.548   9.068  0.00  0.00    +0.041 C 
BRANCH  21  22
ATOM     22  C   UNL     1      -5.998  -6.433   9.494  0.00  0.00    -0.042 A 
ATOM     23  C   UNL     1      -7.111  -6.126   8.734  0.00  0.00    +0.004 A 
ATOM     24  C   UNL     1      -7.954  -5.102   9.124  0.00  0.00    +0.000 A 
ATOM     25  C   UNL     1      -7.684  -4.386  10.276  0.00  0.00    +0.000 A 
ATOM     26  C   UNL     1      -6.572  -4.694  11.037  0.00  0.00    +0.000 A 
ATOM     27  C   UNL     1      -5.731  -5.720  10.648  0.00  0.00    +0.004 A 
ENDBRANCH  21  22
ENDBRANCH  17  19
ENDBRANCH   5  15
BRANCH   1  28
ATOM     28  C   UNL     1       0.200  -4.721   3.897  0.00  0.00    +0.324 C 
BRANCH  28  29
ATOM     29  O   UNL     1       0.229  -3.938   2.702  0.00  0.00    -0.479 OA
BRANCH  29  41
ATOM     30  C   UNL     1       0.251   1.995   0.841  0.00  0.00    +0.045 C 
ATOM     31  C   UNL     1       0.262   0.494   0.710  0.00  0.00    -0.033 A 
ATOM     32  C   UNL     1       0.299  -0.098  -0.510  0.00  0.00    +0.096 A 
ATOM     33  C   UNL     1       0.309  -1.507  -0.606  0.00  0.00    +0.338 A 
ATOM     34  O   UNL     1       0.343  -2.027  -1.707  0.00  0.00    -0.245 OA
ATOM     35  O   UNL     1       0.283  -2.287   0.485  0.00  0.00    -0.418 OA
ATOM     36  C   UNL     1       0.245  -1.761   1.728  0.00  0.00    +0.181 A 
ATOM     37  C   UNL     1       0.239  -0.366   1.897  0.00  0.00    +0.024 A 
ATOM     38  C   UNL     1       0.206   0.182   3.184  0.00  0.00    +0.012 A 
ATOM     39  C   UNL     1       0.185  -0.650   4.280  0.00  0.00    +0.004 A 
ATOM     40  C   UNL     1       0.196  -2.027   4.116  0.00  0.00    +0.049 A 
ATOM     41  C   UNL     1       0.218  -2.586   2.850  0.00  0.00    +0.164 A 
ENDBRANCH  29  41
ENDBRANCH  28  29
ENDBRANCH   1  28
TORSDOF 6
