REMARK  Name = ZINC15775455
REMARK  4 active torsions:
REMARK  status: ('A' for Active; 'I' for Inactive)
REMARK    1  A    between atoms: C_4  and  C_7
REMARK    2  A    between atoms: C_7  and  C_9
REMARK    3  A    between atoms: C_18  and  C_29
REMARK    4  A    between atoms: C_20  and  C_22
REMARK                            x       y       z     vdW  Elec       q    Type
REMARK                         _______ _______ _______ _____ _____    ______ ____
ROOT
ATOM      1  C   UNL     1       3.716  -2.186  -0.046  0.00  0.00    +0.094 C 
ATOM      2  C   UNL     1       3.819  -2.726  -1.484  0.00  0.00    +0.108 C 
ATOM      3  C   UNL     1       2.457  -3.055  -2.041  0.00  0.00    -0.004 C 
ATOM      4  C   UNL     1       2.331  -4.111  -2.848  0.00  0.00    -0.001 C 
ATOM      5  C   UNL     1       3.482  -4.949  -3.205  0.00  0.00    +0.015 C 
ATOM      6  C   UNL     1       4.606  -4.895  -2.452  0.00  0.00    +0.071 C 
ATOM      7  N   UNL     1       4.584  -3.988  -1.397  0.00  0.00    -0.317 N 
ATOM      8  C   UNL     1       5.153  -4.122  -0.057  0.00  0.00    +0.167 C 
ATOM      9  C   UNL     1       5.025  -2.723   0.598  0.00  0.00    +0.061 C 
ENDROOT
BRANCH   9  10
ATOM     10  C   UNL     1       4.881  -2.839   2.094  0.00  0.00    -0.041 A 
ATOM     11  C   UNL     1       3.912  -3.664   2.633  0.00  0.00    +0.005 A 
ATOM     12  C   UNL     1       3.780  -3.771   4.005  0.00  0.00    +0.020 A 
ATOM     13  C   UNL     1       4.617  -3.051   4.838  0.00  0.00    +0.041 A 
ATOM     14  C   UNL     1       5.587  -2.225   4.298  0.00  0.00    +0.020 A 
ATOM     15  C   UNL     1       5.722  -2.124   2.926  0.00  0.00    +0.005 A 
ATOM     16 CL   UNL     1       4.451  -3.183   6.561  0.00  0.00    -0.084 Cl
ENDBRANCH   9  10
BRANCH   8  17
ATOM     17  C   UNL     1       6.602  -4.527  -0.145  0.00  0.00    +0.232 C 
ATOM     18  O   UNL     1       7.214  -4.368  -1.181  0.00  0.00    -0.274 OA
ATOM     19  N   UNL     1       7.218  -5.064   0.926  0.00  0.00    -0.328 N 
ATOM     20  H   UNL     1       6.729  -5.191   1.754  0.00  0.00    +0.145 HD
ATOM     21  H   UNL     1       8.151  -5.325   0.869  0.00  0.00    +0.145 HD
ENDBRANCH   8  17
BRANCH   1  22
ATOM     22  C   UNL     1       3.691  -0.679  -0.038  0.00  0.00    +0.169 C 
ATOM     23  O   UNL     1       4.731  -0.056  -0.045  0.00  0.00    -0.292 OA
BRANCH  22  27
ATOM     24  C   UNL     1      -0.017   1.380   0.010  0.00  0.00    +0.000 A 
ATOM     25  C   UNL     1       1.168   2.095   0.002  0.00  0.00    +0.001 A 
ATOM     26  C   UNL     1       2.377   1.433  -0.013  0.00  0.00    +0.011 A 
ATOM     27  C   UNL     1       2.405   0.035  -0.021  0.00  0.00    +0.018 A 
ATOM     28  C   UNL     1       1.203  -0.681  -0.013  0.00  0.00    +0.011 A 
ATOM     29  C   UNL     1       0.002  -0.004   0.002  0.00  0.00    +0.001 A 
ENDBRANCH  22  27
ENDBRANCH   1  22
TORSDOF 4
