REMARK  Name = ZINC65736411
REMARK  5 active torsions:
REMARK  status: ('A' for Active; 'I' for Inactive)
REMARK    1  A    between atoms: C_3  and  C_6
REMARK    2  A    between atoms: C_9  and  C_14
REMARK    3  A    between atoms: N_16  and  C_17
REMARK    4  A    between atoms: C_17  and  C_18
REMARK    5  A    between atoms: C_17  and  C_25
REMARK                            x       y       z     vdW  Elec       q    Type
REMARK                         _______ _______ _______ _____ _____    ______ ____
ROOT
ATOM      1  C   UNL     1       7.674   0.291   0.184  0.00  0.00    +0.250 C 
ATOM      2  O   UNL     1       8.223   1.361   0.366  0.00  0.00    -0.270 OA
ATOM      3  N   UNL     1       8.412  -0.822  -0.001  0.00  0.00    -0.302 N 
ATOM      4  H   UNL     1       7.977  -1.664  -0.207  0.00  0.00    +0.150 HD
ENDROOT
BRANCH   1   8
ATOM      5  C   UNL     1       3.457   0.024   0.121  0.00  0.00    +0.085 A 
ATOM      6  C   UNL     1       4.055   1.233   0.454  0.00  0.00    +0.030 A 
ATOM      7  C   UNL     1       5.436   1.335   0.478  0.00  0.00    +0.020 A 
ATOM      8  C   UNL     1       6.209   0.211   0.166  0.00  0.00    +0.101 A 
ATOM      9  C   UNL     1       5.562  -1.004  -0.168  0.00  0.00    +0.261 A 
ATOM     10  O   UNL     1       6.224  -1.991  -0.441  0.00  0.00    -0.267 OA
ATOM     11  N   UNL     1       4.218  -1.073  -0.177  0.00  0.00    -0.319 N 
ATOM     12  H   UNL     1       3.783  -1.911  -0.403  0.00  0.00    +0.169 HD
BRANCH   5  15
ATOM     13  C   UNL     1      -0.173   0.390   0.228  0.00  0.00    +0.042 A 
ATOM     14  C   UNL     1       1.115   0.930   0.372  0.00  0.00    +0.051 A 
ATOM     15  C   UNL     1       1.996  -0.079   0.097  0.00  0.00    +0.151 A 
ATOM     16  O   UNL     1       1.284  -1.185  -0.202  0.00  0.00    -0.461 OA
ATOM     17  C   UNL     1      -0.025  -0.906  -0.123  0.00  0.00    +0.196 A 
ENDBRANCH   5  15
ENDBRANCH   1   8
BRANCH   3  18
ATOM     18  C   UNL     1       9.872  -0.760   0.109  0.00  0.00    +0.132 C 
BRANCH  18  19
ATOM     19  C   UNL     1      10.384  -2.038   0.721  0.00  0.00    -0.025 A 
ATOM     20  C   UNL     1       9.830  -3.250   0.353  0.00  0.00    +0.008 A 
ATOM     21  C   UNL     1      10.300  -4.423   0.913  0.00  0.00    +0.038 A 
ATOM     22  C   UNL     1      11.326  -4.384   1.842  0.00  0.00    +0.123 A 
ATOM     23  C   UNL     1      11.880  -3.170   2.209  0.00  0.00    +0.038 A 
ATOM     24  C   UNL     1      11.412  -1.998   1.644  0.00  0.00    +0.008 A 
ATOM     25  F   UNL     1      11.785  -5.530   2.390  0.00  0.00    -0.205 F 
ENDBRANCH  18  19
BRANCH  18  26
ATOM     26  C   UNL     1      10.481  -0.580  -1.283  0.00  0.00    +0.143 C 
ATOM     27  C   UNL     1       9.950   0.721  -1.923  0.00  0.00    +0.036 C 
ATOM     28  C   UNL     1       9.750   0.301  -3.405  0.00  0.00    +0.031 C 
ATOM     29  C   UNL     1       9.320  -1.178  -3.236  0.00  0.00    +0.160 C 
ATOM     30  O   UNL     1      10.091  -1.669  -2.128  0.00  0.00    -0.374 OA
ENDBRANCH  18  26
ENDBRANCH   3  18
TORSDOF 5
