REMARK  Name = ZINC13829362
REMARK  5 active torsions:
REMARK  status: ('A' for Active; 'I' for Inactive)
REMARK    1  A    between atoms: C_6  and  S_7
REMARK    2  A    between atoms: S_7  and  C_8
REMARK    3  A    between atoms: N_16  and  C_17
REMARK    4  A    between atoms: C_19  and  O_32
REMARK    5  A    between atoms: P_28  and  O_31
REMARK                            x       y       z     vdW  Elec       q    Type
REMARK                         _______ _______ _______ _____ _____    ______ ____
ROOT
ATOM      1  C   UNL     1      -1.002  -2.581  -0.262  0.00  0.00    +0.178 A 
ATOM      2  N   UNL     1       0.239  -3.000  -0.226  0.00  0.00    -0.216 NA
ATOM      3  C   UNL     1       0.258  -4.356  -0.234  0.00  0.00    +0.148 A 
ATOM      4  C   UNL     1       1.273  -5.327  -0.209  0.00  0.00    +0.147 A 
ATOM      5  N   UNL     1       0.923  -6.609  -0.228  0.00  0.00    -0.219 NA
ATOM      6  C   UNL     1      -0.346  -6.971  -0.269  0.00  0.00    +0.225 A 
ATOM      7  N   UNL     1      -1.329  -6.096  -0.294  0.00  0.00    -0.216 NA
ATOM      8  C   UNL     1      -1.076  -4.792  -0.278  0.00  0.00    +0.168 A 
ATOM      9  N   UNL     1      -1.851  -3.655  -0.288  0.00  0.00    -0.274 N 
ATOM     10  N   UNL     1       2.607  -4.956  -0.166  0.00  0.00    -0.341 N 
ATOM     11  H   UNL     1       2.850  -4.017  -0.153  0.00  0.00    +0.144 HD
ATOM     12  H   UNL     1       3.299  -5.636  -0.149  0.00  0.00    +0.144 HD
ENDROOT
BRANCH   9  13
ATOM     13  C   UNL     1      -3.314  -3.603  -0.325  0.00  0.00    +0.254 C 
ATOM     14  C   UNL     1      -3.821  -3.983  -1.742  0.00  0.00    +0.196 C 
ATOM     15  C   UNL     1      -4.177  -5.469  -1.548  0.00  0.00    +0.191 C 
ATOM     16  C   UNL     1      -4.749  -5.413  -0.107  0.00  0.00    +0.179 C 
ATOM     17  O   UNL     1      -3.863  -4.562   0.604  0.00  0.00    -0.346 OA
ATOM     18  C   UNL     1      -4.918  -6.821   0.423  0.00  0.00    +0.204 C 
ATOM     19  O   UNL     1      -5.959  -7.444  -0.368  0.00  0.00    -0.308 OA
ATOM     20  P   UNL     1      -5.903  -7.377  -1.989  0.00  0.00    +0.306 P 
ATOM     21  S   UNL     1      -4.842  -8.760  -2.647  0.00  0.00    +0.022 S 
ATOM     22  O   UNL     1      -5.241  -5.926  -2.392  0.00  0.00    -0.302 OA
BRANCH  20  23
ATOM     23  O   UNL     1      -7.390  -7.488  -2.595  0.00  0.00    -0.327 OA
ATOM     24  H   UNL     1      -7.849  -8.307  -2.364  0.00  0.00    +0.219 HD
ENDBRANCH  20  23
BRANCH  14  25
ATOM     25  O   UNL     1      -4.975  -3.219  -2.097  0.00  0.00    -0.385 OA
ATOM     26  H   UNL     1      -4.820  -2.265  -2.131  0.00  0.00    +0.210 HD
ENDBRANCH  14  25
ENDBRANCH   9  13
BRANCH   1  27
ATOM     27  S   UNL     1      -1.503  -0.892  -0.267  0.00  0.00    -0.052 S 
BRANCH  27  33
ATOM     28  C   UNL     1       0.590   0.242  -1.616  0.00  0.00    +0.016 A 
ATOM     29  C   UNL     1       1.777   0.943  -1.699  0.00  0.00    +0.021 A 
ATOM     30  C   UNL     1       2.390   1.406  -0.548  0.00  0.00    +0.041 A 
ATOM     31  C   UNL     1       1.817   1.167   0.689  0.00  0.00    +0.021 A 
ATOM     32  C   UNL     1       0.630   0.467   0.778  0.00  0.00    +0.016 A 
ATOM     33  C   UNL     1       0.011   0.002  -0.376  0.00  0.00    +0.016 A 
ATOM     34 CL   UNL     1       3.882   2.286  -0.655  0.00  0.00    -0.084 Cl
ENDBRANCH  27  33
ENDBRANCH   1  27
TORSDOF 5
