REMARK  Name = ZINC20113816
REMARK  6 active torsions:
REMARK  status: ('A' for Active; 'I' for Inactive)
REMARK    1  A    between atoms: C_1  and  O_2
REMARK    2  A    between atoms: O_2  and  C_3
REMARK    3  A    between atoms: C_8  and  O_9
REMARK    4  A    between atoms: O_9  and  C_10
REMARK    5  A    between atoms: C_11  and  C_16
REMARK    6  A    between atoms: N_22  and  C_25
REMARK                            x       y       z     vdW  Elec       q    Type
REMARK                         _______ _______ _______ _____ _____    ______ ____
ROOT
ATOM      1  C   UNL     1       1.681  -3.722  -4.779  0.00  0.00    +0.072 A 
ATOM      2  C   UNL     1       0.396  -3.538  -5.320  0.00  0.00    +0.260 A 
ATOM      3  N   UNL     1      -0.334  -4.612  -5.680  0.00  0.00    -0.274 N 
ATOM      4  H   UNL     1      -1.221  -4.489  -6.053  0.00  0.00    +0.173 HD
ATOM      5  C   UNL     1       0.158  -5.855  -5.526  0.00  0.00    +0.337 A 
ATOM      6  O   UNL     1      -0.515  -6.812  -5.857  0.00  0.00    -0.246 OA
ATOM      7  N   UNL     1       1.385  -6.055  -5.011  0.00  0.00    -0.227 N 
ATOM      8  C   UNL     1       2.164  -4.988  -4.635  0.00  0.00    +0.267 A 
ATOM      9  O   UNL     1       3.397  -5.192  -4.124  0.00  0.00    -0.267 OA
ATOM     10  O   UNL     1      -0.056  -2.415  -5.462  0.00  0.00    -0.267 OA
ENDROOT
BRANCH   1  17
ATOM     11  C   UNL     1       0.606  -0.608  -1.056  0.00  0.00    +0.162 A 
ATOM     12  C   UNL     1       1.173   0.156  -2.062  0.00  0.00    +0.053 A 
ATOM     13  C   UNL     1       1.790  -0.455  -3.142  0.00  0.00    -0.044 A 
ATOM     14  C   UNL     1       1.845  -1.831  -3.218  0.00  0.00    -0.050 A 
ATOM     15  C   UNL     1       1.276  -2.601  -2.214  0.00  0.00    +0.052 A 
ATOM     16  C   UNL     1       0.663  -1.996  -1.131  0.00  0.00    +0.162 A 
ATOM     17  C   UNL     1       2.514  -2.535  -4.370  0.00  0.00    +0.001 C 
ATOM     18  N   UNL     1       2.659  -1.630  -5.513  0.00  0.00    +0.387 N 
ATOM     19  C   UNL     1       3.353  -0.409  -5.073  0.00  0.00    -0.077 C 
ATOM     20  C   UNL     1       2.391   0.415  -4.216  0.00  0.00    +0.016 C 
ATOM     21  H   UNL     1       3.199  -2.083  -6.236  0.00  0.00    -0.085 HD
ATOM     22  H   UNL     1       1.747  -1.389  -5.871  0.00  0.00    -0.085 HD
BRANCH  11  24
ATOM     23  C   UNL     1      -0.017   1.425   0.010  0.00  0.00    +0.277 C 
ATOM     24  O   UNL     1       0.002  -0.004   0.002  0.00  0.00    -0.491 OA
ENDBRANCH  11  24
BRANCH  16  25
ATOM     25  O   UNL     1       0.113  -2.755  -0.146  0.00  0.00    -0.491 OA
ATOM     26  C   UNL     1       0.209  -4.174  -0.290  0.00  0.00    +0.277 C 
ENDBRANCH  16  25
ENDBRANCH   1  17
BRANCH   7  27
ATOM     27  C   UNL     1       1.874  -7.361  -4.862  0.00  0.00    +0.073 A 
ATOM     28  C   UNL     1       2.592  -7.956  -5.890  0.00  0.00    +0.028 A 
ATOM     29  C   UNL     1       3.073  -9.242  -5.740  0.00  0.00    +0.002 A 
ATOM     30  C   UNL     1       2.839  -9.937  -4.567  0.00  0.00    +0.002 A 
ATOM     31  C   UNL     1       2.124  -9.348  -3.541  0.00  0.00    +0.022 A 
ATOM     32  C   UNL     1       1.645  -8.059  -3.683  0.00  0.00    +0.065 A 
ATOM     33 CL   UNL     1       0.752  -7.317  -2.392  0.00  0.00    -0.081 Cl
ENDBRANCH   7  27
TORSDOF 4
