REMARK  Name = ZINC13325418
REMARK  10 active torsions:
REMARK  status: ('A' for Active; 'I' for Inactive)
REMARK    1  A    between atoms: C_1  and  C_2
REMARK    2  A    between atoms: C_9  and  N_14
REMARK    3  A    between atoms: C_10  and  C_11
REMARK    4  A    between atoms: C_15  and  C_17
REMARK    5  A    between atoms: C_17  and  S_18
REMARK    6  A    between atoms: S_18  and  C_19
REMARK    7  A    between atoms: C_22  and  C_25
REMARK    8  A    between atoms: N_23  and  C_24
REMARK    9  A    between atoms: C_25  and  C_26
REMARK   10  A    between atoms: N_30  and  C_31
REMARK                            x       y       z     vdW  Elec       q    Type
REMARK                         _______ _______ _______ _____ _____    ______ ____
ROOT
ATOM      1  N   UNL     1       2.741   7.181   8.245  0.00  0.00    -0.279 N 
ATOM      2  C   UNL     1       1.942   7.314   7.167  0.00  0.00    +0.228 C 
ATOM      3  O   UNL     1       0.992   8.066   7.206  0.00  0.00    -0.275 OA
ATOM      4  H   UNL     1       3.501   6.580   8.214  0.00  0.00    +0.155 HD
ENDROOT
BRANCH   1  12
ATOM      5  C   UNL     1       0.847  11.364  14.578  0.00  0.00    +0.008 C 
ATOM      6  C   UNL     1       1.329  10.213  13.693  0.00  0.00    -0.009 C 
ATOM      7  C   UNL     1       2.860  10.158  13.705  0.00  0.00    +0.008 C 
ATOM      8  C   UNL     1       3.339   8.871  13.032  0.00  0.00    +0.037 C 
ATOM      9  C   UNL     1       2.683   8.761  11.661  0.00  0.00    -0.023 A 
ATOM     10  C   UNL     1       1.580   9.478  11.359  0.00  0.00    -0.004 A 
ATOM     11  S   UNL     1       1.195   9.034   9.689  0.00  0.00    -0.077 S 
ATOM     12  C   UNL     1       2.475   7.904   9.398  0.00  0.00    +0.084 A 
ATOM     13  C   UNL     1       3.174   7.902  10.597  0.00  0.00    +0.068 A 
ATOM     14  C   UNL     1       0.855  10.439  12.250  0.00  0.00    +0.046 C 
BRANCH  13  15
ATOM     15  C   UNL     1       4.364   7.066  10.782  0.00  0.00    +0.244 C 
ATOM     16  O   UNL     1       5.465   7.504  10.505  0.00  0.00    -0.270 OA
ATOM     17  N   UNL     1       4.238   5.812  11.258  0.00  0.00    -0.325 N 
ATOM     18  H   UNL     1       3.361   5.462  11.479  0.00  0.00    +0.145 HD
ATOM     19  H   UNL     1       5.026   5.258  11.381  0.00  0.00    +0.145 HD
ENDBRANCH  13  15
ENDBRANCH   1  12
BRANCH   2  20
ATOM     20  C   UNL     1       2.231   6.528   5.914  0.00  0.00    +0.173 C 
BRANCH  20  21
ATOM     21  S   UNL     1       0.990   6.922   4.656  0.00  0.00    -0.077 S 
BRANCH  21  22
ATOM     22  C   UNL     1       1.554   5.895   3.339  0.00  0.00    +0.192 A 
ATOM     23  N   UNL     1       2.597   5.098   3.362  0.00  0.00    -0.122 NA
ATOM     24  N   UNL     1       2.714   4.500   2.231  0.00  0.00    -0.133 NA
ATOM     25  C   UNL     1       1.761   4.875   1.425  0.00  0.00    +0.140 A 
ATOM     26  N   UNL     1       0.991   5.781   2.101  0.00  0.00    -0.309 N 
ATOM     27  C   UNL     1      -0.195   6.482   1.600  0.00  0.00    +0.152 C 
BRANCH  25  28
ATOM     28  C   UNL     1       1.550   4.404   0.009  0.00  0.00    +0.129 C 
BRANCH  28  29
ATOM     29  C   UNL     1       0.661   3.187   0.012  0.00  0.00    +0.026 A 
ATOM     30  C   UNL     1      -0.687   3.194   0.025  0.00  0.00    +0.023 A 
ATOM     31  C   UNL     1      -1.116   1.851   0.017  0.00  0.00    +0.019 A 
ATOM     32  C   UNL     1      -0.013   1.076   0.008  0.00  0.00    +0.085 A 
ATOM     33  N   UNL     1       1.081   1.890   0.002  0.00  0.00    -0.353 N 
ATOM     34  C   UNL     1       2.477   1.445  -0.013  0.00  0.00    +0.148 C 
ENDBRANCH  28  29
ENDBRANCH  25  28
ENDBRANCH  21  22
ENDBRANCH  20  21
ENDBRANCH   2  20
TORSDOF 7
