REMARK  Name = ZINC12712566
REMARK  12 active torsions:
REMARK  status: ('A' for Active; 'I' for Inactive)
REMARK    1  A    between atoms: C_1  and  C_2
REMARK    2  A    between atoms: C_5  and  C_8
REMARK    3  A    between atoms: C_8  and  C_10
REMARK    4  A    between atoms: C_8  and  N_18
REMARK    5  A    between atoms: N_12  and  C_13
REMARK    6  A    between atoms: C_13  and  C_14
REMARK    7  A    between atoms: C_14  and  C_15
REMARK    8  A    between atoms: C_15  and  C_16
REMARK    9  A    between atoms: C_15  and  C_17
REMARK   10  A    between atoms: N_18  and  C_19
REMARK   11  A    between atoms: C_28  and  C_30
REMARK   12  A    between atoms: C_30  and  N_31
REMARK                            x       y       z     vdW  Elec       q    Type
REMARK                         _______ _______ _______ _____ _____    ______ ____
ROOT
ATOM      1  N   UNL     1      -5.171   3.272  -1.842  0.00  0.00    -0.254 N 
ATOM      2  C   UNL     1      -4.162   4.095  -1.492  0.00  0.00    +0.242 C 
ATOM      3  O   UNL     1      -4.015   5.152  -2.067  0.00  0.00    -0.273 OA
ENDROOT
BRANCH   1   4
ATOM      4  C   UNL     1      -5.407   2.103  -1.108  0.00  0.00    +0.041 A 
ATOM      5  C   UNL     1      -5.153   0.862  -1.677  0.00  0.00    +0.027 A 
ATOM      6  C   UNL     1      -5.386  -0.292  -0.954  0.00  0.00    +0.051 A 
ATOM      7  C   UNL     1      -5.875  -0.216   0.340  0.00  0.00    +0.166 A 
ATOM      8  C   UNL     1      -6.131   1.028   0.914  0.00  0.00    +0.168 A 
ATOM      9  C   UNL     1      -5.891   2.184   0.191  0.00  0.00    +0.073 A 
ATOM     10  O   UNL     1      -6.600   0.835   2.181  0.00  0.00    -0.453 OA
ATOM     11  C   UNL     1      -6.242  -0.518   2.522  0.00  0.00    +0.466 C 
ATOM     12  O   UNL     1      -6.184  -1.187   1.249  0.00  0.00    -0.453 OA
ENDBRANCH   1   4
BRANCH   1  13
ATOM     13  C   UNL     1      -6.019   3.600  -2.990  0.00  0.00    +0.197 C 
BRANCH  13  18
ATOM     14  C   UNL     1      -9.666  -0.766  -4.002  0.00  0.00    +0.044 C 
ATOM     15  C   UNL     1      -8.715   0.372  -3.738  0.00  0.00    -0.050 A 
ATOM     16  C   UNL     1      -7.806   0.752  -4.708  0.00  0.00    +0.004 A 
ATOM     17  C   UNL     1      -6.934   1.797  -4.466  0.00  0.00    +0.006 A 
ATOM     18  C   UNL     1      -6.970   2.462  -3.254  0.00  0.00    -0.018 A 
ATOM     19  C   UNL     1      -7.875   2.078  -2.282  0.00  0.00    +0.006 A 
ATOM     20  C   UNL     1      -8.751   1.036  -2.526  0.00  0.00    +0.004 A 
ENDBRANCH  13  18
BRANCH  13  21
ATOM     21  C   UNL     1      -6.804   4.852  -2.693  0.00  0.00    +0.238 C 
ATOM     22  O   UNL     1      -6.668   5.415  -1.628  0.00  0.00    -0.273 OA
ATOM     23  N   UNL     1      -7.657   5.346  -3.613  0.00  0.00    -0.313 N 
ATOM     24  H   UNL     1      -7.765   4.897  -4.465  0.00  0.00    +0.149 HD
BRANCH  23  25
ATOM     25  C   UNL     1      -8.420   6.563  -3.324  0.00  0.00    +0.104 C 
BRANCH  25  26
ATOM     26  C   UNL     1      -9.306   6.906  -4.523  0.00  0.00    +0.022 C 
BRANCH  26  27
ATOM     27  C   UNL     1     -10.102   8.177  -4.222  0.00  0.00    -0.016 C 
ATOM     28  C   UNL     1      -9.142   9.359  -4.077  0.00  0.00    +0.007 C 
ATOM     29  C   UNL     1     -11.079   8.451  -5.368  0.00  0.00    +0.007 C 
ENDBRANCH  26  27
ENDBRANCH  25  26
ENDBRANCH  23  25
ENDBRANCH  13  21
ENDBRANCH   1  13
BRANCH   2  30
ATOM     30  C   UNL     1      -3.219   3.701  -0.385  0.00  0.00    +0.242 C 
BRANCH  30  31
ATOM     31  N   UNL     1      -2.141   4.689  -0.288  0.00  0.00    -0.235 N 
ATOM     32  C   UNL     1      -0.937   4.661  -0.951  0.00  0.00    +0.090 A 
ATOM     33  C   UNL     1      -0.358   3.788  -1.865  0.00  0.00    +0.029 A 
ATOM     34  C   UNL     1       0.893   4.045  -2.352  0.00  0.00    +0.002 A 
ATOM     35  C   UNL     1       1.588   5.179  -1.950  0.00  0.00    +0.002 A 
ATOM     36  C   UNL     1       1.039   6.054  -1.059  0.00  0.00    +0.032 A 
ATOM     37  C   UNL     1      -0.239   5.810  -0.541  0.00  0.00    +0.113 A 
ATOM     38  N   UNL     1      -1.023   6.475   0.332  0.00  0.00    -0.129 NA
ATOM     39  N   UNL     1      -2.134   5.849   0.501  0.00  0.00    -0.064 NA
ENDBRANCH  30  31
ENDBRANCH   2  30
TORSDOF 9
