REMARK  Name = ZINC08844873
REMARK  6 active torsions:
REMARK  status: ('A' for Active; 'I' for Inactive)
REMARK    1  A    between atoms: C_4  and  C_7
REMARK    2  A    between atoms: C_7  and  C_9
REMARK    3  A    between atoms: C_10  and  N_32
REMARK    4  A    between atoms: C_11  and  C_18
REMARK    5  A    between atoms: C_20  and  C_23
REMARK    6  A    between atoms: C_27  and  N_29
REMARK                            x       y       z     vdW  Elec       q    Type
REMARK                         _______ _______ _______ _____ _____    ______ ____
ROOT
ATOM      1  C   UNL     1      -4.407   9.010   0.468  0.00  0.00    +0.116 A 
ATOM      2  C   UNL     1      -3.716   7.819   0.407  0.00  0.00    +0.064 A 
ATOM      3  C   UNL     1      -2.291   8.163   0.273  0.00  0.00    +0.054 A 
ATOM      4  C   UNL     1      -2.246   9.640   0.270  0.00  0.00    +0.058 A 
ATOM      5  N   UNL     1      -3.524  10.091   0.382  0.00  0.00    -0.311 N 
ATOM      6  C   UNL     1      -3.774  11.418   0.402  0.00  0.00    +0.092 A 
ATOM      7  C   UNL     1      -2.750  12.337   0.304  0.00  0.00    +0.018 A 
ATOM      8  C   UNL     1      -1.439  11.900   0.183  0.00  0.00    +0.003 A 
ATOM      9  C   UNL     1      -1.187  10.527   0.163  0.00  0.00    +0.027 A 
ENDROOT
BRANCH   3  10
ATOM     10  C   UNL     1      -1.209   7.279   0.175  0.00  0.00    +0.113 A 
ATOM     11  N   UNL     1      -1.214   5.938   0.180  0.00  0.00    -0.239 NA
ATOM     12  C   UNL     1      -0.100   5.279   0.078  0.00  0.00    +0.079 A 
ATOM     13  C   UNL     1       1.113   6.014  -0.032  0.00  0.00    +0.075 A 
ATOM     14  S   UNL     1       0.530   7.649   0.011  0.00  0.00    -0.075 S 
BRANCH  12  15
ATOM     15  C   UNL     1      -0.091   3.801   0.082  0.00  0.00    +0.003 A 
ATOM     16  C   UNL     1      -1.296   3.092   0.091  0.00  0.00    +0.010 A 
ATOM     17  C   UNL     1      -1.281   1.713   0.090  0.00  0.00    +0.003 A 
ATOM     18  C   UNL     1      -0.076   1.031   0.091  0.00  0.00    +0.033 A 
ATOM     19  C   UNL     1       1.121   1.726   0.081  0.00  0.00    +0.127 A 
ATOM     20  C   UNL     1       1.121   3.105   0.077  0.00  0.00    +0.042 A 
BRANCH  19  21
ATOM     21  N   UNL     1       2.404   0.988   0.075  0.00  0.00    +0.056 N 
ATOM     22  O   UNL     1       2.406  -0.329   0.080  0.00  0.00    -0.126 OA
ATOM     23  O   UNL     1       3.543   1.648   0.066  0.00  0.00    -0.126 OA
ENDBRANCH  19  21
ENDBRANCH  12  15
ENDBRANCH   3  10
BRANCH   2  24
ATOM     24  N   UNL     1      -4.257   6.548   0.462  0.00  0.00    -0.356 N 
ATOM     25  H   UNL     1      -3.687   5.773   0.335  0.00  0.00    +0.142 HD
ATOM     26  H   UNL     1      -5.205   6.431   0.627  0.00  0.00    +0.142 HD
ENDBRANCH   2  24
BRANCH   1  27
ATOM     27  C   UNL     1      -5.859   9.127   0.603  0.00  0.00    +0.211 C 
ATOM     28  O   UNL     1      -6.567   9.092  -0.387  0.00  0.00    -0.285 OA
BRANCH  27  32
ATOM     29  C   UNL     1      -7.606   9.583   4.448  0.00  0.00    +0.000 A 
ATOM     30  C   UNL     1      -8.417   9.432   3.337  0.00  0.00    +0.001 A 
ATOM     31  C   UNL     1      -7.856   9.284   2.085  0.00  0.00    +0.012 A 
ATOM     32  C   UNL     1      -6.467   9.286   1.941  0.00  0.00    +0.024 A 
ATOM     33  C   UNL     1      -5.655   9.433   3.068  0.00  0.00    +0.012 A 
ATOM     34  C   UNL     1      -6.229   9.586   4.312  0.00  0.00    +0.001 A 
ENDBRANCH  27  32
ENDBRANCH   1  27
TORSDOF 6
