REMARK  Name = ZINC13568755
REMARK  4 active torsions:
REMARK  status: ('A' for Active; 'I' for Inactive)
REMARK    1  A    between atoms: C_11  and  C_13
REMARK    2  A    between atoms: C_13  and  S_14
REMARK    3  A    between atoms: S_14  and  C_15
REMARK    4  A    between atoms: C_16  and  C_26
REMARK                            x       y       z     vdW  Elec       q    Type
REMARK                         _______ _______ _______ _____ _____    ______ ____
ROOT
ATOM      1  S   UNL     1       6.447  -5.904  -0.090  0.00  0.00    -0.107 S 
ENDROOT
BRANCH   1   2
ATOM      2  C   UNL     1       6.723  -7.644  -0.102  0.00  0.00    +0.066 A 
ATOM      3  C   UNL     1       7.945  -8.306  -0.111  0.00  0.00    +0.098 A 
ATOM      4  C   UNL     1       7.917  -9.761  -0.119  0.00  0.00    +0.107 A 
ATOM      5  C   UNL     1       6.618 -10.287  -0.117  0.00  0.00    +0.104 A 
ATOM      6  S   UNL     1       5.569  -8.862  -0.096  0.00  0.00    -0.074 S 
ATOM      7  C   UNL     1       6.402 -11.663  -0.123  0.00  0.00    +0.269 A 
ATOM      8  N   UNL     1       7.480 -12.481  -0.133  0.00  0.00    -0.273 N 
ATOM      9  C   UNL     1       8.731 -11.942  -0.135  0.00  0.00    +0.349 A 
ATOM     10  O   UNL     1       9.795 -12.773  -0.145  0.00  0.00    -0.245 OA
ATOM     11  N   UNL     1       8.943 -10.654  -0.130  0.00  0.00    -0.191 NA
ATOM     12  O   UNL     1       5.269 -12.119  -0.120  0.00  0.00    -0.266 OA
ATOM     13  H   UNL     1       7.363 -13.444  -0.137  0.00  0.00    +0.174 HD
BRANCH   3  14
ATOM     14  C   UNL     1       9.182  -7.585  -0.113  0.00  0.00    +0.103 C 
ATOM     15  N   UNL     1      10.164  -7.013  -0.115  0.00  0.00    -0.191 NA
ENDBRANCH   3  14
ENDBRANCH   1   2
BRANCH   1  16
ATOM     16  C   UNL     1       4.639  -5.747  -0.072  0.00  0.00    +0.171 C 
BRANCH  16  27
ATOM     17  C   UNL     1      -0.017   1.366   0.010  0.00  0.00    +0.002 A 
ATOM     18  C   UNL     1       1.157   2.107   0.002  0.00  0.00    +0.001 A 
ATOM     19  C   UNL     1       2.373   1.450  -0.013  0.00  0.00    +0.017 A 
ATOM     20  C   UNL     1       2.401   0.077  -0.020  0.00  0.00    +0.041 A 
ATOM     21  C   UNL     1       1.227  -0.710  -0.013  0.00  0.00    +0.080 A 
ATOM     22  C   UNL     1       0.002  -0.004   0.002  0.00  0.00    +0.029 A 
ATOM     23  N   UNL     1       1.420  -2.047  -0.022  0.00  0.00    -0.225 NA
ATOM     24  C   UNL     1       2.616  -2.587  -0.037  0.00  0.00    +0.165 A 
ATOM     25  S   UNL     1       3.682  -1.153  -0.039  0.00  0.00    -0.052 S 
ATOM     26  N   UNL     1       2.963  -3.929  -0.047  0.00  0.00    -0.264 N 
ATOM     27  C   UNL     1       4.262  -4.288  -0.061  0.00  0.00    +0.229 C 
ATOM     28  O   UNL     1       5.126  -3.438  -0.065  0.00  0.00    -0.275 OA
ATOM     29  H   UNL     1       2.271  -4.609  -0.043  0.00  0.00    +0.157 HD
ENDBRANCH  16  27
ENDBRANCH   1  16
TORSDOF 4
