REMARK  Name = ZINC64076303
REMARK  11 active torsions:
REMARK  status: ('A' for Active; 'I' for Inactive)
REMARK    1  A    between atoms: C_1  and  C_2
REMARK    2  A    between atoms: C_2  and  O_3
REMARK    3  A    between atoms: O_3  and  C_4
REMARK    4  A    between atoms: C_4  and  C_6
REMARK    5  A    between atoms: C_6  and  C_8
REMARK    6  A    between atoms: C_6  and  N_18
REMARK    7  A    between atoms: C_8  and  C_9
REMARK    8  A    between atoms: C_19  and  C_21
REMARK    9  A    between atoms: C_21  and  C_23
REMARK   10  A    between atoms: C_21  and  N_30
REMARK   11  A    between atoms: C_23  and  C_24
REMARK                            x       y       z     vdW  Elec       q    Type
REMARK                         _______ _______ _______ _____ _____    ______ ____
ROOT
ATOM      1  N   UNL     1       1.497  -3.844   2.426  0.00  0.00    -0.301 N 
ATOM      2  C   UNL     1       0.435  -4.528   2.895  0.00  0.00    +0.235 C 
ATOM      3  O   UNL     1      -0.504  -3.933   3.379  0.00  0.00    -0.274 OA
ATOM      4  H   UNL     1       2.249  -4.319   2.039  0.00  0.00    +0.150 HD
ENDROOT
BRANCH   1   5
ATOM      5  C   UNL     1       1.516  -2.381   2.500  0.00  0.00    +0.186 C 
BRANCH   5   6
ATOM      6  C   UNL     1       0.801  -1.808   1.304  0.00  0.00    +0.328 C 
ATOM      7  O   UNL     1       0.324  -2.546   0.475  0.00  0.00    -0.249 OA
BRANCH   6   8
ATOM      8  O   UNL     1       0.693  -0.477   1.160  0.00  0.00    -0.464 OA
BRANCH   8  10
ATOM      9  C   UNL     1      -0.019   1.526   0.010  0.00  0.00    +0.048 C 
ATOM     10  C   UNL     1       0.002  -0.004   0.002  0.00  0.00    +0.229 C 
ENDBRANCH   8  10
ENDBRANCH   6   8
ENDBRANCH   5   6
BRANCH   5  11
ATOM     11  C   UNL     1       2.965  -1.889   2.511  0.00  0.00    +0.067 C 
BRANCH  11  12
ATOM     12  C   UNL     1       3.646  -2.361   3.770  0.00  0.00    -0.039 C 
ATOM     13  C   UNL     1       4.406  -3.470   3.917  0.00  0.00    -0.001 A 
ATOM     14  C   UNL     1       4.810  -4.529   2.984  0.00  0.00    +0.010 A 
ATOM     15  C   UNL     1       5.594  -5.535   3.434  0.00  0.00    +0.001 A 
ATOM     16  C   UNL     1       6.029  -5.593   4.765  0.00  0.00    +0.002 A 
ATOM     17  C   UNL     1       5.699  -4.657   5.681  0.00  0.00    +0.026 A 
ATOM     18  C   UNL     1       4.879  -3.553   5.317  0.00  0.00    +0.043 A 
ATOM     19  N   UNL     1       4.428  -2.535   6.009  0.00  0.00    -0.380 N 
ATOM     20  C   UNL     1       3.623  -1.687   5.124  0.00  0.00    +0.144 C 
ATOM     21  H   UNL     1       4.601  -2.369   6.949  0.00  0.00    +0.160 HD
ENDBRANCH  11  12
ENDBRANCH   5  11
ENDBRANCH   1   5
BRANCH   2  22
ATOM     22  C   UNL     1       0.416  -6.033   2.819  0.00  0.00    +0.175 C 
BRANCH  22  23
ATOM     23  N   UNL     1      -0.965  -6.510   2.929  0.00  0.00    -0.222 N 
ATOM     24  C   UNL     1      -1.769  -6.278   3.982  0.00  0.00    +0.255 C 
ATOM     25  O   UNL     1      -1.469  -5.651   4.978  0.00  0.00    -0.270 OA
ATOM     26  C   UNL     1      -3.078  -6.915   3.725  0.00  0.00    +0.049 A 
ATOM     27  C   UNL     1      -4.265  -7.008   4.434  0.00  0.00    +0.014 A 
ATOM     28  C   UNL     1      -5.337  -7.699   3.891  0.00  0.00    +0.001 A 
ATOM     29  C   UNL     1      -5.230  -8.296   2.649  0.00  0.00    +0.001 A 
ATOM     30  C   UNL     1      -4.049  -8.211   1.929  0.00  0.00    +0.014 A 
ATOM     31  C   UNL     1      -2.969  -7.523   2.458  0.00  0.00    +0.049 A 
ATOM     32  C   UNL     1      -1.599  -7.231   1.986  0.00  0.00    +0.255 C 
ATOM     33  O   UNL     1      -1.123  -7.586   0.926  0.00  0.00    -0.270 OA
ENDBRANCH  22  23
BRANCH  22  34
ATOM     34  C   UNL     1       1.248  -6.613   3.965  0.00  0.00    +0.067 C 
BRANCH  34  35
ATOM     35  C   UNL     1       1.330  -8.110   3.818  0.00  0.00    -0.045 A 
ATOM     36  C   UNL     1       0.372  -8.916   4.407  0.00  0.00    +0.004 A 
ATOM     37  C   UNL     1       0.448 -10.290   4.272  0.00  0.00    +0.000 A 
ATOM     38  C   UNL     1       1.480 -10.858   3.549  0.00  0.00    +0.000 A 
ATOM     39  C   UNL     1       2.437 -10.052   2.961  0.00  0.00    +0.000 A 
ATOM     40  C   UNL     1       2.359  -8.678   3.091  0.00  0.00    +0.004 A 
ENDBRANCH  34  35
ENDBRANCH  22  34
ENDBRANCH   2  22
TORSDOF 10
