REMARK  Name = ZINC40702047
REMARK  7 active torsions:
REMARK  status: ('A' for Active; 'I' for Inactive)
REMARK    1  A    between atoms: C_1  and  C_2
REMARK    2  A    between atoms: C_2  and  N_3
REMARK    3  A    between atoms: N_3  and  C_4
REMARK    4  A    between atoms: C_15  and  N_31
REMARK    5  A    between atoms: C_16  and  N_20
REMARK    6  A    between atoms: N_20  and  N_21
REMARK    7  A    between atoms: C_22  and  C_24
REMARK                            x       y       z     vdW  Elec       q    Type
REMARK                         _______ _______ _______ _____ _____    ______ ____
ROOT
ATOM      1  N   UNL     1       0.708  -0.505   1.183  0.00  0.00    -0.283 N 
ATOM      2  C   UNL     1       2.079  -0.680   1.037  0.00  0.00    +0.152 A 
ATOM      3  C   UNL     1       2.713  -0.344  -0.161  0.00  0.00    +0.107 A 
ATOM      4  C   UNL     1       4.092  -0.540  -0.255  0.00  0.00    +0.161 A 
ATOM      5  N   UNL     1       4.746  -1.035   0.794  0.00  0.00    -0.217 NA
ATOM      6  C   UNL     1       4.109  -1.339   1.907  0.00  0.00    +0.225 A 
ATOM      7  N   UNL     1       2.810  -1.165   2.038  0.00  0.00    -0.218 NA
ENDROOT
BRANCH   1   8
ATOM      8  C   UNL     1      -0.159  -1.573   0.959  0.00  0.00    +0.043 A 
ATOM      9  C   UNL     1      -0.670  -1.802  -0.301  0.00  0.00    +0.024 A 
ATOM     10  C   UNL     1      -1.537  -2.865  -0.535  0.00  0.00    +0.002 A 
ATOM     11  C   UNL     1      -1.903  -3.708   0.470  0.00  0.00    +0.008 A 
ATOM     12  C   UNL     1      -1.404  -3.510   1.769  0.00  0.00    -0.016 A 
ATOM     13  C   UNL     1      -0.517  -2.434   2.019  0.00  0.00    +0.003 A 
ATOM     14  C   UNL     1      -0.015  -2.241   3.315  0.00  0.00    +0.010 A 
ATOM     15  C   UNL     1      -0.382  -3.091   4.314  0.00  0.00    +0.001 A 
ATOM     16  C   UNL     1      -1.250  -4.154   4.068  0.00  0.00    +0.001 A 
ATOM     17  C   UNL     1      -1.766  -4.364   2.826  0.00  0.00    +0.008 A 
ENDBRANCH   1   8
BRANCH   3  18
ATOM     18  N   UNL     1       1.983   0.175  -1.242  0.00  0.00    -0.353 N 
ATOM     19  H   UNL     1       1.041   0.379  -1.138  0.00  0.00    +0.143 HD
ATOM     20  H   UNL     1       2.422   0.330  -2.094  0.00  0.00    +0.143 HD
ENDBRANCH   3  18
BRANCH   1  22
ATOM     21  C   UNL     1      -0.012   0.845   3.091  0.00  0.00    +0.025 C 
ATOM     22  C   UNL     1       0.174   0.802   1.573  0.00  0.00    +0.109 C 
ENDBRANCH   1  22
BRANCH   4  23
ATOM     23  N   UNL     1       4.772  -0.223  -1.425  0.00  0.00    -0.247 N 
ATOM     24  H   UNL     1       4.288   0.137  -2.184  0.00  0.00    +0.172 HD
BRANCH  23  25
ATOM     25  N   UNL     1       6.156  -0.423  -1.506  0.00  0.00    -0.231 N 
ATOM     26  C   UNL     1       6.816  -0.116  -2.641  0.00  0.00    +0.260 C 
ATOM     27  O   UNL     1       6.210   0.336  -3.593  0.00  0.00    -0.269 OA
ATOM     28  H   UNL     1       6.640  -0.783  -0.747  0.00  0.00    +0.173 HD
BRANCH  26  29
ATOM     29  C   UNL     1       8.276  -0.327  -2.728  0.00  0.00    +0.038 A 
ATOM     30  C   UNL     1       8.974  -0.851  -1.638  0.00  0.00    +0.014 A 
ATOM     31  C   UNL     1      10.337  -1.046  -1.724  0.00  0.00    +0.016 A 
ATOM     32  C   UNL     1      11.012  -0.723  -2.889  0.00  0.00    +0.018 A 
ATOM     33  C   UNL     1      10.325  -0.203  -3.974  0.00  0.00    +0.016 A 
ATOM     34  C   UNL     1       8.962  -0.010  -3.901  0.00  0.00    +0.014 A 
ATOM     35 BR   UNL     1      12.880  -0.994  -3.000  0.00  0.00    -0.050 Br
ENDBRANCH  26  29
ENDBRANCH  23  25
ENDBRANCH   4  23
TORSDOF 6
