REMARK  Name = ZINC20723464
REMARK  9 active torsions:
REMARK  status: ('A' for Active; 'I' for Inactive)
REMARK    1  A    between atoms: C_1  and  C_2
REMARK    2  A    between atoms: C_2  and  C_3
REMARK    3  A    between atoms: C_2  and  C_4
REMARK    4  A    between atoms: C_4  and  C_5
REMARK    5  A    between atoms: C_5  and  C_7
REMARK    6  A    between atoms: C_5  and  N_11
REMARK    7  A    between atoms: C_7  and  O_9
REMARK    8  A    between atoms: O_9  and  C_10
REMARK    9  A    between atoms: C_23  and  C_25
REMARK                            x       y       z     vdW  Elec       q    Type
REMARK                         _______ _______ _______ _____ _____    ______ ____
ROOT
ATOM      1  N   UNL     1       2.009   1.546  -1.182  0.00  0.00    -0.286 N 
ATOM      2  C   UNL     1       1.865   2.107   0.034  0.00  0.00    +0.304 C 
ATOM      3  O   UNL     1       1.841   1.407   1.028  0.00  0.00    -0.253 OA
ATOM      4  N   UNL     1       1.747   3.445   0.149  0.00  0.00    -0.273 N 
ATOM      5  C   UNL     1       1.657   4.298  -1.045  0.00  0.00    +0.116 C 
ATOM      6  C   UNL     1       0.284   4.983  -1.070  0.00  0.00    +0.074 C 
ATOM      7  C   UNL     1      -0.020   5.512   0.306  0.00  0.00    +0.040 A 
ATOM      8  C   UNL     1       0.601   5.118   1.439  0.00  0.00    +0.062 A 
ATOM      9  N   UNL     1       0.071   5.795   2.460  0.00  0.00    -0.348 N 
ATOM     10  C   UNL     1      -0.855   6.598   2.006  0.00  0.00    +0.171 A 
ATOM     11  N   UNL     1      -0.940   6.451   0.664  0.00  0.00    -0.349 N 
ATOM     12  H   UNL     1      -1.542   6.924   0.069  0.00  0.00    +0.166 HD
ATOM     13  C   UNL     1       1.699   4.087   1.475  0.00  0.00    +0.156 C 
ATOM     14  H   UNL     1       2.101   2.107  -1.968  0.00  0.00    +0.151 HD
ATOM     15  H   UNL     1       0.331   5.705   3.390  0.00  0.00    +0.167 HD
ENDROOT
BRANCH  13  16
ATOM     16  C   UNL     1       3.016   4.757   1.769  0.00  0.00    -0.021 A 
ATOM     17  C   UNL     1       3.443   5.814   0.987  0.00  0.00    +0.007 A 
ATOM     18  C   UNL     1       4.651   6.429   1.256  0.00  0.00    +0.020 A 
ATOM     19  C   UNL     1       5.434   5.986   2.308  0.00  0.00    +0.041 A 
ATOM     20  C   UNL     1       5.006   4.928   3.089  0.00  0.00    +0.020 A 
ATOM     21  C   UNL     1       3.795   4.318   2.823  0.00  0.00    +0.007 A 
ATOM     22 CL   UNL     1       6.952   6.758   2.645  0.00  0.00    -0.084 Cl
ENDBRANCH  13  16
BRANCH   1  23
ATOM     23  C   UNL     1       2.028   0.087  -1.318  0.00  0.00    +0.183 C 
BRANCH  23  24
ATOM     24  C   UNL     1       2.690  -0.288  -2.619  0.00  0.00    +0.327 C 
ATOM     25  O   UNL     1       3.104   0.575  -3.357  0.00  0.00    -0.249 OA
BRANCH  24  26
ATOM     26  O   UNL     1       2.819  -1.580  -2.958  0.00  0.00    -0.467 OA
ATOM     27  C   UNL     1       3.457  -1.863  -4.205  0.00  0.00    +0.280 C 
ENDBRANCH  24  26
ENDBRANCH  23  24
BRANCH  23  28
ATOM     28  C   UNL     1       0.593  -0.445  -1.304  0.00  0.00    +0.036 C 
BRANCH  28  30
ATOM     29  C   UNL     1       1.237  -2.445   0.048  0.00  0.00    +0.007 C 
ATOM     30  C   UNL     1       0.616  -1.974  -1.269  0.00  0.00    -0.015 C 
ATOM     31  C   UNL     1      -0.813  -2.508  -1.379  0.00  0.00    +0.007 C 
ENDBRANCH  28  30
ENDBRANCH  23  28
ENDBRANCH   1  23
TORSDOF 6
