REMARK  Name = ZINC15357157
REMARK  5 active torsions:
REMARK  status: ('A' for Active; 'I' for Inactive)
REMARK    1  A    between atoms: C_4  and  C_7
REMARK    2  A    between atoms: N_8  and  S_9
REMARK    3  A    between atoms: S_9  and  C_12
REMARK    4  A    between atoms: N_18  and  C_19
REMARK    5  A    between atoms: C_22  and  O_26
REMARK                            x       y       z     vdW  Elec       q    Type
REMARK                         _______ _______ _______ _____ _____    ______ ____
ROOT
ATOM      1  C   UNL     1       3.601  -0.766   0.615  0.00  0.00    +0.152 C 
ATOM      2  N   UNL     1       4.519   0.140   0.428  0.00  0.00    -0.113 NA
ATOM      3  N   UNL     1       3.849  -2.079   0.275  0.00  0.00    -0.298 N 
ATOM      4  H   UNL     1       4.754  -2.426   0.311  0.00  0.00    +0.154 HD
ENDROOT
BRANCH   3   5
ATOM      5  C   UNL     1       2.795  -2.910  -0.121  0.00  0.00    +0.035 A 
ATOM      6  C   UNL     1       1.716  -2.380  -0.816  0.00  0.00    +0.047 A 
ATOM      7  C   UNL     1       0.676  -3.202  -1.208  0.00  0.00    +0.085 A 
ATOM      8  C   UNL     1       0.710  -4.556  -0.907  0.00  0.00    +0.153 A 
ATOM      9  C   UNL     1       1.788  -5.086  -0.212  0.00  0.00    +0.085 A 
ATOM     10  C   UNL     1       2.831  -4.266   0.175  0.00  0.00    +0.047 A 
ATOM     11 CL   UNL     1       1.829  -6.780   0.165  0.00  0.00    -0.080 Cl
ATOM     12 CL   UNL     1      -0.674  -2.539  -2.076  0.00  0.00    -0.080 Cl
BRANCH   8  13
ATOM     13  O   UNL     1      -0.315  -5.364  -1.293  0.00  0.00    -0.504 OA
ATOM     14  H   UNL     1      -0.197  -5.757  -2.168  0.00  0.00    +0.292 HD
ENDBRANCH   8  13
ENDBRANCH   3   5
BRANCH   1  18
ATOM     15  C   UNL     1      -0.158   0.328   2.267  0.00  0.00    +0.000 A 
ATOM     16  C   UNL     1       0.682   1.304   1.761  0.00  0.00    +0.001 A 
ATOM     17  C   UNL     1       1.904   0.955   1.223  0.00  0.00    +0.011 A 
ATOM     18  C   UNL     1       2.292  -0.385   1.191  0.00  0.00    +0.017 A 
ATOM     19  C   UNL     1       1.440  -1.364   1.703  0.00  0.00    +0.011 A 
ATOM     20  C   UNL     1       0.221  -1.002   2.238  0.00  0.00    +0.001 A 
ENDBRANCH   1  18
BRANCH   2  21
ATOM     21  S   UNL     1       5.937  -0.262  -0.328  0.00  0.00    +0.100 S 
ATOM     22  O   UNL     1       6.602  -1.187   0.522  0.00  0.00    -0.146 OA
ATOM     23  O   UNL     1       5.606  -0.567  -1.675  0.00  0.00    -0.146 OA
BRANCH  21  24
ATOM     24  C   UNL     1       6.934   1.190  -0.370  0.00  0.00    +0.113 A 
ATOM     25  C   UNL     1       6.843   2.060  -1.440  0.00  0.00    +0.029 A 
ATOM     26  C   UNL     1       7.625   3.200  -1.474  0.00  0.00    +0.002 A 
ATOM     27  C   UNL     1       8.498   3.469  -0.437  0.00  0.00    +0.000 A 
ATOM     28  C   UNL     1       8.589   2.599   0.634  0.00  0.00    +0.002 A 
ATOM     29  C   UNL     1       7.804   1.462   0.669  0.00  0.00    +0.029 A 
ENDBRANCH  21  24
ENDBRANCH   2  21
TORSDOF 5
