REMARK  Name = ZINC63213790
REMARK  4 active torsions:
REMARK  status: ('A' for Active; 'I' for Inactive)
REMARK    1  A    between atoms: C_3  and  S_9
REMARK    2  A    between atoms: S_9  and  N_12
REMARK    3  A    between atoms: N_12  and  C_13
REMARK    4  A    between atoms: C_20  and  N_22
REMARK                            x       y       z     vdW  Elec       q    Type
REMARK                         _______ _______ _______ _____ _____    ______ ____
ROOT
ATOM      1  N   UNL     1       4.603   2.097   1.455  0.00  0.00    -0.188 NA
ATOM      2  H   UNL     1       4.592   2.814   2.108  0.00  0.00    +0.148 HD
ENDROOT
BRANCH   1   3
ATOM      3  C   UNL     1       5.156   0.788   1.812  0.00  0.00    +0.062 C 
ATOM      4  C   UNL     1       6.678   0.808   1.572  0.00  0.00    +0.019 C 
ATOM      5  C   UNL     1       7.413  -0.333   2.301  0.00  0.00    +0.001 C 
ATOM      6  C   UNL     1       6.674  -1.641   2.215  0.00  0.00    -0.000 C 
ATOM      7  C   UNL     1       5.794  -1.789   3.473  0.00  0.00    -0.002 C 
ATOM      8  C   UNL     1       4.555  -1.031   3.377  0.00  0.00    -0.015 C 
ATOM      9  C   UNL     1       4.805   0.487   3.244  0.00  0.00    -0.056 C 
BRANCH   9  10
ATOM     10  N   UNL     1       3.590   1.221   3.620  0.00  0.00    +0.381 N 
ATOM     11  H   UNL     1       2.828   0.939   3.022  0.00  0.00    -0.090 HD
ATOM     12  H   UNL     1       3.357   1.017   4.580  0.00  0.00    -0.090 HD
ATOM     13  H   UNL     1       3.750   2.212   3.516  0.00  0.00    -0.090 HD
ENDBRANCH   9  10
ENDBRANCH   1   3
BRANCH   1  14
ATOM     14  S   UNL     1       3.994   2.351  -0.065  0.00  0.00    +0.061 S 
ATOM     15  O   UNL     1       4.973   1.875  -0.979  0.00  0.00    -0.153 OA
ATOM     16  O   UNL     1       3.514   3.688  -0.091  0.00  0.00    -0.153 OA
BRANCH  14  19
ATOM     17  C   UNL     1       1.501  -0.544  -1.306  0.00  0.00    +0.022 A 
ATOM     18  C   UNL     1       2.604   0.276  -1.165  0.00  0.00    +0.033 A 
ATOM     19  C   UNL     1       2.587   1.306  -0.244  0.00  0.00    +0.140 A 
ATOM     20  C   UNL     1       1.464   1.517   0.538  0.00  0.00    +0.151 A 
ATOM     21  C   UNL     1       0.359   0.696   0.396  0.00  0.00    +0.060 A 
ATOM     22  C   UNL     1       0.378  -0.335  -0.526  0.00  0.00    +0.044 A 
ATOM     23 CL   UNL     1      -1.008  -1.365  -0.705  0.00  0.00    -0.083 Cl
ATOM     24  F   UNL     1       1.447   2.524   1.439  0.00  0.00    -0.203 F 
ENDBRANCH  14  19
ENDBRANCH   1  14
TORSDOF 4
