REMARK  Name = ZINC63236937
REMARK  10 active torsions:
REMARK  status: ('A' for Active; 'I' for Inactive)
REMARK    1  A    between atoms: C_1  and  C_2
REMARK    2  A    between atoms: C_2  and  O_3
REMARK    3  A    between atoms: O_3  and  C_4
REMARK    4  A    between atoms: C_4  and  C_6
REMARK    5  A    between atoms: C_7  and  C_34
REMARK    6  A    between atoms: C_10  and  N_12
REMARK    7  A    between atoms: C_13  and  C_15
REMARK    8  A    between atoms: C_15  and  N_16
REMARK    9  A    between atoms: C_19  and  C_24
REMARK   10  A    between atoms: C_24  and  C_25
REMARK                            x       y       z     vdW  Elec       q    Type
REMARK                         _______ _______ _______ _____ _____    ______ ____
ROOT
ATOM      1  N   UNL     1       1.083  -0.378  -3.948  0.00  0.00    -0.298 N 
ATOM      2  C   UNL     1       1.498   0.899  -4.063  0.00  0.00    +0.232 C 
ATOM      3  O   UNL     1       2.659   1.181  -3.854  0.00  0.00    -0.274 OA
ATOM      4  H   UNL     1       0.155  -0.603  -4.114  0.00  0.00    +0.150 HD
ENDROOT
BRANCH   1   9
ATOM      5  C   UNL     1       1.448  -2.344  -2.515  0.00  0.00    +0.071 C 
ATOM      6  C   UNL     1       1.558  -3.655  -2.696  0.00  0.00    -0.018 C 
ATOM      7  C   UNL     1       2.268  -4.146  -3.944  0.00  0.00    +0.107 C 
ATOM      8  S   UNL     1       2.307  -2.607  -4.960  0.00  0.00    -0.129 S 
ATOM      9  C   UNL     1       2.035  -1.426  -3.572  0.00  0.00    +0.169 C 
BRANCH   6  10
ATOM     10  C   UNL     1       1.007  -4.604  -1.715  0.00  0.00    -0.021 A 
ATOM     11  C   UNL     1       1.529  -4.658  -0.419  0.00  0.00    +0.008 A 
ATOM     12  C   UNL     1       1.008  -5.549   0.494  0.00  0.00    +0.001 A 
ATOM     13  C   UNL     1      -0.030  -6.390   0.131  0.00  0.00    +0.000 A 
ATOM     14  C   UNL     1      -0.552  -6.343  -1.150  0.00  0.00    +0.001 A 
ATOM     15  C   UNL     1      -0.045  -5.453  -2.073  0.00  0.00    +0.008 A 
ENDBRANCH   6  10
BRANCH   5  16
ATOM     16  C   UNL     1       0.776  -1.800  -1.335  0.00  0.00    +0.338 C 
ATOM     17  O   UNL     1       0.312  -2.552  -0.499  0.00  0.00    -0.245 OA
BRANCH  16  18
ATOM     18  O   UNL     1       0.671  -0.465  -1.174  0.00  0.00    -0.462 OA
BRANCH  18  20
ATOM     19  C   UNL     1      -0.019   1.526   0.010  0.00  0.00    +0.048 C 
ATOM     20  C   UNL     1       0.002  -0.004   0.002  0.00  0.00    +0.229 C 
ENDBRANCH  18  20
ENDBRANCH  16  18
ENDBRANCH   5  16
ENDBRANCH   1   9
BRANCH   2  21
ATOM     21  C   UNL     1       0.518   1.978  -4.450  0.00  0.00    +0.213 C 
BRANCH  21  22
ATOM     22  N   UNL     1       1.210   3.268  -4.506  0.00  0.00    -0.216 N 
ATOM     23  C   UNL     1       1.337   4.105  -3.458  0.00  0.00    +0.244 C 
ATOM     24  O   UNL     1       0.916   3.939  -2.333  0.00  0.00    -0.273 OA
ATOM     25  C   UNL     1       2.115   5.298  -3.978  0.00  0.00    +0.165 C 
ATOM     26  N   UNL     1       2.360   4.962  -5.391  0.00  0.00    -0.287 N 
ATOM     27  C   UNL     1       1.798   3.758  -5.603  0.00  0.00    +0.310 C 
ATOM     28  O   UNL     1       1.820   3.182  -6.673  0.00  0.00    -0.252 OA
ATOM     29  H   UNL     1       2.835   5.503  -6.041  0.00  0.00    +0.151 HD
BRANCH  25  30
ATOM     30  C   UNL     1       1.283   6.576  -3.860  0.00  0.00    +0.065 C 
BRANCH  30  31
ATOM     31  C   UNL     1       2.122   7.760  -4.268  0.00  0.00    -0.039 C 
ATOM     32  C   UNL     1       2.171   8.341  -5.489  0.00  0.00    -0.001 A 
ATOM     33  C   UNL     1       1.485   8.054  -6.754  0.00  0.00    +0.010 A 
ATOM     34  C   UNL     1       1.746   8.828  -7.832  0.00  0.00    +0.001 A 
ATOM     35  C   UNL     1       2.653   9.894  -7.771  0.00  0.00    +0.002 A 
ATOM     36  C   UNL     1       3.322  10.220  -6.644  0.00  0.00    +0.026 A 
ATOM     37  C   UNL     1       3.124   9.473  -5.450  0.00  0.00    +0.043 A 
ATOM     38  N   UNL     1       3.644   9.588  -4.253  0.00  0.00    -0.380 N 
ATOM     39  C   UNL     1       3.075   8.544  -3.393  0.00  0.00    +0.144 C 
ATOM     40  H   UNL     1       4.294  10.254  -3.979  0.00  0.00    +0.160 HD
ENDBRANCH  30  31
ENDBRANCH  25  30
ENDBRANCH  21  22
ENDBRANCH   2  21
TORSDOF 9
