REMARK  Name = ZINC21965239
REMARK  6 active torsions:
REMARK  status: ('A' for Active; 'I' for Inactive)
REMARK    1  A    between atoms: C_1  and  N_2
REMARK    2  A    between atoms: C_6  and  C_7
REMARK    3  A    between atoms: N_9  and  N_10
REMARK    4  A    between atoms: C_11  and  C_13
REMARK    5  A    between atoms: C_16  and  O_20
REMARK    6  A    between atoms: O_20  and  C_21
REMARK                            x       y       z     vdW  Elec       q    Type
REMARK                         _______ _______ _______ _____ _____    ______ ____
ROOT
ATOM      1  N   UNL     1       3.684   1.731   0.882  0.00  0.00    -0.230 N 
ATOM      2  C   UNL     1       2.548   1.029   1.069  0.00  0.00    +0.260 C 
ATOM      3  O   UNL     1       2.565  -0.184   0.999  0.00  0.00    -0.269 OA
ATOM      4  H   UNL     1       3.669   2.829   0.946  0.00  0.00    +0.173 HD
ENDROOT
BRANCH   2   5
ATOM      5  C   UNL     1       1.284   1.734   1.358  0.00  0.00    +0.041 A 
ATOM      6  C   UNL     1       0.106   1.009   1.552  0.00  0.00    +0.036 A 
ATOM      7  C   UNL     1      -1.073   1.671   1.816  0.00  0.00    +0.085 A 
ATOM      8  C   UNL     1      -1.090   3.059   1.901  0.00  0.00    +0.157 A 
ATOM      9  C   UNL     1       0.081   3.784   1.709  0.00  0.00    +0.085 A 
ATOM     10  C   UNL     1       1.263   3.129   1.439  0.00  0.00    +0.036 A 
ATOM     11 CL   UNL     1       0.053   5.517   1.809  0.00  0.00    -0.080 Cl
ATOM     12 CL   UNL     1      -2.539   0.771   2.050  0.00  0.00    -0.080 Cl
BRANCH   8  13
ATOM     13  O   UNL     1      -2.252   3.707   2.167  0.00  0.00    -0.492 OA
ATOM     14  C   UNL     1      -3.055   4.085   1.048  0.00  0.00    +0.277 C 
ENDBRANCH   8  13
ENDBRANCH   2   5
BRANCH   1  17
ATOM     15  C   UNL     1       6.019   1.763   0.421  0.00  0.00    +0.277 C 
ATOM     16  O   UNL     1       5.985   2.979   0.389  0.00  0.00    -0.267 OA
ATOM     17  N   UNL     1       4.884   1.062   0.608  0.00  0.00    -0.229 N 
ATOM     18  H   UNL     1       4.899  -0.036   0.544  0.00  0.00    +0.173 HD
BRANCH  15  24
ATOM     19  C   UNL     1       8.812   3.084   0.195  0.00  0.00    +0.149 C 
ATOM     20  N   UNL     1       8.539   1.645   0.156  0.00  0.00    -0.345 N 
ATOM     21  C   UNL     1       9.467   0.667   0.015  0.00  0.00    +0.101 A 
ATOM     22  C   UNL     1       8.842  -0.535   0.023  0.00  0.00    +0.036 A 
ATOM     23  C   UNL     1       7.472  -0.305   0.181  0.00  0.00    +0.047 A 
ATOM     24  C   UNL     1       7.296   1.061   0.257  0.00  0.00    +0.107 A 
ATOM     25 BR   UNL     1       9.676  -2.224  -0.142  0.00  0.00    -0.049 Br
ENDBRANCH  15  24
ENDBRANCH   1  17
TORSDOF 4
