REMARK  Name = ZINC52073903
REMARK  11 active torsions:
REMARK  status: ('A' for Active; 'I' for Inactive)
REMARK    1  A    between atoms: C_1  and  C_2
REMARK    2  A    between atoms: C_2  and  C_3
REMARK    3  A    between atoms: C_8  and  N_9
REMARK    4  A    between atoms: C_10  and  C_12
REMARK    5  A    between atoms: C_12  and  N_13
REMARK    6  A    between atoms: C_14  and  C_16
REMARK    7  A    between atoms: C_16  and  N_17
REMARK    8  A    between atoms: N_17  and  C_18
REMARK    9  A    between atoms: N_17  and  C_19
REMARK   10  A    between atoms: C_19  and  C_21
REMARK   11  A    between atoms: C_19  and  C_22
REMARK                            x       y       z     vdW  Elec       q    Type
REMARK                         _______ _______ _______ _____ _____    ______ ____
ROOT
ATOM      1  N   UNL     1      -3.979  -0.678   5.031  0.00  0.00    -0.308 N 
ATOM      2  C   UNL     1      -5.290  -0.546   5.311  0.00  0.00    +0.197 C 
ATOM      3  O   UNL     1      -6.057  -0.155   4.456  0.00  0.00    -0.278 OA
ATOM      4  H   UNL     1      -3.366  -0.991   5.714  0.00  0.00    +0.149 HD
ENDROOT
BRANCH   1   5
ATOM      5  C   UNL     1      -3.478  -0.347   3.694  0.00  0.00    +0.200 C 
BRANCH   5   7
ATOM      6  N   UNL     1      -1.309  -0.339   2.505  0.00  0.00    -0.284 N 
ATOM      7  C   UNL     1      -1.990  -0.578   3.643  0.00  0.00    +0.234 C 
ATOM      8  O   UNL     1      -1.405  -0.980   4.627  0.00  0.00    -0.274 OA
ATOM      9  H   UNL     1      -1.764   0.044   1.739  0.00  0.00    +0.155 HD
BRANCH   6  15
ATOM     10  C   UNL     1       0.600  -1.100   1.236  0.00  0.00    -0.026 A 
ATOM     11  C   UNL     1       1.948  -1.393   1.163  0.00  0.00    +0.005 A 
ATOM     12  C   UNL     1       2.753  -1.237   2.276  0.00  0.00    +0.000 A 
ATOM     13  C   UNL     1       2.212  -0.786   3.466  0.00  0.00    +0.002 A 
ATOM     14  C   UNL     1       0.865  -0.491   3.546  0.00  0.00    +0.023 A 
ATOM     15  C   UNL     1       0.055  -0.642   2.429  0.00  0.00    +0.037 A 
BRANCH  10  17
ATOM     16  C   UNL     1      -0.393   0.066  -0.714  0.00  0.00    +0.009 C 
ATOM     17  C   UNL     1      -0.277  -1.270   0.022  0.00  0.00    +0.033 C 
ENDBRANCH  10  17
ENDBRANCH   6  15
ENDBRANCH   5   7
ENDBRANCH   1   5
BRANCH   2  18
ATOM     18  C   UNL     1      -5.805  -0.887   6.685  0.00  0.00    +0.019 C 
BRANCH  18  19
ATOM     19  N   UNL     1      -7.256  -0.661   6.735  0.00  0.00    +0.388 N 
ATOM     20  C   UNL     1      -7.928  -1.598   5.825  0.00  0.00    -0.095 C 
ATOM     21  H   UNL     1      -7.459   0.286   6.452  0.00  0.00    -0.081 HD
BRANCH  19  22
ATOM     22  C   UNL     1      -7.739  -0.878   8.105  0.00  0.00    -0.038 C 
ATOM     23  C   UNL     1      -9.250  -0.643   8.157  0.00  0.00    -0.008 C 
BRANCH  22  24
ATOM     24  C   UNL     1      -7.049   0.084   9.039  0.00  0.00    -0.026 A 
ATOM     25  C   UNL     1      -6.552   1.280   8.556  0.00  0.00    +0.005 A 
ATOM     26  C   UNL     1      -5.919   2.161   9.412  0.00  0.00    +0.000 A 
ATOM     27  C   UNL     1      -5.782   1.848  10.751  0.00  0.00    +0.003 A 
ATOM     28  C   UNL     1      -6.279   0.654  11.236  0.00  0.00    +0.038 A 
ATOM     29  C   UNL     1      -6.918  -0.228  10.381  0.00  0.00    +0.125 A 
ATOM     30  F   UNL     1      -7.407  -1.395  10.855  0.00  0.00    -0.205 F 
ENDBRANCH  22  24
ENDBRANCH  19  22
ENDBRANCH  18  19
ENDBRANCH   2  18
TORSDOF 8
