REMARK  Name = ZINC28132480
REMARK  14 active torsions:
REMARK  status: ('A' for Active; 'I' for Inactive)
REMARK    1  A    between atoms: C_1  and  C_2
REMARK    2  A    between atoms: C_2  and  C_3
REMARK    3  A    between atoms: C_2  and  C_4
REMARK    4  A    between atoms: C_2  and  O_5
REMARK    5  A    between atoms: O_5  and  C_6
REMARK    6  A    between atoms: C_6  and  C_8
REMARK    7  A    between atoms: C_8  and  N_9
REMARK    8  A    between atoms: N_9  and  C_10
REMARK    9  A    between atoms: N_9  and  S_30
REMARK   10  A    between atoms: C_15  and  C_28
REMARK   11  A    between atoms: N_19  and  C_21
REMARK   12  A    between atoms: C_21  and  C_22
REMARK   13  A    between atoms: N_26  and  C_27
REMARK   14  A    between atoms: S_30  and  C_33
REMARK                            x       y       z     vdW  Elec       q    Type
REMARK                         _______ _______ _______ _____ _____    ______ ____
ROOT
ATOM      1  C   UNL     1       0.254  -1.906   0.217  0.00  0.00    +0.102 C 
ATOM      2  C   UNL     1       1.449  -0.997  -0.077  0.00  0.00    +0.059 C 
ATOM      3  C   UNL     1       1.014   0.446  -0.026  0.00  0.00    -0.024 A 
ATOM      4  C   UNL     1       1.993   1.417   0.062  0.00  0.00    +0.024 A 
ATOM      5  C   UNL     1       1.646   2.768   0.104  0.00  0.00    +0.052 A 
ATOM      6  C   UNL     1       0.298   3.136   0.057  0.00  0.00    +0.021 A 
ATOM      7  C   UNL     1      -0.671   2.167  -0.027  0.00  0.00    +0.024 A 
ATOM      8  C   UNL     1      -0.324   0.812  -0.067  0.00  0.00    +0.033 A 
ATOM      9  N   UNL     1      -1.357  -0.114  -0.138  0.00  0.00    -0.322 N 
ATOM     10  C   UNL     1      -0.927  -1.423  -0.634  0.00  0.00    +0.126 C 
ENDROOT
BRANCH   5  11
ATOM     11  C   UNL     1       2.664   3.771   0.196  0.00  0.00    +0.099 C 
ATOM     12  N   UNL     1       3.472   4.566   0.269  0.00  0.00    -0.191 NA
ENDBRANCH   5  11
BRANCH   1  13
ATOM     13  N   UNL     1       0.584  -3.289  -0.135  0.00  0.00    -0.160 NA
BRANCH  13  14
ATOM     14  S   UNL     1       0.546  -4.471   1.026  0.00  0.00    +0.079 S 
ATOM     15  O   UNL     1       1.514  -5.440   0.650  0.00  0.00    -0.151 OA
ATOM     16  O   UNL     1       0.580  -3.807   2.282  0.00  0.00    -0.151 OA
BRANCH  14  17
ATOM     17  C   UNL     1      -1.026  -5.259   0.914  0.00  0.00    +0.194 A 
ATOM     18  C   UNL     1      -1.185  -6.353   0.084  0.00  0.00    +0.049 A 
ATOM     19  C   UNL     1      -2.425  -6.966   0.004  0.00  0.00    +0.005 A 
ATOM     20  C   UNL     1      -3.465  -6.454   0.766  0.00  0.00    +0.020 A 
ATOM     21  C   UNL     1      -3.231  -5.357   1.573  0.00  0.00    +0.113 A 
ATOM     22  N   UNL     1      -2.036  -4.802   1.628  0.00  0.00    -0.236 NA
ENDBRANCH  14  17
ENDBRANCH  13  14
BRANCH  13  23
ATOM     23  C   UNL     1       0.949  -3.628  -1.512  0.00  0.00    +0.230 C 
BRANCH  23  24
ATOM     24  C   UNL     1       2.421  -3.376  -1.719  0.00  0.00    +0.324 C 
ATOM     25  O   UNL     1       3.095  -2.957  -0.808  0.00  0.00    -0.249 OA
BRANCH  24  26
ATOM     26  O   UNL     1       2.982  -3.617  -2.914  0.00  0.00    -0.458 OA
BRANCH  26  28
ATOM     27  C   UNL     1       5.175  -4.218  -2.042  0.00  0.00    +0.055 C 
ATOM     28  C   UNL     1       4.403  -3.352  -3.041  0.00  0.00    +0.105 C 
ATOM     29  C   UNL     1       4.860  -3.684  -4.463  0.00  0.00    +0.055 C 
ATOM     30  C   UNL     1       4.674  -1.874  -2.750  0.00  0.00    +0.055 C 
ENDBRANCH  26  28
ENDBRANCH  24  26
ENDBRANCH  23  24
ENDBRANCH  13  23
ENDBRANCH   1  13
BRANCH   9  31
ATOM     31  C   UNL     1      -2.478   0.407  -0.931  0.00  0.00    +0.160 C 
BRANCH  31  32
ATOM     32  C   UNL     1      -3.528  -0.663  -1.082  0.00  0.00    +0.053 A 
ATOM     33  C   UNL     1      -3.667  -1.511  -2.119  0.00  0.00    +0.106 A 
ATOM     34  N   UNL     1      -4.718  -2.305  -1.868  0.00  0.00    -0.352 N 
ATOM     35  C   UNL     1      -5.237  -1.981  -0.715  0.00  0.00    +0.173 A 
ATOM     36  N   UNL     1      -4.521  -0.964  -0.189  0.00  0.00    -0.337 N 
ATOM     37  C   UNL     1      -4.763  -0.304   1.097  0.00  0.00    +0.150 C 
ATOM     38  H   UNL     1      -5.009  -3.078  -2.594  0.00  0.00    +0.166 HD
ENDBRANCH  31  32
ENDBRANCH   9  31
TORSDOF 10
