REMARK  Name = ZINC41585936
REMARK  6 active torsions:
REMARK  status: ('A' for Active; 'I' for Inactive)
REMARK    1  A    between atoms: C_1  and  O_2
REMARK    2  A    between atoms: O_2  and  C_3
REMARK    3  A    between atoms: C_12  and  C_14
REMARK    4  A    between atoms: C_23  and  O_38
REMARK    5  A    between atoms: C_24  and  C_25
REMARK    6  A    between atoms: C_25  and  N_26
REMARK                            x       y       z     vdW  Elec       q    Type
REMARK                         _______ _______ _______ _____ _____    ______ ____
ROOT
ATOM      1  C   UNL     1       1.055  -6.186   1.002  0.00  0.00    +0.006 A 
ATOM      2  C   UNL     1       0.309  -6.923   1.907  0.00  0.00    +0.101 A 
ATOM      3  C   UNL     1       0.376  -8.324   1.878  0.00  0.00    +0.338 A 
ATOM      4  O   UNL     1      -0.284  -8.965   2.677  0.00  0.00    -0.245 OA
ATOM      5  O   UNL     1       1.146  -8.978   0.994  0.00  0.00    -0.422 OA
ATOM      6  C   UNL     1       1.900  -8.326   0.083  0.00  0.00    +0.148 A 
ATOM      7  C   UNL     1       1.889  -6.922   0.037  0.00  0.00    +0.026 A 
ATOM      8  C   UNL     1       2.663  -6.245  -0.908  0.00  0.00    +0.016 A 
ATOM      9  C   UNL     1       3.429  -6.952  -1.792  0.00  0.00    +0.046 A 
ATOM     10  C   UNL     1       3.441  -8.344  -1.756  0.00  0.00    +0.125 A 
ATOM     11  C   UNL     1       2.687  -9.030  -0.817  0.00  0.00    +0.051 A 
ENDROOT
BRANCH   1  21
ATOM     12  C   UNL     1       0.578  -0.569   0.887  0.00  0.00    +0.163 A 
ATOM     13  C   UNL     1       1.141   0.200   1.891  0.00  0.00    +0.049 A 
ATOM     14  C   UNL     1       1.762  -0.403   2.976  0.00  0.00    +0.004 A 
ATOM     15  C   UNL     1       1.839  -1.764   3.065  0.00  0.00    +0.012 A 
ATOM     16  C   UNL     1       1.299  -2.563   2.048  0.00  0.00    +0.022 A 
ATOM     17  C   UNL     1       0.635  -1.958   0.965  0.00  0.00    +0.180 A 
ATOM     18  O   UNL     1       0.044  -2.723   0.016  0.00  0.00    -0.418 OA
ATOM     19  C   UNL     1       0.558  -3.958  -0.183  0.00  0.00    +0.345 A 
ATOM     20  O   UNL     1       0.645  -4.431  -1.301  0.00  0.00    -0.245 OA
ATOM     21  C   UNL     1       1.011  -4.711   1.002  0.00  0.00    +0.068 A 
ATOM     22  C   UNL     1       1.402  -3.978   2.110  0.00  0.00    +0.027 A 
BRANCH  12  24
ATOM     23  C   UNL     1      -0.054   1.460  -0.181  0.00  0.00    +0.277 C 
ATOM     24  O   UNL     1      -0.034   0.031  -0.169  0.00  0.00    -0.491 OA
ENDBRANCH  12  24
ENDBRANCH   1  21
BRANCH  10  25
ATOM     25  O   UNL     1       4.205  -9.034  -2.640  0.00  0.00    -0.506 OA
ATOM     26  H   UNL     1       5.103  -9.214  -2.328  0.00  0.00    +0.292 HD
ENDBRANCH  10  25
BRANCH  11  27
ATOM     27  C   UNL     1       2.706 -10.537  -0.787  0.00  0.00    +0.127 C 
BRANCH  27  28
ATOM     28  N   UNL     1       1.657 -11.058  -1.674  0.00  0.00    -0.295 NA
ATOM     29  C   UNL     1       0.321 -10.708  -1.172  0.00  0.00    +0.103 C 
ATOM     30  C   UNL     1      -0.732 -11.108  -2.211  0.00  0.00    +0.122 C 
ATOM     31  N   UNL     1      -0.544 -12.529  -2.542  0.00  0.00    -0.314 N 
ATOM     32  C   UNL     1       0.802 -12.983  -2.923  0.00  0.00    +0.122 C 
ATOM     33  C   UNL     1       1.795 -12.509  -1.856  0.00  0.00    +0.103 C 
ATOM     34  C   UNL     1      -1.612 -13.419  -2.498  0.00  0.00    +0.099 A 
ATOM     35  C   UNL     1      -2.846 -12.991  -2.021  0.00  0.00    +0.042 A 
ATOM     36  C   UNL     1      -3.900 -13.887  -1.983  0.00  0.00    +0.005 A 
ATOM     37  C   UNL     1      -3.682 -15.185  -2.425  0.00  0.00    +0.018 A 
ATOM     38  C   UNL     1      -2.431 -15.541  -2.886  0.00  0.00    +0.084 A 
ATOM     39  N   UNL     1      -1.445 -14.664  -2.916  0.00  0.00    -0.350 N 
ATOM     40  H   UNL     1      -0.577 -14.939  -3.249  0.00  0.00    +0.166 HD
ENDBRANCH  27  28
ENDBRANCH  11  27
TORSDOF 5
