REMARK  Name = ZINC35483487
REMARK  13 active torsions:
REMARK  status: ('A' for Active; 'I' for Inactive)
REMARK    1  A    between atoms: C_1  and  C_2
REMARK    2  A    between atoms: C_2  and  C_3
REMARK    3  A    between atoms: C_3  and  C_4
REMARK    4  A    between atoms: C_4  and  N_5
REMARK    5  A    between atoms: N_5  and  C_6
REMARK    6  A    between atoms: N_5  and  C_10
REMARK    7  A    between atoms: C_6  and  C_7
REMARK    8  A    between atoms: C_7  and  C_8
REMARK    9  A    between atoms: C_8  and  C_9
REMARK   10  A    between atoms: C_10  and  C_11
REMARK   11  A    between atoms: C_11  and  C_12
REMARK   12  A    between atoms: C_12  and  N_13
REMARK   13  A    between atoms: C_14  and  C_29
REMARK                            x       y       z     vdW  Elec       q    Type
REMARK                         _______ _______ _______ _____ _____    ______ ____
ROOT
ATOM      1  N   UNL     1       3.869  -5.931  -0.299  0.00  0.00    -0.281 N 
ATOM      2  C   UNL     1       3.350  -6.241  -1.641  0.00  0.00    +0.180 C 
ATOM      3  C   UNL     1       4.551  -6.400  -2.515  0.00  0.00    +0.075 A 
ATOM      4  C   UNL     1       4.674  -6.721  -3.941  0.00  0.00    +0.199 A 
ATOM      5  O   UNL     1       3.724  -6.745  -4.703  0.00  0.00    -0.287 OA
ATOM      6  C   UNL     1       6.066  -7.013  -4.367  0.00  0.00    +0.064 A 
ATOM      7  C   UNL     1       6.322  -7.526  -5.638  0.00  0.00    +0.015 A 
ATOM      8  C   UNL     1       7.609  -7.795  -6.014  0.00  0.00    +0.001 A 
ATOM      9  C   UNL     1       8.657  -7.559  -5.135  0.00  0.00    +0.004 A 
ATOM     10  C   UNL     1       8.422  -7.051  -3.877  0.00  0.00    +0.047 A 
ATOM     11  C   UNL     1       7.118  -6.766  -3.471  0.00  0.00    +0.139 A 
ATOM     12  O   UNL     1       6.911  -6.259  -2.234  0.00  0.00    -0.450 OA
ATOM     13  C   UNL     1       5.659  -6.193  -1.742  0.00  0.00    +0.199 A 
ATOM     14  C   UNL     1       5.215  -5.900  -0.368  0.00  0.00    +0.283 C 
ATOM     15  O   UNL     1       5.955  -5.667   0.567  0.00  0.00    -0.267 OA
ENDROOT
BRANCH   2  16
ATOM     16  C   UNL     1       2.556  -7.522  -1.609  0.00  0.00    +0.130 A 
ATOM     17  C   UNL     1       1.411  -7.754  -2.274  0.00  0.00    +0.047 A 
ATOM     18  C   UNL     1       1.014  -9.074  -1.958  0.00  0.00    +0.041 A 
ATOM     19  C   UNL     1       1.940  -9.569  -1.118  0.00  0.00    +0.195 A 
ATOM     20  O   UNL     1       2.876  -8.627  -0.915  0.00  0.00    -0.466 OA
ENDBRANCH   2  16
BRANCH   1  21
ATOM     21  C   UNL     1       3.062  -5.691   0.901  0.00  0.00    +0.107 C 
BRANCH  21  22
ATOM     22  C   UNL     1       2.734  -4.200   1.005  0.00  0.00    +0.000 C 
BRANCH  22  23
ATOM     23  C   UNL     1       1.892  -3.949   2.257  0.00  0.00    -0.077 C 
BRANCH  23  24
ATOM     24  N   UNL     1       1.577  -2.518   2.357  0.00  0.00    +0.380 N 
ATOM     25  H   UNL     1       2.432  -1.983   2.333  0.00  0.00    -0.082 HD
BRANCH  24  26
ATOM     26  C   UNL     1       0.722  -2.125   1.229  0.00  0.00    -0.079 C 
BRANCH  26  27
ATOM     27  C   UNL     1       0.511  -0.610   1.253  0.00  0.00    -0.019 C 
BRANCH  27  29
ATOM     28  C   UNL     1      -0.478   1.331   0.030  0.00  0.00    +0.004 C 
ATOM     29  C   UNL     1      -0.267  -0.184   0.006  0.00  0.00    -0.005 C 
ENDBRANCH  27  29
ENDBRANCH  26  27
ENDBRANCH  24  26
BRANCH  24  30
ATOM     30  C   UNL     1       0.872  -2.259   3.620  0.00  0.00    -0.079 C 
BRANCH  30  31
ATOM     31  C   UNL     1       1.813  -2.531   4.795  0.00  0.00    -0.019 C 
BRANCH  31  32
ATOM     32  C   UNL     1       1.125  -2.135   6.102  0.00  0.00    -0.005 C 
ATOM     33  C   UNL     1       2.066  -2.408   7.277  0.00  0.00    +0.004 C 
ENDBRANCH  31  32
ENDBRANCH  30  31
ENDBRANCH  24  30
ENDBRANCH  23  24
ENDBRANCH  22  23
ENDBRANCH  21  22
ENDBRANCH   1  21
TORSDOF 11
