REMARK  Name = ZINC20149135
REMARK  8 active torsions:
REMARK  status: ('A' for Active; 'I' for Inactive)
REMARK    1  A    between atoms: C_4  and  C_7
REMARK    2  A    between atoms: C_8  and  C_9
REMARK    3  A    between atoms: C_9  and  N_10
REMARK    4  A    between atoms: N_10  and  C_11
REMARK    5  A    between atoms: C_14  and  C_27
REMARK    6  A    between atoms: N_16  and  C_18
REMARK    7  A    between atoms: N_29  and  C_30
REMARK    8  A    between atoms: C_30  and  C_31
REMARK                            x       y       z     vdW  Elec       q    Type
REMARK                         _______ _______ _______ _____ _____    ______ ____
ROOT
ATOM      1  C   UNL     1       4.388   0.361  -1.371  0.00  0.00    +0.036 C 
ATOM      2  C   UNL     1       4.836  -0.030  -2.803  0.00  0.00    +0.010 C 
ATOM      3  C   UNL     1       6.376  -0.093  -2.644  0.00  0.00    +0.021 C 
ATOM      4  N   UNL     1       6.705   1.009  -1.715  0.00  0.00    +0.391 N 
ATOM      5  C   UNL     1       5.512   1.309  -0.902  0.00  0.00    -0.059 C 
ATOM      6  H   UNL     1       6.997   1.903  -2.285  0.00  0.00    -0.080 HD
ENDROOT
BRANCH   4   7
ATOM      7  C   UNL     1       7.848   0.656  -0.863  0.00  0.00    -0.059 C 
ATOM      8  C   UNL     1       7.459  -0.441   0.151  0.00  0.00    +0.020 C 
ATOM      9  C   UNL     1       8.234  -0.105   1.411  0.00  0.00    -0.046 A 
ATOM     10  C   UNL     1       8.526  -0.884   2.517  0.00  0.00    +0.004 A 
ATOM     11  C   UNL     1       9.261  -0.360   3.562  0.00  0.00    +0.000 A 
ATOM     12  C   UNL     1       9.708   0.947   3.504  0.00  0.00    +0.000 A 
ATOM     13  C   UNL     1       9.418   1.726   2.401  0.00  0.00    +0.004 A 
ATOM     14  C   UNL     1       8.681   1.202   1.352  0.00  0.00    -0.046 A 
ATOM     15  C   UNL     1       8.235   1.837   0.053  0.00  0.00    +0.020 C 
ENDBRANCH   4   7
BRANCH   3  16
ATOM     16  C   UNL     1       7.051   0.123  -3.974  0.00  0.00    +0.200 C 
ATOM     17  O   UNL     1       7.746   1.101  -4.150  0.00  0.00    -0.278 OA
ATOM     18  N   UNL     1       6.881  -0.771  -4.968  0.00  0.00    -0.312 N 
ATOM     19  H   UNL     1       6.251  -1.659  -4.809  0.00  0.00    +0.149 HD
BRANCH  18  20
ATOM     20  C   UNL     1       7.537  -0.561  -6.261  0.00  0.00    +0.141 C 
BRANCH  20  21
ATOM     21  C   UNL     1       7.189  -1.695  -7.191  0.00  0.00    -0.012 A 
ATOM     22  C   UNL     1       6.072  -1.615  -8.009  0.00  0.00    +0.008 A 
ATOM     23  C   UNL     1       5.791  -2.681  -8.848  0.00  0.00    +0.020 A 
ATOM     24  C   UNL     1       6.627  -3.783  -8.842  0.00  0.00    +0.111 A 
ATOM     25  N   UNL     1       7.680  -3.825  -8.050  0.00  0.00    -0.263 NA
ATOM     26  C   UNL     1       7.981  -2.826  -7.243  0.00  0.00    +0.115 A 
ENDBRANCH  20  21
ENDBRANCH  18  20
ENDBRANCH   3  16
BRANCH   1  27
ATOM     27  N   UNL     1       3.098   1.061  -1.403  0.00  0.00    -0.310 NA
ATOM     28  H   UNL     1       2.453   0.578  -2.152  0.00  0.00    +0.122 HD
BRANCH  27  29
ATOM     29  C   UNL     1       2.441   1.016  -0.089  0.00  0.00    +0.128 C 
BRANCH  29  31
ATOM     30  C   UNL     1      -0.013   1.076   0.008  0.00  0.00    +0.024 C 
ATOM     31  C   UNL     1       1.123   1.742  -0.161  0.00  0.00    +0.033 C 
ATOM     32 CL   UNL     1       1.089   3.451  -0.466  0.00  0.00    -0.087 Cl
BRANCH  30  36
ATOM     33  C   UNL     1      -3.694   3.179   0.253  0.00  0.00    +0.000 A 
ATOM     34  C   UNL     1      -3.656   1.921  -0.322  0.00  0.00    +0.001 A 
ATOM     35  C   UNL     1      -2.464   1.233  -0.405  0.00  0.00    +0.008 A 
ATOM     36  C   UNL     1      -1.294   1.808   0.093  0.00  0.00    -0.024 A 
ATOM     37  C   UNL     1      -1.339   3.075   0.676  0.00  0.00    +0.008 A 
ATOM     38  C   UNL     1      -2.538   3.755   0.748  0.00  0.00    +0.001 A 
ENDBRANCH  30  36
ENDBRANCH  29  31
ENDBRANCH  27  29
ENDBRANCH   1  27
TORSDOF 8
