REMARK  Name = ZINC36643167
REMARK  11 active torsions:
REMARK  status: ('A' for Active; 'I' for Inactive)
REMARK    1  A    between atoms: C_1  and  C_2
REMARK    2  A    between atoms: N_11  and  C_12
REMARK    3  A    between atoms: C_12  and  C_13
REMARK    4  A    between atoms: C_13  and  C_14
REMARK    5  A    between atoms: C_14  and  N_15
REMARK    6  A    between atoms: N_15  and  C_16
REMARK    7  A    between atoms: N_15  and  C_17
REMARK    8  A    between atoms: C_18  and  C_20
REMARK    9  A    between atoms: C_23  and  S_26
REMARK   10  A    between atoms: S_26  and  N_29
REMARK   11  A    between atoms: C_34  and  C_36
REMARK                            x       y       z     vdW  Elec       q    Type
REMARK                         _______ _______ _______ _____ _____    ______ ____
ROOT
ATOM      1  C   UNL     1       3.517   0.714   2.232  0.00  0.00    +0.044 C 
ATOM      2  C   UNL     1       3.075  -0.689   1.906  0.00  0.00    -0.049 A 
ATOM      3  C   UNL     1       2.844  -1.063   0.590  0.00  0.00    +0.005 A 
ATOM      4  C   UNL     1       2.441  -2.332   0.266  0.00  0.00    +0.029 A 
ATOM      5  C   UNL     1       2.248  -3.307   1.272  0.00  0.00    +0.080 A 
ATOM      6  C   UNL     1       2.493  -2.891   2.600  0.00  0.00    +0.041 A 
ATOM      7  C   UNL     1       2.901  -1.619   2.914  0.00  0.00    +0.020 A 
ATOM      8  S   UNL     1       2.147  -4.365   3.529  0.00  0.00    -0.052 S 
ATOM      9  C   UNL     1       1.713  -5.407   2.143  0.00  0.00    +0.168 A 
ATOM     10  N   UNL     1       1.858  -4.592   1.124  0.00  0.00    -0.224 NA
ATOM     11  N   UNL     1       1.323  -6.735   2.144  0.00  0.00    -0.246 N 
ATOM     12  C   UNL     1       1.232  -7.410   3.307  0.00  0.00    +0.252 C 
ATOM     13  O   UNL     1       1.438  -6.838   4.359  0.00  0.00    -0.270 OA
ENDROOT
BRANCH  12  14
ATOM     14  C   UNL     1       0.882  -8.846   3.302  0.00  0.00    +0.037 A 
ATOM     15  C   UNL     1       1.413  -9.694   2.329  0.00  0.00    +0.015 A 
ATOM     16  C   UNL     1       1.083 -11.034   2.331  0.00  0.00    +0.029 A 
ATOM     17  C   UNL     1       0.226 -11.537   3.294  0.00  0.00    +0.106 A 
ATOM     18  C   UNL     1      -0.304 -10.701   4.261  0.00  0.00    +0.029 A 
ATOM     19  C   UNL     1       0.023  -9.361   4.275  0.00  0.00    +0.015 A 
BRANCH  17  20
ATOM     20  S   UNL     1      -0.192 -13.248   3.288  0.00  0.00    +0.061 S 
ATOM     21  O   UNL     1      -1.504 -13.348   3.823  0.00  0.00    -0.153 OA
ATOM     22  O   UNL     1       0.145 -13.744   2.000  0.00  0.00    -0.153 OA
BRANCH  20  23
ATOM     23  N   UNL     1       0.816 -14.002   4.364  0.00  0.00    -0.174 NA
ATOM     24  C   UNL     1       0.366 -14.296   5.732  0.00  0.00    +0.110 C 
ATOM     25  C   UNL     1       0.582 -15.787   6.012  0.00  0.00    +0.017 C 
ATOM     26  C   UNL     1       2.045 -16.146   5.740  0.00  0.00    +0.003 C 
ATOM     27  C   UNL     1       2.373 -15.878   4.270  0.00  0.00    +0.020 C 
ATOM     28  C   UNL     1       2.176 -14.394   3.968  0.00  0.00    +0.077 C 
ATOM     29  C   UNL     1       2.365 -14.148   2.470  0.00  0.00    +0.026 C 
ENDBRANCH  20  23
ENDBRANCH  17  20
ENDBRANCH  12  14
BRANCH  11  30
ATOM     30  C   UNL     1       1.009  -7.407   0.880  0.00  0.00    +0.114 C 
BRANCH  30  31
ATOM     31  C   UNL     1       2.306  -7.707   0.126  0.00  0.00    +0.001 C 
BRANCH  31  32
ATOM     32  C   UNL     1       1.992  -8.545  -1.115  0.00  0.00    -0.078 C 
BRANCH  32  33
ATOM     33  N   UNL     1       3.238  -8.833  -1.839  0.00  0.00    +0.376 N 
ATOM     34  C   UNL     1       2.953  -9.736  -2.962  0.00  0.00    -0.097 C 
ATOM     35  C   UNL     1       3.808  -7.579  -2.350  0.00  0.00    -0.097 C 
ATOM     36  H   UNL     1       3.897  -9.271  -1.214  0.00  0.00    -0.083 HD
ENDBRANCH  32  33
ENDBRANCH  31  32
ENDBRANCH  30  31
ENDBRANCH  11  30
TORSDOF 7
