REMARK  Name = ZINC38636166
REMARK  10 active torsions:
REMARK  status: ('A' for Active; 'I' for Inactive)
REMARK    1  A    between atoms: C_1  and  C_2
REMARK    2  A    between atoms: C_4  and  S_10
REMARK    3  A    between atoms: S_10  and  N_13
REMARK    4  A    between atoms: N_13  and  C_14
REMARK    5  A    between atoms: C_14  and  C_15
REMARK    6  A    between atoms: C_15  and  C_17
REMARK    7  A    between atoms: C_15  and  N_26
REMARK    8  A    between atoms: C_20  and  N_23
REMARK    9  A    between atoms: N_23  and  C_24
REMARK   10  A    between atoms: N_23  and  C_25
REMARK                            x       y       z     vdW  Elec       q    Type
REMARK                         _______ _______ _______ _____ _____    ______ ____
ROOT
ATOM      1  C   UNL     1       3.001  -5.653  -2.292  0.00  0.00    -0.022 C 
ENDROOT
BRANCH   1   2
ATOM      2  C   UNL     1       3.319  -6.750  -1.310  0.00  0.00    -0.060 A 
ATOM      3  C   UNL     1       4.046  -6.465  -0.169  0.00  0.00    +0.004 A 
ATOM      4  C   UNL     1       4.340  -7.468   0.734  0.00  0.00    +0.023 A 
ATOM      5  C   UNL     1       3.904  -8.765   0.494  0.00  0.00    +0.029 A 
ATOM      6  C   UNL     1       3.173  -9.048  -0.653  0.00  0.00    +0.023 A 
ATOM      7  C   UNL     1       2.878  -8.039  -1.548  0.00  0.00    +0.004 A 
BRANCH   5   8
ATOM      8  N   UNL     1       4.199  -9.782   1.405  0.00  0.00    -0.336 N 
ATOM      9  C   UNL     1       4.970  -9.482   2.614  0.00  0.00    +0.129 C 
ATOM     10  C   UNL     1       3.738 -11.149   1.151  0.00  0.00    +0.129 C 
ENDBRANCH   5   8
ENDBRANCH   1   2
BRANCH   1  11
ATOM     11  N   UNL     1       4.170  -4.776  -2.443  0.00  0.00    +0.385 N 
ATOM     12  C   UNL     1       5.305  -5.532  -3.030  0.00  0.00    -0.078 C 
ATOM     13  C   UNL     1       6.199  -4.419  -3.632  0.00  0.00    -0.020 C 
ATOM     14  C   UNL     1       5.168  -3.407  -4.182  0.00  0.00    -0.020 C 
ATOM     15  C   UNL     1       3.872  -3.688  -3.400  0.00  0.00    -0.078 C 
ATOM     16  H   UNL     1       4.433  -4.390  -1.548  0.00  0.00    -0.081 HD
ENDBRANCH   1  11
BRANCH   1  17
ATOM     17  C   UNL     1       1.813  -4.836  -1.778  0.00  0.00    +0.095 C 
BRANCH  17  18
ATOM     18  N   UNL     1       0.613  -5.676  -1.762  0.00  0.00    -0.191 NA
ATOM     19  H   UNL     1       0.598  -6.510  -2.258  0.00  0.00    +0.148 HD
BRANCH  18  20
ATOM     20  S   UNL     1      -0.718  -5.202  -0.899  0.00  0.00    +0.060 S 
ATOM     21  O   UNL     1      -0.256  -4.840   0.395  0.00  0.00    -0.153 OA
ATOM     22  O   UNL     1      -1.710  -6.199  -1.103  0.00  0.00    -0.153 OA
BRANCH  20  26
ATOM     23  C   UNL     1      -4.403  -2.554  -3.493  0.00  0.00    +0.045 C 
ATOM     24  C   UNL     1      -3.047  -2.562  -2.836  0.00  0.00    -0.030 A 
ATOM     25  C   UNL     1      -2.569  -3.719  -2.250  0.00  0.00    +0.034 A 
ATOM     26  C   UNL     1      -1.326  -3.727  -1.647  0.00  0.00    +0.124 A 
ATOM     27  C   UNL     1      -0.558  -2.575  -1.630  0.00  0.00    +0.069 A 
ATOM     28  C   UNL     1      -1.035  -1.417  -2.217  0.00  0.00    +0.042 A 
ATOM     29  C   UNL     1      -2.278  -1.412  -2.824  0.00  0.00    +0.045 A 
ATOM     30 CL   UNL     1      -2.875   0.040  -3.566  0.00  0.00    -0.083 Cl
ATOM     31 CL   UNL     1       1.004  -2.585  -0.872  0.00  0.00    -0.081 Cl
ENDBRANCH  20  26
ENDBRANCH  18  20
ENDBRANCH  17  18
ENDBRANCH   1  17
TORSDOF 7
