REMARK  Name = ZINC08020486
REMARK  4 active torsions:
REMARK  status: ('A' for Active; 'I' for Inactive)
REMARK    1  A    between atoms: C_4  and  C_7
REMARK    2  A    between atoms: C_7  and  C_8
REMARK    3  A    between atoms: C_8  and  N_9
REMARK    4  A    between atoms: C_10  and  C_12
REMARK                            x       y       z     vdW  Elec       q    Type
REMARK                         _______ _______ _______ _____ _____    ______ ____
ROOT
ATOM      1  C   UNL     1      -0.013   1.086   0.008  0.00  0.00    +0.122 C 
ATOM      2  C   UNL     1      -0.984   2.241  -0.246  0.00  0.00    +0.114 C 
ATOM      3  C   UNL     1      -2.356   1.693  -0.537  0.00  0.00    +0.219 C 
ATOM      4  O   UNL     1      -3.335   2.276  -0.121  0.00  0.00    -0.275 OA
ATOM      5  N   UNL     1      -2.507   0.565  -1.252  0.00  0.00    -0.270 N 
ATOM      6  C   UNL     1      -1.409  -0.178  -1.649  0.00  0.00    +0.138 A 
ATOM      7  C   UNL     1      -0.173   0.048  -1.070  0.00  0.00    +0.069 A 
ATOM      8  C   UNL     1       0.927  -0.701  -1.502  0.00  0.00    +0.258 A 
ATOM      9  O   UNL     1       2.034  -0.516  -1.020  0.00  0.00    -0.267 OA
ATOM     10  N   UNL     1       0.740  -1.632  -2.462  0.00  0.00    -0.295 N 
ATOM     11  H   UNL     1       1.516  -2.168  -2.796  0.00  0.00    +0.172 HD
ATOM     12  C   UNL     1      -0.503  -1.841  -2.974  0.00  0.00    +0.195 A 
ATOM     13  N   UNL     1      -1.540  -1.136  -2.573  0.00  0.00    -0.201 NA
ATOM     14  N   UNL     1      -0.679  -2.807  -3.929  0.00  0.00    -0.329 N 
ATOM     15  H   UNL     1      -3.398   0.268  -1.493  0.00  0.00    +0.156 HD
ATOM     16  H   UNL     1      -1.561  -2.965  -4.301  0.00  0.00    +0.145 HD
ATOM     17  H   UNL     1       0.077  -3.333  -4.232  0.00  0.00    +0.145 HD
ENDROOT
BRANCH   1  19
ATOM     18  N   UNL     1       2.214   1.372   1.046  0.00  0.00    -0.314 N 
ATOM     19  C   UNL     1       1.401   1.607  -0.003  0.00  0.00    +0.221 C 
ATOM     20  O   UNL     1       1.808   2.239  -0.955  0.00  0.00    -0.275 OA
ATOM     21  H   UNL     1       1.889   0.867   1.808  0.00  0.00    +0.149 HD
BRANCH  18  22
ATOM     22  C   UNL     1       3.589   1.879   1.036  0.00  0.00    +0.109 C 
BRANCH  22  23
ATOM     23  C   UNL     1       4.290   1.476   2.334  0.00  0.00    +0.054 C 
BRANCH  23  27
ATOM     24  C   UNL     1       8.299   2.953   2.305  0.00  0.00    +0.000 A 
ATOM     25  C   UNL     1       7.279   3.730   2.824  0.00  0.00    +0.000 A 
ATOM     26  C   UNL     1       5.982   3.252   2.834  0.00  0.00    +0.004 A 
ATOM     27  C   UNL     1       5.704   1.997   2.324  0.00  0.00    -0.046 A 
ATOM     28  C   UNL     1       6.724   1.219   1.809  0.00  0.00    +0.004 A 
ATOM     29  C   UNL     1       8.020   1.699   1.794  0.00  0.00    +0.000 A 
ENDBRANCH  23  27
ENDBRANCH  22  23
ENDBRANCH  18  22
ENDBRANCH   1  19
TORSDOF 4
