REMARK  Name = ZINC29494152
REMARK  10 active torsions:
REMARK  status: ('A' for Active; 'I' for Inactive)
REMARK    1  A    between atoms: C_1  and  C_2
REMARK    2  A    between atoms: C_2  and  N_3
REMARK    3  A    between atoms: N_3  and  C_4
REMARK    4  A    between atoms: C_4  and  C_5
REMARK    5  A    between atoms: N_7  and  C_8
REMARK    6  A    between atoms: C_8  and  C_9
REMARK    7  A    between atoms: C_14  and  C_16
REMARK    8  A    between atoms: C_16  and  S_17
REMARK    9  A    between atoms: S_17  and  C_18
REMARK   10  A    between atoms: N_19  and  C_20
REMARK                            x       y       z     vdW  Elec       q    Type
REMARK                         _______ _______ _______ _____ _____    ______ ____
ROOT
ATOM      1  N   UNL     1       5.833  -0.301  -3.231  0.00  0.00    -0.292 N 
ATOM      2  C   UNL     1       6.207  -1.596  -3.190  0.00  0.00    +0.226 C 
ATOM      3  O   UNL     1       5.366  -2.469  -3.160  0.00  0.00    -0.275 OA
ENDROOT
BRANCH   1   5
ATOM      4  C   UNL     1       7.207   1.167  -1.839  0.00  0.00    +0.024 C 
ATOM      5  C   UNL     1       6.850   0.753  -3.268  0.00  0.00    +0.105 C 
ENDBRANCH   1   5
BRANCH   1   6
ATOM      6  C   UNL     1       4.412   0.051  -3.238  0.00  0.00    +0.203 C 
BRANCH   6   7
ATOM      7  C   UNL     1       3.928   0.217  -1.821  0.00  0.00    +0.231 C 
ATOM      8  O   UNL     1       4.695   0.058  -0.895  0.00  0.00    -0.274 OA
ATOM      9  N   UNL     1       2.642   0.544  -1.581  0.00  0.00    -0.309 N 
ATOM     10  H   UNL     1       1.946   0.689  -2.421  0.00  0.00    +0.149 HD
BRANCH   9  11
ATOM     11  C   UNL     1       2.172   0.706  -0.203  0.00  0.00    +0.146 C 
BRANCH  11  12
ATOM     12  C   UNL     1       0.709   1.068  -0.211  0.00  0.00    +0.007 A 
ATOM     13  C   UNL     1      -0.373   0.252  -0.182  0.00  0.00    +0.013 A 
ATOM     14  C   UNL     1      -1.636   0.812  -0.202  0.00  0.00    +0.008 A 
ATOM     15  C   UNL     1      -1.756   2.162  -0.239  0.00  0.00    +0.045 A 
ATOM     16  S   UNL     1      -0.049   2.684  -0.261  0.00  0.00    -0.100 S 
ENDBRANCH  11  12
ENDBRANCH   9  11
ENDBRANCH   6   7
ENDBRANCH   1   6
BRANCH   2  17
ATOM     17  C   UNL     1       7.670  -1.958  -3.182  0.00  0.00    +0.173 C 
BRANCH  17  18
ATOM     18  S   UNL     1       7.845  -3.759  -3.125  0.00  0.00    -0.084 S 
BRANCH  18  19
ATOM     19  C   UNL     1       9.602  -3.895  -3.125  0.00  0.00    +0.126 C 
ATOM     20  N   UNL     1      10.339  -2.820  -3.162  0.00  0.00    -0.365 N 
ATOM     21  N   UNL     1      10.195  -5.136  -3.087  0.00  0.00    -0.339 N 
ATOM     22  H   UNL     1      11.292  -5.221  -3.087  0.00  0.00    +0.144 HD
ATOM     23  H   UNL     1       9.573  -6.042  -3.056  0.00  0.00    +0.144 HD
ATOM     24  H   UNL     1       9.870  -1.828  -3.088  0.00  0.00    +0.162 HD
BRANCH  20  25
ATOM     25  C   UNL     1      11.793  -2.934  -3.301  0.00  0.00    +0.081 C 
ATOM     26  C   UNL     1      12.468  -2.442  -2.019  0.00  0.00    +0.024 C 
ATOM     27  C   UNL     1      13.987  -2.561  -2.164  0.00  0.00    +0.002 C 
ATOM     28  C   UNL     1      14.454  -1.709  -3.346  0.00  0.00    +0.000 C 
ATOM     29  C   UNL     1      13.779  -2.201  -4.628  0.00  0.00    +0.002 C 
ATOM     30  C   UNL     1      12.261  -2.083  -4.483  0.00  0.00    +0.024 C 
ENDBRANCH  20  25
ENDBRANCH  18  19
ENDBRANCH  17  18
ENDBRANCH   2  17
TORSDOF 9
