REMARK  Name = ZINC15931950
REMARK  6 active torsions:
REMARK  status: ('A' for Active; 'I' for Inactive)
REMARK    1  A    between atoms: C_1  and  O_2
REMARK    2  A    between atoms: O_2  and  C_3
REMARK    3  A    between atoms: C_8  and  C_9
REMARK    4  A    between atoms: N_15  and  C_16
REMARK    5  A    between atoms: C_19  and  S_22
REMARK    6  A    between atoms: S_22  and  N_25
REMARK                            x       y       z     vdW  Elec       q    Type
REMARK                         _______ _______ _______ _____ _____    ______ ____
ROOT
ATOM      1  C   UNL     1     -10.225  -2.579  -2.830  0.00  0.00    +0.032 C 
ATOM      2  C   UNL     1      -8.977  -2.369  -2.337  0.00  0.00    +0.078 C 
ATOM      3  C   UNL     1      -8.035  -1.268  -2.612  0.00  0.00    +0.256 C 
ATOM      4  O   UNL     1      -8.317  -0.365  -3.378  0.00  0.00    -0.269 OA
ATOM      5  N   UNL     1      -6.869  -1.307  -1.988  0.00  0.00    -0.260 N 
ATOM      6  C   UNL     1      -6.568  -2.337  -1.125  0.00  0.00    +0.166 C 
ATOM      7  N   UNL     1      -5.468  -2.527  -0.431  0.00  0.00    -0.226 NA
ATOM      8  S   UNL     1      -8.033  -3.356  -1.184  0.00  0.00    -0.049 S 
ATOM      9  H   UNL     1      -6.220  -0.603  -2.141  0.00  0.00    +0.157 HD
ENDROOT
BRANCH   1  15
ATOM     10  C   UNL     1     -12.311  -3.933  -2.719  0.00  0.00    +0.127 A 
ATOM     11  C   UNL     1     -12.956  -5.133  -2.464  0.00  0.00    +0.047 A 
ATOM     12  C   UNL     1     -12.233  -6.231  -2.039  0.00  0.00    +0.019 A 
ATOM     13  C   UNL     1     -10.860  -6.146  -1.870  0.00  0.00    +0.019 A 
ATOM     14  C   UNL     1     -10.200  -4.963  -2.126  0.00  0.00    +0.026 A 
ATOM     15  C   UNL     1     -10.919  -3.842  -2.557  0.00  0.00    +0.019 A 
ATOM     16 BR   UNL     1      -9.887  -7.660  -1.289  0.00  0.00    -0.050 Br
BRANCH  10  18
ATOM     17  C   UNL     1     -14.434  -3.019  -3.274  0.00  0.00    +0.277 C 
ATOM     18  O   UNL     1     -13.022  -2.852  -3.131  0.00  0.00    -0.495 OA
ENDBRANCH  10  18
ENDBRANCH   1  15
BRANCH   7  19
ATOM     19  C   UNL     1      -4.439  -1.631  -0.521  0.00  0.00    +0.067 A 
ATOM     20  C   UNL     1      -3.789  -1.190   0.634  0.00  0.00    +0.030 A 
ATOM     21  C   UNL     1      -2.752  -0.286   0.536  0.00  0.00    +0.030 A 
ATOM     22  C   UNL     1      -2.355   0.184  -0.704  0.00  0.00    +0.105 A 
ATOM     23  C   UNL     1      -2.998  -0.244  -1.852  0.00  0.00    +0.030 A 
ATOM     24  C   UNL     1      -4.033  -1.151  -1.769  0.00  0.00    +0.030 A 
BRANCH  22  25
ATOM     25  S   UNL     1      -1.029   1.339  -0.820  0.00  0.00    +0.056 S 
ATOM     26  O   UNL     1      -0.956   2.001   0.435  0.00  0.00    -0.153 OA
ATOM     27  O   UNL     1      -1.208   2.041  -2.042  0.00  0.00    -0.153 OA
BRANCH  25  28
ATOM     28  N   UNL     1       0.369   0.466  -0.976  0.00  0.00    -0.204 NA
ATOM     29  H   UNL     1       0.337  -0.504  -0.988  0.00  0.00    +0.144 HD
ATOM     30  H   UNL     1       1.220   0.923  -1.059  0.00  0.00    +0.144 HD
ENDBRANCH  25  28
ENDBRANCH  22  25
ENDBRANCH   7  19
TORSDOF 5
