REMARK  Name = ZINC01051143
REMARK  4 active torsions:
REMARK  status: ('A' for Active; 'I' for Inactive)
REMARK    1  A    between atoms: C_3  and  C_8
REMARK    2  A    between atoms: C_13  and  N_22
REMARK    3  A    between atoms: C_17  and  N_21
REMARK    4  A    between atoms: C_18  and  C_19
REMARK                            x       y       z     vdW  Elec       q    Type
REMARK                         _______ _______ _______ _____ _____    ______ ____
ROOT
ATOM      1  C   UNL     1       3.663   2.210  -0.018  0.00  0.00    +0.098 C 
ATOM      2  C   UNL     1       2.380   1.421  -0.012  0.00  0.00    +0.008 A 
ATOM      3  C   UNL     1       1.170   2.091   0.002  0.00  0.00    +0.010 A 
ATOM      4  C   UNL     1      -0.017   1.386   0.010  0.00  0.00    +0.023 A 
ATOM      5  C   UNL     1       0.002  -0.004   0.002  0.00  0.00    +0.028 A 
ATOM      6  C   UNL     1       1.214  -0.678  -0.013  0.00  0.00    +0.069 A 
ATOM      7  C   UNL     1       2.406   0.035  -0.020  0.00  0.00    +0.136 A 
ATOM      8  O   UNL     1       3.582  -0.639  -0.035  0.00  0.00    -0.441 OA
ATOM      9  C   UNL     1       4.707  -0.016  -0.424  0.00  0.00    +0.199 C 
ATOM     10  C   UNL     1       4.810   1.334  -0.438  0.00  0.00    +0.098 C 
ENDROOT
BRANCH   1  13
ATOM     11  C   UNL     1       4.313   2.365   3.698  0.00  0.00    +0.001 A 
ATOM     12  C   UNL     1       4.066   1.874   2.430  0.00  0.00    +0.004 A 
ATOM     13  C   UNL     1       3.925   2.746   1.366  0.00  0.00    -0.034 A 
ATOM     14  C   UNL     1       4.019   4.109   1.573  0.00  0.00    +0.019 A 
ATOM     15  C   UNL     1       4.260   4.601   2.843  0.00  0.00    +0.014 A 
ATOM     16  C   UNL     1       4.407   3.728   3.906  0.00  0.00    +0.014 A 
ATOM     17  I   UNL     1       4.402   6.668   3.157  0.00  0.00    -0.044 I 
ENDBRANCH   1  13
BRANCH   9  18
ATOM     18  N   UNL     1       5.785  -0.770  -0.817  0.00  0.00    -0.328 N 
ATOM     19  H   UNL     1       6.604  -0.334  -1.100  0.00  0.00    +0.145 HD
ATOM     20  H   UNL     1       5.727  -1.738  -0.812  0.00  0.00    +0.145 HD
ENDBRANCH   9  18
BRANCH   5  21
ATOM     21  N   UNL     1      -1.197  -0.720   0.010  0.00  0.00    -0.358 N 
ATOM     22  H   UNL     1      -2.044  -0.248   0.021  0.00  0.00    +0.142 HD
ATOM     23  H   UNL     1      -1.183  -1.690   0.005  0.00  0.00    +0.142 HD
ENDBRANCH   5  21
BRANCH  10  24
ATOM     24  C   UNL     1       6.036   1.940  -0.863  0.00  0.00    +0.101 C 
ATOM     25  N   UNL     1       7.008   2.421  -1.200  0.00  0.00    -0.191 NA
ENDBRANCH  10  24
TORSDOF 4
