REMARK  Name = ZINC13064261
REMARK  11 active torsions:
REMARK  status: ('A' for Active; 'I' for Inactive)
REMARK    1  A    between atoms: C_1  and  C_2
REMARK    2  A    between atoms: C_2  and  C_3
REMARK    3  A    between atoms: C_3  and  C_5
REMARK    4  A    between atoms: C_3  and  N_70
REMARK    5  A    between atoms: N_9  and  C_10
REMARK    6  A    between atoms: C_16  and  C_17
REMARK    7  A    between atoms: C_16  and  N_70
REMARK    8  A    between atoms: C_24  and  C_25
REMARK    9  A    between atoms: C_24  and  N_70
REMARK   10  A    between atoms: C_30  and  O_37
REMARK   11  A    between atoms: O_37  and  C_38
REMARK                            x       y       z     vdW  Elec       q    Type
REMARK                         _______ _______ _______ _____ _____    ______ ____
ROOT
ATOM      1  N   UNL     1      -8.592  -1.786   4.124  0.00  0.00    +0.392 N 
ATOM      2  H   UNL     1      -8.261  -2.056   5.058  0.00  0.00    -0.080 HD
ENDROOT
BRANCH   1   3
ATOM      3  C   UNL     1     -10.063  -1.647   4.158  0.00  0.00    +0.003 C 
BRANCH   3   4
ATOM      4  C   UNL     1     -10.462  -1.073   5.493  0.00  0.00    +0.138 A 
ATOM      5  N   UNL     1      -9.929  -0.035   6.089  0.00  0.00    -0.115 NA
ATOM      6  N   UNL     1     -10.542   0.139   7.209  0.00  0.00    -0.023 NA
ATOM      7  N   UNL     1     -11.452  -0.761   7.343  0.00  0.00    -0.044 NA
ATOM      8  N   UNL     1     -11.438  -1.525   6.303  0.00  0.00    -0.228 N 
BRANCH   8   9
ATOM      9  C   UNL     1     -12.316  -2.670   6.052  0.00  0.00    +0.111 C 
ATOM     10  C   UNL     1     -13.759  -2.184   5.905  0.00  0.00    +0.027 C 
ATOM     11  C   UNL     1     -14.676  -3.380   5.643  0.00  0.00    +0.002 C 
ATOM     12  C   UNL     1     -14.585  -4.359   6.815  0.00  0.00    +0.000 C 
ATOM     13  C   UNL     1     -13.143  -4.845   6.963  0.00  0.00    +0.002 C 
ATOM     14  C   UNL     1     -12.225  -3.649   7.225  0.00  0.00    +0.027 C 
ENDBRANCH   8   9
ENDBRANCH   3   4
BRANCH   3  16
ATOM     15  C   UNL     1     -10.270  -1.369   1.684  0.00  0.00    +0.002 C 
ATOM     16  C   UNL     1     -10.538  -0.716   3.041  0.00  0.00    -0.011 C 
ENDBRANCH   3  16
ENDBRANCH   1   3
BRANCH   1  17
ATOM     17  C   UNL     1      -8.206  -2.834   3.156  0.00  0.00    -0.042 C 
BRANCH  17  18
ATOM     18  C   UNL     1      -8.514  -4.182   3.754  0.00  0.00    -0.064 A 
ATOM     19  C   UNL     1      -7.611  -4.779   4.614  0.00  0.00    +0.004 A 
ATOM     20  C   UNL     1      -7.895  -6.013   5.167  0.00  0.00    +0.038 A 
ATOM     21  C   UNL     1      -9.079  -6.657   4.851  0.00  0.00    +0.123 A 
ATOM     22  C   UNL     1      -9.981  -6.061   3.985  0.00  0.00    +0.038 A 
ATOM     23  C   UNL     1      -9.697  -4.824   3.437  0.00  0.00    +0.004 A 
ATOM     24  F   UNL     1      -9.356  -7.866   5.387  0.00  0.00    -0.205 F 
ENDBRANCH  17  18
ENDBRANCH   1  17
BRANCH   1  25
ATOM     25  C   UNL     1      -7.972  -0.498   3.749  0.00  0.00    -0.036 C 
BRANCH  25  26
ATOM     26  C   UNL     1      -6.502  -0.555   4.077  0.00  0.00    +0.001 A 
ATOM     27  C   UNL     1      -5.607  -0.889   3.113  0.00  0.00    +0.017 A 
ATOM     28  C   UNL     1      -4.188  -0.935   3.464  0.00  0.00    -0.001 A 
ATOM     29  C   UNL     1      -3.218  -1.272   2.511  0.00  0.00    +0.013 A 
ATOM     30  C   UNL     1      -1.901  -1.302   2.865  0.00  0.00    +0.046 A 
ATOM     31  C   UNL     1      -1.513  -1.010   4.172  0.00  0.00    +0.122 A 
ATOM     32  C   UNL     1      -2.455  -0.673   5.128  0.00  0.00    +0.072 A 
ATOM     33  C   UNL     1      -3.800  -0.633   4.784  0.00  0.00    +0.053 A 
ATOM     34  N   UNL     1      -4.761  -0.300   5.716  0.00  0.00    -0.322 N 
ATOM     35  H   UNL     1      -4.493  -0.093   6.625  0.00  0.00    +0.169 HD
ATOM     36  C   UNL     1      -6.063  -0.261   5.384  0.00  0.00    +0.251 A 
ATOM     37  O   UNL     1      -6.885   0.035   6.234  0.00  0.00    -0.268 OA
BRANCH  31  38
ATOM     38  O   UNL     1      -0.198  -1.050   4.508  0.00  0.00    -0.495 OA
ATOM     39  C   UNL     1       0.725  -1.404   3.476  0.00  0.00    +0.277 C 
ENDBRANCH  31  38
ENDBRANCH  25  26
ENDBRANCH   1  25
TORSDOF 9
