REMARK  Name = ZINC14467018
REMARK  3 active torsions:
REMARK  status: ('A' for Active; 'I' for Inactive)
REMARK    1  A    between atoms: C_6  and  C_7
REMARK    2  A    between atoms: C_17  and  C_20
REMARK    3  A    between atoms: C_25  and  O_26
REMARK                            x       y       z     vdW  Elec       q    Type
REMARK                         _______ _______ _______ _____ _____    ______ ____
ROOT
ATOM      1  C   UNL     1       1.069  -0.593   0.013  0.00  0.00    +0.015 A 
ATOM      2  C   UNL     1       2.271   0.076  -0.002  0.00  0.00    +0.024 A 
ATOM      3  C   UNL     1       2.297   1.469  -0.003  0.00  0.00    +0.031 A 
ATOM      4  C   UNL     1       1.117   2.199   0.012  0.00  0.00    -0.019 A 
ATOM      5  C   UNL     1      -0.092   1.528   0.025  0.00  0.00    +0.019 A 
ATOM      6  C   UNL     1      -0.125   0.133   0.026  0.00  0.00    +0.037 A 
ATOM      7  C   UNL     1       1.086   3.713   0.009  0.00  0.00    +0.049 C 
ATOM      8  C   UNL     1       0.352   4.141   1.273  0.00  0.00    -0.023 C 
ATOM      9  C   UNL     1       1.206   4.409   2.229  0.00  0.00    -0.030 C 
ATOM     10  C   UNL     1       2.639   4.215   1.742  0.00  0.00    +0.033 C 
ATOM     11  C   UNL     1       2.489   4.315   0.206  0.00  0.00    +0.029 C 
ATOM     12  C   UNL     1       3.562   3.508  -0.500  0.00  0.00    +0.109 C 
ATOM     13  N   UNL     1       3.528   2.122  -0.022  0.00  0.00    -0.336 N 
ATOM     14  H   UNL     1       4.337   1.674   0.272  0.00  0.00    +0.147 HD
ENDROOT
BRANCH  12  15
ATOM     15  C   UNL     1       3.311   3.532  -1.986  0.00  0.00    +0.017 A 
ATOM     16  C   UNL     1       2.741   2.438  -2.609  0.00  0.00    +0.029 A 
ATOM     17  C   UNL     1       2.506   2.461  -3.972  0.00  0.00    +0.043 A 
ATOM     18  C   UNL     1       2.850   3.575  -4.717  0.00  0.00    +0.043 A 
ATOM     19  C   UNL     1       3.426   4.669  -4.099  0.00  0.00    +0.084 A 
ATOM     20  C   UNL     1       3.657   4.650  -2.730  0.00  0.00    +0.140 A 
ATOM     21 CL   UNL     1       3.858   6.067  -5.034  0.00  0.00    -0.080 Cl
ATOM     22 CL   UNL     1       1.782   1.088  -4.750  0.00  0.00    -0.083 Cl
BRANCH  20  23
ATOM     23  O   UNL     1       4.223   5.725  -2.120  0.00  0.00    -0.505 OA
ATOM     24  H   UNL     1       5.189   5.694  -2.084  0.00  0.00    +0.292 HD
ENDBRANCH  20  23
ENDBRANCH  12  15
BRANCH   6  25
ATOM     25  C   UNL     1      -1.419  -0.575   0.039  0.00  0.00    +0.242 C 
ATOM     26  O   UNL     1      -2.458   0.057   0.049  0.00  0.00    -0.270 OA
ATOM     27  N   UNL     1      -1.450  -1.923   0.040  0.00  0.00    -0.325 N 
ATOM     28  H   UNL     1      -0.621  -2.427   0.032  0.00  0.00    +0.145 HD
ATOM     29  H   UNL     1      -2.301  -2.388   0.049  0.00  0.00    +0.145 HD
ENDBRANCH   6  25
TORSDOF 3
