REMARK  Name = ZINC13009445
REMARK  15 active torsions:
REMARK  status: ('A' for Active; 'I' for Inactive)
REMARK    1  A    between atoms: C_1  and  C_2
REMARK    2  A    between atoms: C_2  and  C_3
REMARK    3  A    between atoms: C_3  and  C_4
REMARK    4  A    between atoms: C_4  and  N_5
REMARK    5  A    between atoms: C_6  and  N_38
REMARK    6  A    between atoms: C_7  and  N_14
REMARK    7  A    between atoms: N_14  and  C_15
REMARK    8  A    between atoms: C_15  and  C_16
REMARK    9  A    between atoms: C_16  and  C_17
REMARK   10  A    between atoms: C_16  and  C_18
REMARK   11  A    between atoms: C_19  and  C_21
REMARK   12  A    between atoms: C_21  and  N_22
REMARK   13  A    between atoms: C_27  and  C_34
REMARK   14  A    between atoms: C_30  and  C_32
REMARK   15  A    between atoms: C_30  and  C_33
REMARK                            x       y       z     vdW  Elec       q    Type
REMARK                         _______ _______ _______ _____ _____    ______ ____
ROOT
ATOM      1  N   UNL     1       4.590  -3.988   3.935  0.00  0.00    -0.263 N 
ATOM      2  C   UNL     1       5.263  -3.600   2.831  0.00  0.00    +0.238 C 
ATOM      3  O   UNL     1       4.654  -3.280   1.831  0.00  0.00    -0.274 OA
ENDROOT
BRANCH   1   6
ATOM      4  N   UNL     1       1.153  -2.692   3.832  0.00  0.00    -0.280 N 
ATOM      5  C   UNL     1       2.528  -2.721   3.802  0.00  0.00    +0.127 A 
ATOM      6  C   UNL     1       3.181  -3.926   3.961  0.00  0.00    +0.140 A 
ATOM      7  C   UNL     1       2.416  -5.093   4.148  0.00  0.00    +0.277 A 
ATOM      8  O   UNL     1       2.967  -6.172   4.290  0.00  0.00    -0.266 OA
ATOM      9  N   UNL     1       1.072  -5.011   4.168  0.00  0.00    -0.273 N 
ATOM     10  H   UNL     1       0.544  -5.814   4.298  0.00  0.00    +0.173 HD
ATOM     11  C   UNL     1       0.453  -3.826   4.018  0.00  0.00    +0.331 A 
ATOM     12  O   UNL     1      -0.762  -3.779   4.046  0.00  0.00    -0.246 OA
BRANCH   5  13
ATOM     13  N   UNL     1       3.244  -1.562   3.617  0.00  0.00    -0.343 N 
ATOM     14  H   UNL     1       2.781  -0.731   3.428  0.00  0.00    +0.144 HD
ATOM     15  H   UNL     1       4.212  -1.575   3.676  0.00  0.00    +0.144 HD
ENDBRANCH   5  13
BRANCH   4  16
ATOM     16  C   UNL     1       0.448  -1.420   3.665  0.00  0.00    +0.128 C 
BRANCH  16  17
ATOM     17  C   UNL     1       0.243  -0.767   5.034  0.00  0.00    +0.021 C 
BRANCH  17  19
ATOM     18  C   UNL     1      -0.700   1.215   6.228  0.00  0.00    +0.004 C 
ATOM     19  C   UNL     1      -0.494   0.562   4.859  0.00  0.00    -0.002 C 
ENDBRANCH  17  19
ENDBRANCH  16  17
ENDBRANCH   4  16
ENDBRANCH   1   6
BRANCH   1  20
ATOM     20  C   UNL     1       5.324  -4.474   5.106  0.00  0.00    +0.117 C 
BRANCH  20  21
ATOM     21  C   UNL     1       5.735  -3.286   5.979  0.00  0.00    +0.001 C 
ATOM     22  C   UNL     1       4.485  -2.622   6.559  0.00  0.00    +0.009 C 
ATOM     23  C   UNL     1       6.628  -3.777   7.120  0.00  0.00    +0.009 C 
ENDBRANCH  20  21
ENDBRANCH   1  20
BRANCH   2  24
ATOM     24  C   UNL     1       6.769  -3.565   2.840  0.00  0.00    +0.214 C 
BRANCH  24  25
ATOM     25  N   UNL     1       7.253  -3.055   1.556  0.00  0.00    -0.215 N 
ATOM     26  C   UNL     1       7.557  -3.833   0.493  0.00  0.00    +0.247 C 
ATOM     27  O   UNL     1       7.647  -5.041   0.489  0.00  0.00    -0.273 OA
ATOM     28  C   UNL     1       7.759  -2.877  -0.658  0.00  0.00    +0.113 C 
ATOM     29  C   UNL     1       9.071  -3.159  -1.375  0.00  0.00    +0.038 C 
ATOM     30  C   UNL     1       8.953  -4.444  -2.196  0.00  0.00    -0.011 C 
ATOM     31  C   UNL     1       7.871  -4.248  -3.256  0.00  0.00    +0.009 C 
ATOM     32  C   UNL     1       6.516  -3.980  -2.612  0.00  0.00    -0.032 C 
ATOM     33  C   UNL     1       6.566  -2.855  -1.592  0.00  0.00    +0.041 C 
ATOM     34  C   UNL     1       5.536  -3.567  -3.731  0.00  0.00    +0.011 C 
ATOM     35  C   UNL     1       5.973  -5.263  -1.976  0.00  0.00    +0.011 C 
ATOM     36  C   UNL     1      10.292  -4.729  -2.884  0.00  0.00    +0.007 C 
ATOM     37  N   UNL     1       7.857  -1.563   0.017  0.00  0.00    -0.285 N 
ATOM     38  C   UNL     1       7.476  -1.763   1.290  0.00  0.00    +0.310 C 
ATOM     39  O   UNL     1       7.348  -0.873   2.108  0.00  0.00    -0.252 OA
ATOM     40  H   UNL     1       8.140  -0.733  -0.392  0.00  0.00    +0.151 HD
ENDBRANCH  24  25
ENDBRANCH   2  24
TORSDOF 9
