REMARK  Name = ZINC39666212
REMARK  10 active torsions:
REMARK  status: ('A' for Active; 'I' for Inactive)
REMARK    1  A    between atoms: C_1  and  C_2
REMARK    2  A    between atoms: C_5  and  O_8
REMARK    3  A    between atoms: O_8  and  C_9
REMARK    4  A    between atoms: C_9  and  C_11
REMARK    5  A    between atoms: C_9  and  C_12
REMARK    6  A    between atoms: C_12  and  N_13
REMARK    7  A    between atoms: C_14  and  C_16
REMARK    8  A    between atoms: C_27  and  C_29
REMARK    9  A    between atoms: C_31  and  C_38
REMARK   10  A    between atoms: C_33  and  C_34
REMARK                            x       y       z     vdW  Elec       q    Type
REMARK                         _______ _______ _______ _____ _____    ______ ____
ROOT
ATOM      1  C   UNL     1       4.865  -6.274   0.644  0.00  0.00    +0.100 C 
ATOM      2  C   UNL     1       5.014  -5.594  -0.735  0.00  0.00    +0.121 C 
ATOM      3  N   UNL     1       6.317  -6.076  -1.251  0.00  0.00    -0.296 N 
ATOM      4  C   UNL     1       6.368  -7.502  -0.849  0.00  0.00    +0.115 C 
ATOM      5  C   UNL     1       5.754  -7.527   0.565  0.00  0.00    -0.004 C 
ATOM      6  C   UNL     1       4.913  -8.785   0.752  0.00  0.00    -0.010 C 
ATOM      7  C   UNL     1       5.827 -10.014   0.728  0.00  0.00    -0.082 C 
ATOM      8  N   UNL     1       6.825  -9.904   1.799  0.00  0.00    +0.379 N 
ATOM      9  C   UNL     1       7.690  -8.743   1.560  0.00  0.00    -0.082 C 
ATOM     10  C   UNL     1       6.855  -7.461   1.620  0.00  0.00    -0.010 C 
ATOM     11  C   UNL     1       7.246  -5.376  -1.932  0.00  0.00    +0.250 C 
ATOM     12  O   UNL     1       7.058  -4.201  -2.184  0.00  0.00    -0.270 OA
ATOM     13  H   UNL     1       6.355  -9.796   2.685  0.00  0.00    -0.086 HD
ATOM     14  H   UNL     1       7.387 -10.742   1.820  0.00  0.00    -0.086 HD
ENDROOT
BRANCH  11  15
ATOM     15  C   UNL     1       8.489  -6.034  -2.371  0.00  0.00    +0.087 A 
ATOM     16  C   UNL     1       8.797  -7.471  -2.329  0.00  0.00    +0.058 A 
ATOM     17  C   UNL     1      10.035  -7.598  -2.830  0.00  0.00    +0.103 A 
ATOM     18  O   UNL     1      10.500  -6.385  -3.167  0.00  0.00    -0.455 OA
ATOM     19  C   UNL     1       9.593  -5.438  -2.908  0.00  0.00    +0.220 A 
ATOM     20  C   UNL     1      10.785  -8.896  -2.988  0.00  0.00    +0.086 C 
BRANCH  19  21
ATOM     21  C   UNL     1       9.762  -3.962  -3.161  0.00  0.00    +0.451 C 
ATOM     22  F   UNL     1      10.321  -3.356  -2.031  0.00  0.00    -0.163 F 
ATOM     23  F   UNL     1      10.608  -3.771  -4.259  0.00  0.00    -0.163 F 
ATOM     24  F   UNL     1       8.514  -3.389  -3.429  0.00  0.00    -0.163 F 
ENDBRANCH  19  21
ENDBRANCH  11  15
BRANCH   1  26
ATOM     25  N   UNL     1       2.939  -6.691   2.139  0.00  0.00    -0.312 N 
ATOM     26  C   UNL     1       3.429  -6.665   0.884  0.00  0.00    +0.218 C 
ATOM     27  O   UNL     1       2.715  -6.955  -0.052  0.00  0.00    -0.275 OA
ATOM     28  H   UNL     1       3.510  -6.459   2.888  0.00  0.00    +0.149 HD
BRANCH  25  29
ATOM     29  C   UNL     1       1.543  -7.071   2.372  0.00  0.00    +0.148 C 
BRANCH  29  30
ATOM     30  C   UNL     1       1.244  -7.019   3.872  0.00  0.00    +0.187 C 
ATOM     31  C   UNL     1      -0.174  -7.534   4.127  0.00  0.00    +0.053 C 
BRANCH  30  32
ATOM     32  O   UNL     1       1.351  -5.671   4.333  0.00  0.00    -0.488 OA
BRANCH  32  37
ATOM     33  C   UNL     1       3.274  -4.907   9.572  0.00  0.00    +0.044 C 
ATOM     34  C   UNL     1       2.759  -5.111   8.170  0.00  0.00    -0.050 A 
ATOM     35  C   UNL     1       2.510  -6.390   7.706  0.00  0.00    +0.007 A 
ATOM     36  C   UNL     1       2.038  -6.580   6.422  0.00  0.00    +0.046 A 
ATOM     37  C   UNL     1       1.815  -5.487   5.597  0.00  0.00    +0.121 A 
ATOM     38  C   UNL     1       2.065  -4.205   6.065  0.00  0.00    +0.046 A 
ATOM     39  C   UNL     1       2.532  -4.020   7.352  0.00  0.00    +0.007 A 
ENDBRANCH  32  37
ENDBRANCH  30  32
ENDBRANCH  29  30
ENDBRANCH  25  29
ENDBRANCH   1  26
TORSDOF 7
