REMARK  Name = ZINC65129233
REMARK  13 active torsions:
REMARK  status: ('A' for Active; 'I' for Inactive)
REMARK    1  A    between atoms: C_1  and  C_2
REMARK    2  A    between atoms: C_2  and  C_3
REMARK    3  A    between atoms: C_3  and  C_4
REMARK    4  A    between atoms: C_4  and  C_5
REMARK    5  A    between atoms: C_5  and  N_6
REMARK    6  A    between atoms: N_9  and  N_10
REMARK    7  A    between atoms: C_11  and  C_13
REMARK    8  A    between atoms: C_14  and  C_25
REMARK    9  A    between atoms: C_16  and  N_18
REMARK   10  A    between atoms: C_19  and  C_21
REMARK   11  A    between atoms: C_21  and  C_22
REMARK   12  A    between atoms: C_21  and  C_23
REMARK   13  A    between atoms: C_21  and  C_24
REMARK                            x       y       z     vdW  Elec       q    Type
REMARK                         _______ _______ _______ _____ _____    ______ ____
ROOT
ATOM      1  N   UNL     1       1.489  -6.708  -2.507  0.00  0.00    -0.229 N 
ATOM      2  C   UNL     1       1.508  -8.056  -2.514  0.00  0.00    +0.267 C 
ATOM      3  O   UNL     1       2.034  -8.652  -3.436  0.00  0.00    -0.268 OA
ATOM      4  H   UNL     1       1.070  -6.233  -1.773  0.00  0.00    +0.173 HD
ENDROOT
BRANCH   1   8
ATOM      5  N   UNL     1       1.475  -3.986  -2.532  0.00  0.00    -0.298 N 
ATOM      6  C   UNL     1       2.058  -4.646  -3.552  0.00  0.00    +0.316 C 
ATOM      7  O   UNL     1       2.567  -4.026  -4.465  0.00  0.00    -0.251 OA
ATOM      8  N   UNL     1       2.076  -5.994  -3.559  0.00  0.00    -0.218 N 
ATOM      9  H   UNL     1       1.069  -4.480  -1.803  0.00  0.00    +0.150 HD
ATOM     10  H   UNL     1       2.496  -6.469  -4.294  0.00  0.00    +0.174 HD
BRANCH   5  11
ATOM     11  C   UNL     1       1.455  -2.521  -2.524  0.00  0.00    +0.106 C 
BRANCH  11  12
ATOM     12  C   UNL     1       0.739  -2.027  -1.265  0.00  0.00    +0.019 C 
BRANCH  12  13
ATOM     13  C   UNL     1       0.718  -0.497  -1.257  0.00  0.00    +0.001 C 
BRANCH  13  15
ATOM     14  C   UNL     1      -0.019   1.526   0.010  0.00  0.00    +0.004 C 
ATOM     15  C   UNL     1       0.002  -0.004   0.002  0.00  0.00    -0.003 C 
ENDBRANCH  13  15
ENDBRANCH  12  13
ENDBRANCH  11  12
ENDBRANCH   5  11
ENDBRANCH   1   8
BRANCH   2  16
ATOM     16  C   UNL     1       0.895  -8.801  -1.416  0.00  0.00    +0.080 A 
ATOM     17  C   UNL     1       0.813 -10.174  -1.233  0.00  0.00    -0.029 A 
ATOM     18  C   UNL     1       0.173 -10.590  -0.094  0.00  0.00    +0.035 A 
ATOM     19  C   UNL     1      -0.329  -9.640   0.764  0.00  0.00    +0.073 A 
ATOM     20  S   UNL     1       0.069  -8.179   0.036  0.00  0.00    -0.069 S 
ATOM     21  C   UNL     1       1.391 -11.149  -2.226  0.00  0.00    +0.045 C 
BRANCH  19  22
ATOM     22  N   UNL     1      -1.006  -9.842   1.961  0.00  0.00    -0.280 N 
ATOM     23  C   UNL     1      -1.431  -8.785   2.681  0.00  0.00    +0.223 C 
ATOM     24  O   UNL     1      -1.223  -7.658   2.284  0.00  0.00    -0.275 OA
ATOM     25  H   UNL     1      -1.171 -10.743   2.278  0.00  0.00    +0.155 HD
BRANCH  23  26
ATOM     26  C   UNL     1      -2.164  -9.004   3.979  0.00  0.00    +0.039 C 
ATOM     27  C   UNL     1      -2.532  -7.651   4.591  0.00  0.00    +0.020 C 
ATOM     28  C   UNL     1      -3.438  -9.808   3.716  0.00  0.00    +0.020 C 
ATOM     29  C   UNL     1      -1.266  -9.774   4.949  0.00  0.00    +0.020 C 
ENDBRANCH  23  26
ENDBRANCH  19  22
ENDBRANCH   2  16
TORSDOF 8
