REMARK  Name = ZINC63271600
REMARK  8 active torsions:
REMARK  status: ('A' for Active; 'I' for Inactive)
REMARK    1  A    between atoms: C_1  and  C_2
REMARK    2  A    between atoms: C_2  and  C_32
REMARK    3  A    between atoms: C_4  and  N_10
REMARK    4  A    between atoms: C_6  and  C_8
REMARK    5  A    between atoms: C_6  and  C_9
REMARK    6  A    between atoms: C_11  and  C_13
REMARK    7  A    between atoms: C_13  and  C_14
REMARK    8  A    between atoms: C_14  and  N_15
REMARK                            x       y       z     vdW  Elec       q    Type
REMARK                         _______ _______ _______ _____ _____    ______ ____
ROOT
ATOM      1  C   UNL     1       5.626  -0.156  -4.759  0.00  0.00    +0.115 C 
ENDROOT
BRANCH   1   2
ATOM      2  N   UNL     1       6.152  -0.673  -6.025  0.00  0.00    -0.299 N 
ATOM      3  C   UNL     1       7.304  -0.185  -6.525  0.00  0.00    +0.302 C 
ATOM      4  O   UNL     1       7.860   0.747  -5.975  0.00  0.00    -0.253 OA
ATOM      5  N   UNL     1       7.840  -0.729  -7.636  0.00  0.00    -0.283 N 
ATOM      6  C   UNL     1       7.105  -1.768  -8.362  0.00  0.00    +0.114 C 
ATOM      7  C   UNL     1       6.882  -1.318  -9.817  0.00  0.00    +0.052 C 
ATOM      8  C   UNL     1       8.199  -0.766 -10.305  0.00  0.00    -0.036 C 
ATOM      9  C   UNL     1       8.918  -1.037 -11.387  0.00  0.00    -0.001 A 
ATOM     10  C   UNL     1       8.645  -1.889 -12.556  0.00  0.00    +0.010 A 
ATOM     11  C   UNL     1       9.629  -1.957 -13.491  0.00  0.00    +0.001 A 
ATOM     12  C   UNL     1      10.843  -1.271 -13.382  0.00  0.00    +0.002 A 
ATOM     13  C   UNL     1      11.175  -0.459 -12.346  0.00  0.00    +0.026 A 
ATOM     14  C   UNL     1      10.216  -0.301 -11.304  0.00  0.00    +0.043 A 
ATOM     15  N   UNL     1      10.260   0.421 -10.223  0.00  0.00    -0.376 N 
ATOM     16  C   UNL     1       8.982   0.283  -9.524  0.00  0.00    +0.124 C 
ATOM     17  C   UNL     1       9.155  -0.268  -8.110  0.00  0.00    +0.138 C 
ATOM     18  H   UNL     1       5.671  -1.367  -6.502  0.00  0.00    +0.150 HD
ATOM     19  H   UNL     1      11.012   0.959  -9.930  0.00  0.00    +0.160 HD
ENDBRANCH   1   2
BRANCH   1  20
ATOM     20  C   UNL     1       4.318  -0.873  -4.419  0.00  0.00    +0.114 C 
BRANCH  20  22
ATOM     21  N   UNL     1       2.625  -0.829  -2.616  0.00  0.00    -0.313 N 
ATOM     22  C   UNL     1       3.777  -0.341  -3.117  0.00  0.00    +0.215 C 
ATOM     23  O   UNL     1       4.379   0.526  -2.519  0.00  0.00    -0.276 OA
ATOM     24  H   UNL     1       2.144  -1.523  -3.094  0.00  0.00    +0.149 HD
BRANCH  21  28
ATOM     25  C   UNL     1      -0.013   1.513   0.021  0.00  0.00    -0.010 C 
ATOM     26  C   UNL     1       0.013  -0.019   0.015  0.00  0.00    -0.072 C 
ATOM     27  C   UNL     1       0.584  -0.520  -1.308  0.00  0.00    +0.009 C 
ATOM     28  C   UNL     1       2.098  -0.311  -1.348  0.00  0.00    +0.070 C 
ATOM     29  C   UNL     1       2.718  -1.091  -0.188  0.00  0.00    +0.009 C 
ATOM     30  C   UNL     1       2.163  -0.595   1.143  0.00  0.00    -0.072 C 
ATOM     31  N   UNL     1       0.712  -0.540   1.177  0.00  0.00    +0.386 N 
ATOM     32  C   UNL     1       2.780   0.764   1.488  0.00  0.00    -0.010 C 
ATOM     33  C   UNL     1       2.621  -1.591   2.234  0.00  0.00    -0.010 C 
ATOM     34  C   UNL     1      -1.455  -0.498   0.095  0.00  0.00    -0.010 C 
ATOM     35  H   UNL     1       0.431   0.011   1.994  0.00  0.00    -0.084 HD
ATOM     36  H   UNL     1       0.360  -1.484   1.366  0.00  0.00    -0.084 HD
ENDBRANCH  21  28
ENDBRANCH  20  22
ENDBRANCH   1  20
TORSDOF 4
