REMARK  Name = ZINC38039813
REMARK  4 active torsions:
REMARK  status: ('A' for Active; 'I' for Inactive)
REMARK    1  A    between atoms: C_1  and  N_2
REMARK    2  A    between atoms: N_2  and  C_3
REMARK    3  A    between atoms: N_2  and  C_12
REMARK    4  A    between atoms: C_6  and  N_10
REMARK                            x       y       z     vdW  Elec       q    Type
REMARK                         _______ _______ _______ _____ _____    ______ ____
ROOT
ATOM      1  C   UNL     1       0.023  -0.712   1.214  0.00  0.00    +0.101 A 
ATOM      2  C   UNL     1       1.237  -1.042   1.805  0.00  0.00    +0.149 A 
ATOM      3  C   UNL     1       1.257  -1.740   2.999  0.00  0.00    +0.063 A 
ATOM      4  C   UNL     1       0.065  -2.112   3.606  0.00  0.00    +0.030 A 
ATOM      5  C   UNL     1      -1.148  -1.783   3.016  0.00  0.00    +0.063 A 
ATOM      6  C   UNL     1      -1.169  -1.079   1.825  0.00  0.00    +0.149 A 
ATOM      7  F   UNL     1      -2.350  -0.755   1.253  0.00  0.00    -0.203 F 
ATOM      8  F   UNL     1       2.397  -0.681   1.214  0.00  0.00    -0.203 F 
ENDROOT
BRANCH   4   9
ATOM      9  N   UNL     1       0.086  -2.819   4.814  0.00  0.00    -0.358 N 
ATOM     10  H   UNL     1       0.933  -3.049   5.227  0.00  0.00    +0.142 HD
ATOM     11  H   UNL     1      -0.747  -3.079   5.239  0.00  0.00    +0.142 HD
ENDBRANCH   4   9
BRANCH   1  13
ATOM     12  C   UNL     1      -0.018   1.461   0.010  0.00  0.00    +0.129 C 
ATOM     13  N   UNL     1       0.002  -0.004   0.002  0.00  0.00    -0.325 N 
BRANCH  13  14
ATOM     14  C   UNL     1      -0.000  -0.730  -1.271  0.00  0.00    +0.073 C 
ATOM     15  C   UNL     1       1.236  -0.339  -2.083  0.00  0.00    +0.022 C 
ATOM     16  C   UNL     1       1.234  -1.097  -3.412  0.00  0.00    +0.002 C 
ATOM     17  C   UNL     1      -0.028  -0.740  -4.200  0.00  0.00    +0.000 C 
ATOM     18  C   UNL     1      -1.264  -1.131  -3.388  0.00  0.00    +0.002 C 
ATOM     19  C   UNL     1      -1.262  -0.373  -2.059  0.00  0.00    +0.022 C 
ENDBRANCH  13  14
ENDBRANCH   1  13
TORSDOF 3
