REMARK  Name = ZINC14457255
REMARK  9 active torsions:
REMARK  status: ('A' for Active; 'I' for Inactive)
REMARK    1  A    between atoms: C_1  and  C_2
REMARK    2  A    between atoms: C_6  and  C_37
REMARK    3  A    between atoms: C_7  and  N_8
REMARK    4  A    between atoms: N_8  and  S_9
REMARK    5  A    between atoms: S_9  and  C_12
REMARK    6  A    between atoms: C_25  and  C_28
REMARK    7  A    between atoms: C_31  and  O_35
REMARK    8  A    between atoms: C_32  and  O_34
REMARK    9  A    between atoms: O_35  and  C_36
REMARK                            x       y       z     vdW  Elec       q    Type
REMARK                         _______ _______ _______ _____ _____    ______ ____
ROOT
ATOM      1  C   UNL     1       1.555   5.927   1.508  0.00  0.00    +0.109 A 
ATOM      2  C   UNL     1       0.183   6.090   1.563  0.00  0.00    +0.030 A 
ATOM      3  C   UNL     1      -0.415   6.464   2.749  0.00  0.00    +0.025 A 
ATOM      4  C   UNL     1       0.362   6.688   3.879  0.00  0.00    +0.031 A 
ATOM      5  C   UNL     1       1.739   6.531   3.828  0.00  0.00    -0.018 A 
ATOM      6  C   UNL     1       2.327   6.147   2.630  0.00  0.00    +0.034 A 
ATOM      7  C   UNL     1       2.615   6.757   5.019  0.00  0.00    +0.049 C 
ATOM      8  C   UNL     1       3.368   8.062   4.910  0.00  0.00    -0.023 C 
ATOM      9  C   UNL     1       3.497   8.621   6.076  0.00  0.00    -0.030 C 
ATOM     10  C   UNL     1       2.824   7.777   7.141  0.00  0.00    +0.033 C 
ATOM     11  C   UNL     1       1.821   6.905   6.331  0.00  0.00    +0.029 C 
ATOM     12  C   UNL     1       0.570   7.755   6.090  0.00  0.00    +0.105 C 
ATOM     13  N   UNL     1      -0.254   7.109   5.063  0.00  0.00    -0.336 N 
ATOM     14  H   UNL     1      -1.202   6.966   5.204  0.00  0.00    +0.147 HD
ENDROOT
BRANCH  12  15
ATOM     15  C   UNL     1      -0.218   7.868   7.371  0.00  0.00    -0.023 A 
ATOM     16  C   UNL     1      -1.046   6.833   7.764  0.00  0.00    +0.009 A 
ATOM     17  C   UNL     1      -1.765   6.929   8.941  0.00  0.00    +0.050 A 
ATOM     18  C   UNL     1      -1.667   8.069   9.722  0.00  0.00    +0.161 A 
ATOM     19  C   UNL     1      -0.838   9.113   9.323  0.00  0.00    +0.159 A 
ATOM     20  C   UNL     1      -0.115   9.008   8.146  0.00  0.00    +0.054 A 
BRANCH  19  21
ATOM     21  O   UNL     1      -0.737  10.234  10.086  0.00  0.00    -0.503 OA
ATOM     22  H   UNL     1      -1.379  10.921   9.863  0.00  0.00    +0.292 HD
ENDBRANCH  19  21
BRANCH  18  23
ATOM     23  O   UNL     1      -2.378   8.168  10.877  0.00  0.00    -0.491 OA
ATOM     24  C   UNL     1      -3.208   7.058  11.224  0.00  0.00    +0.277 C 
ENDBRANCH  18  23
ENDBRANCH  12  15
BRANCH   1  25
ATOM     25  S   UNL     1       2.322   5.443  -0.003  0.00  0.00    +0.072 S 
ATOM     26  O   UNL     1       3.694   5.797   0.106  0.00  0.00    -0.150 OA
ATOM     27  O   UNL     1       1.492   5.923  -1.051  0.00  0.00    -0.150 OA
BRANCH  25  28
ATOM     28  N   UNL     1       2.264   3.789  -0.073  0.00  0.00    -0.216 N 
ATOM     29  H   UNL     1       3.085   3.273  -0.034  0.00  0.00    +0.174 HD
BRANCH  28  36
ATOM     30  C   UNL     1       0.832   4.049  -2.518  0.00  0.00    +0.046 C 
ATOM     31  C   UNL     1       0.302   3.237  -1.365  0.00  0.00    -0.028 A 
ATOM     32  C   UNL     1      -0.914   2.591  -1.475  0.00  0.00    +0.005 A 
ATOM     33  C   UNL     1      -1.405   1.850  -0.415  0.00  0.00    +0.001 A 
ATOM     34  C   UNL     1      -0.675   1.745   0.755  0.00  0.00    +0.005 A 
ATOM     35  C   UNL     1       0.541   2.388   0.872  0.00  0.00    -0.028 A 
ATOM     36  C   UNL     1       1.034   3.138  -0.189  0.00  0.00    +0.054 A 
ATOM     37  C   UNL     1       1.333   2.277   2.150  0.00  0.00    +0.046 C 
ENDBRANCH  28  36
ENDBRANCH  25  28
ENDBRANCH   1  25
TORSDOF 6
