REMARK  Name = ZINC04847632
REMARK  6 active torsions:
REMARK  status: ('A' for Active; 'I' for Inactive)
REMARK    1  A    between atoms: C_1  and  C_2
REMARK    2  A    between atoms: C_9  and  C_18
REMARK    3  A    between atoms: C_10  and  N_11
REMARK    4  A    between atoms: N_11  and  C_12
REMARK    5  A    between atoms: C_12  and  C_13
REMARK    6  A    between atoms: C_24  and  C_30
REMARK                            x       y       z     vdW  Elec       q    Type
REMARK                         _______ _______ _______ _____ _____    ______ ____
ROOT
ATOM      1  C   UNL     1      -6.994   3.420   1.113  0.00  0.00    +0.044 C 
ATOM      2  C   UNL     1      -5.501   3.483   0.914  0.00  0.00    -0.046 A 
ATOM      3  C   UNL     1      -4.853   4.728   0.832  0.00  0.00    +0.021 A 
ATOM      4  C   UNL     1      -3.518   4.791   0.654  0.00  0.00    +0.095 A 
ATOM      5  N   UNL     1      -2.775   3.646   0.550  0.00  0.00    -0.288 N 
ATOM      6  C   UNL     1      -3.381   2.413   0.626  0.00  0.00    +0.140 A 
ATOM      7  C   UNL     1      -4.778   2.337   0.813  0.00  0.00    +0.050 A 
ATOM      8  N   UNL     1      -2.454   1.478   0.499  0.00  0.00    -0.226 NA
ATOM      9  C   UNL     1      -1.252   2.063   0.341  0.00  0.00    +0.117 A 
ATOM     10  C   UNL     1      -1.435   3.432   0.375  0.00  0.00    +0.132 A 
ENDROOT
BRANCH   9  11
ATOM     11  C   UNL     1       0.040   1.363   0.166  0.00  0.00    +0.069 A 
ATOM     12  C   UNL     1       1.209   2.071   0.138  0.00  0.00    +0.025 A 
ATOM     13  C   UNL     1       2.435   1.377  -0.024  0.00  0.00    -0.001 A 
ATOM     14  C   UNL     1       3.648   2.080  -0.055  0.00  0.00    +0.010 A 
ATOM     15  C   UNL     1       4.823   1.403  -0.211  0.00  0.00    +0.001 A 
ATOM     16  C   UNL     1       4.829   0.020  -0.340  0.00  0.00    +0.005 A 
ATOM     17  C   UNL     1       3.650  -0.692  -0.313  0.00  0.00    -0.026 A 
ATOM     18  C   UNL     1       2.439  -0.024  -0.154  0.00  0.00    +0.052 A 
ATOM     19  N   UNL     1       1.254  -0.732  -0.125  0.00  0.00    -0.321 N 
ATOM     20  H   UNL     1       1.270  -1.728  -0.219  0.00  0.00    +0.169 HD
ATOM     21  C   UNL     1       0.077  -0.097   0.028  0.00  0.00    +0.259 A 
ATOM     22  O   UNL     1      -0.960  -0.736   0.052  0.00  0.00    -0.267 OA
ATOM     23  C   UNL     1       3.671  -2.192  -0.453  0.00  0.00    +0.046 C 
ENDBRANCH   9  11
BRANCH  10  24
ATOM     24  N   UNL     1      -0.446   4.407   0.254  0.00  0.00    -0.321 N 
ATOM     25  H   UNL     1       0.015   4.344  -0.641  0.00  0.00    +0.148 HD
BRANCH  24  26
ATOM     26  C   UNL     1      -1.001   5.750   0.467  0.00  0.00    +0.177 C 
BRANCH  26  27
ATOM     27  C   UNL     1       0.117   6.760   0.472  0.00  0.00    +0.122 A 
ATOM     28  C   UNL     1       0.591   7.414  -0.604  0.00  0.00    +0.046 A 
ATOM     29  C   UNL     1       1.629   8.258  -0.146  0.00  0.00    +0.041 A 
ATOM     30  C   UNL     1       1.726   8.069   1.183  0.00  0.00    +0.195 A 
ATOM     31  O   UNL     1       0.804   7.166   1.552  0.00  0.00    -0.466 OA
ENDBRANCH  26  27
ENDBRANCH  24  26
ENDBRANCH  10  24
TORSDOF 4
