REMARK  Name = ZINC09669507
REMARK  10 active torsions:
REMARK  status: ('A' for Active; 'I' for Inactive)
REMARK    1  A    between atoms: C_1  and  C_2
REMARK    2  A    between atoms: C_2  and  C_4
REMARK    3  A    between atoms: C_2  and  N_10
REMARK    4  A    between atoms: C_11  and  C_13
REMARK    5  A    between atoms: C_18  and  N_19
REMARK    6  A    between atoms: C_20  and  C_22
REMARK    7  A    between atoms: C_22  and  S_23
REMARK    8  A    between atoms: S_23  and  C_24
REMARK    9  A    between atoms: C_27  and  C_30
REMARK   10  A    between atoms: N_28  and  N_29
REMARK                            x       y       z     vdW  Elec       q    Type
REMARK                         _______ _______ _______ _____ _____    ______ ____
ROOT
ATOM      1  N   UNL     1       3.361  11.976   0.017  0.00  0.00    -0.284 N 
ATOM      2  C   UNL     1       3.486  10.848   0.746  0.00  0.00    +0.228 C 
ATOM      3  O   UNL     1       4.398  10.736   1.537  0.00  0.00    -0.275 OA
ATOM      4  H   UNL     1       2.670  12.041  -0.661  0.00  0.00    +0.155 HD
ENDROOT
BRANCH   1  10
ATOM      5  C   UNL     1       3.755  14.364   0.122  0.00  0.00    +0.058 A 
ATOM      6  C   UNL     1       4.630  15.429   0.347  0.00  0.00    +0.015 A 
ATOM      7  C   UNL     1       5.944  15.181   0.680  0.00  0.00    +0.001 A 
ATOM      8  C   UNL     1       6.403  13.879   0.794  0.00  0.00    +0.002 A 
ATOM      9  C   UNL     1       5.549  12.816   0.580  0.00  0.00    +0.024 A 
ATOM     10  C   UNL     1       4.223  13.047   0.238  0.00  0.00    +0.046 A 
BRANCH   5  12
ATOM     11  N   UNL     1       1.928  15.885  -0.452  0.00  0.00    -0.305 N 
ATOM     12  C   UNL     1       2.347  14.622  -0.234  0.00  0.00    +0.246 C 
ATOM     13  O   UNL     1       1.565  13.697  -0.332  0.00  0.00    -0.270 OA
ATOM     14  H   UNL     1       2.552  16.623  -0.374  0.00  0.00    +0.150 HD
BRANCH  11  16
ATOM     15  C   UNL     1       0.347  15.976  -2.316  0.00  0.00    +0.033 C 
ATOM     16  C   UNL     1       0.530  16.141  -0.806  0.00  0.00    +0.100 C 
BRANCH  16  17
ATOM     17  C   UNL     1       0.160  17.546  -0.406  0.00  0.00    -0.027 A 
ATOM     18  C   UNL     1       1.063  18.577  -0.587  0.00  0.00    +0.005 A 
ATOM     19  C   UNL     1       0.723  19.867  -0.224  0.00  0.00    +0.000 A 
ATOM     20  C   UNL     1      -0.518  20.124   0.329  0.00  0.00    +0.000 A 
ATOM     21  C   UNL     1      -1.419  19.093   0.515  0.00  0.00    +0.000 A 
ATOM     22  C   UNL     1      -1.080  17.804   0.148  0.00  0.00    +0.005 A 
ENDBRANCH  16  17
ENDBRANCH  11  16
ENDBRANCH   5  12
ENDBRANCH   1  10
BRANCH   2  23
ATOM     23  C   UNL     1       2.491   9.729   0.577  0.00  0.00    +0.173 C 
BRANCH  23  24
ATOM     24  S   UNL     1       2.926   8.365   1.685  0.00  0.00    -0.075 S 
BRANCH  24  25
ATOM     25  C   UNL     1       1.638   7.229   1.291  0.00  0.00    +0.209 A 
ATOM     26  N   UNL     1       0.675   7.415   0.417  0.00  0.00    -0.121 NA
ATOM     27  N   UNL     1      -0.090   6.383   0.375  0.00  0.00    -0.126 NA
ATOM     28  C   UNL     1       0.333   5.476   1.227  0.00  0.00    +0.188 A 
ATOM     29  N   UNL     1       1.456   5.989   1.838  0.00  0.00    -0.223 N 
BRANCH  28  30
ATOM     30  C   UNL     1      -0.275   4.158   1.476  0.00  0.00    +0.058 A 
ATOM     31  C   UNL     1      -1.519   3.699   1.123  0.00  0.00    +0.019 A 
ATOM     32  C   UNL     1      -1.869   2.412   1.464  0.00  0.00    +0.008 A 
ATOM     33  C   UNL     1      -0.981   1.642   2.144  0.00  0.00    +0.046 A 
ATOM     34  S   UNL     1       0.415   2.741   2.315  0.00  0.00    -0.093 S 
ENDBRANCH  28  30
BRANCH  29  35
ATOM     35  N   UNL     1       2.226   5.384   2.790  0.00  0.00    -0.295 N 
ATOM     36  H   UNL     1       2.969   4.848   2.368  0.00  0.00    +0.163 HD
ATOM     37  H   UNL     1       2.594   6.062   3.441  0.00  0.00    +0.163 HD
ENDBRANCH  29  35
ENDBRANCH  24  25
ENDBRANCH  23  24
ENDBRANCH   2  23
TORSDOF 9
