REMARK  Name = ZINC20872740
REMARK  8 active torsions:
REMARK  status: ('A' for Active; 'I' for Inactive)
REMARK    1  A    between atoms: C_1  and  C_2
REMARK    2  A    between atoms: C_2  and  C_4
REMARK    3  A    between atoms: C_2  and  N_14
REMARK    4  A    between atoms: N_14  and  C_15
REMARK    5  A    between atoms: C_15  and  C_16
REMARK    6  A    between atoms: C_25  and  O_26
REMARK    7  A    between atoms: O_26  and  C_27
REMARK    8  A    between atoms: C_27  and  C_28
REMARK                            x       y       z     vdW  Elec       q    Type
REMARK                         _______ _______ _______ _____ _____    ______ ____
ROOT
ATOM      1  C   UNL     1      -0.112   5.253   0.030  0.00  0.00    -0.015 A 
ATOM      2  C   UNL     1      -0.095   3.849   0.023  0.00  0.00    -0.013 A 
ATOM      3  C   UNL     1      -1.288   3.105   0.030  0.00  0.00    +0.009 A 
ATOM      4  C   UNL     1      -1.235   1.746   0.017  0.00  0.00    +0.001 A 
ATOM      5  C   UNL     1      -0.013   1.076   0.008  0.00  0.00    +0.001 A 
ATOM      6  C   UNL     1       1.163   1.762   0.000  0.00  0.00    +0.008 A 
ATOM      7  C   UNL     1       1.148   3.167   0.008  0.00  0.00    -0.017 A 
ATOM      8  C   UNL     1       2.342   3.909   0.001  0.00  0.00    +0.012 A 
ATOM      9  C   UNL     1       2.292   5.268   0.009  0.00  0.00    +0.046 A 
ATOM     10  C   UNL     1       1.067   5.942   0.023  0.00  0.00    +0.123 A 
ENDROOT
BRANCH   1  11
ATOM     11  C   UNL     1      -1.423   5.995   0.046  0.00  0.00    -0.042 C 
BRANCH  11  12
ATOM     12  N   UNL     1      -1.837   6.229   1.436  0.00  0.00    +0.384 N 
ATOM     13  H   UNL     1      -1.059   6.820   1.941  0.00  0.00    -0.085 HD
ATOM     14  H   UNL     1      -1.944   5.257   1.940  0.00  0.00    -0.085 HD
BRANCH  12  16
ATOM     15  C   UNL     1      -2.854   8.456   1.384  0.00  0.00    -0.013 C 
ATOM     16  C   UNL     1      -3.115   6.952   1.490  0.00  0.00    -0.068 C 
BRANCH  16  17
ATOM     17  C   UNL     1      -3.817   6.648   2.815  0.00  0.00    -0.041 C 
ATOM     18  C   UNL     1      -2.928   7.095   3.978  0.00  0.00    +0.009 C 
ATOM     19  C   UNL     1      -3.630   6.792   5.303  0.00  0.00    -0.010 C 
ATOM     20  C   UNL     1      -4.960   7.545   5.359  0.00  0.00    +0.007 C 
ATOM     21  C   UNL     1      -5.849   7.098   4.197  0.00  0.00    -0.010 C 
ATOM     22  C   UNL     1      -5.147   7.401   2.872  0.00  0.00    +0.009 C 
ATOM     23  C   UNL     1      -6.110   5.594   4.303  0.00  0.00    +0.007 C 
ATOM     24  C   UNL     1      -4.779   4.840   4.247  0.00  0.00    -0.010 C 
ATOM     25  C   UNL     1      -3.890   5.288   5.409  0.00  0.00    +0.007 C 
ATOM     26  C   UNL     1      -4.077   5.144   2.921  0.00  0.00    +0.009 C 
ENDBRANCH  16  17
ENDBRANCH  12  16
ENDBRANCH  11  12
ENDBRANCH   1  11
BRANCH  10  27
ATOM     27  O   UNL     1       1.050   7.301   0.030  0.00  0.00    -0.483 OA
BRANCH  27  28
ATOM     28  C   UNL     1       2.315   7.966   0.022  0.00  0.00    +0.324 C 
BRANCH  28  29
ATOM     29  C   UNL     1       2.098   9.457   0.032  0.00  0.00    +0.248 C 
ATOM     30  O   UNL     1       0.972   9.906   0.044  0.00  0.00    -0.272 OA
ATOM     31  N   UNL     1       3.156  10.292   0.027  0.00  0.00    -0.327 N 
ATOM     32  H   UNL     1       2.998  11.380   0.034  0.00  0.00    +0.145 HD
ATOM     33  H   UNL     1       4.178   9.885   0.015  0.00  0.00    +0.145 HD
ENDBRANCH  28  29
ENDBRANCH  27  28
ENDBRANCH  10  27
TORSDOF 7
