REMARK  Name = ZINC36597502
REMARK  12 active torsions:
REMARK  status: ('A' for Active; 'I' for Inactive)
REMARK    1  A    between atoms: C_1  and  C_2
REMARK    2  A    between atoms: C_5  and  C_7
REMARK    3  A    between atoms: C_7  and  N_8
REMARK    4  A    between atoms: N_8  and  C_9
REMARK    5  A    between atoms: C_9  and  C_11
REMARK    6  A    between atoms: C_9  and  C_20
REMARK    7  A    between atoms: C_11  and  C_13
REMARK    8  A    between atoms: C_11  and  C_14
REMARK    9  A    between atoms: N_22  and  C_23
REMARK   10  A    between atoms: C_29  and  C_31
REMARK   11  A    between atoms: C_32  and  O_38
REMARK   12  A    between atoms: C_36  and  O_37
REMARK                            x       y       z     vdW  Elec       q    Type
REMARK                         _______ _______ _______ _____ _____    ______ ____
ROOT
ATOM      1  N   UNL     1       2.033  -3.376  -1.310  0.00  0.00    -0.278 N 
ATOM      2  C   UNL     1       1.031  -4.122  -1.815  0.00  0.00    +0.255 C 
ATOM      3  O   UNL     1       1.155  -4.649  -2.904  0.00  0.00    -0.270 OA
ENDROOT
BRANCH   2   4
ATOM      4  C   UNL     1      -0.214  -4.300  -1.049  0.00  0.00    +0.119 A 
ATOM      5  C   UNL     1      -1.280  -3.404  -1.215  0.00  0.00    +0.133 A 
ATOM      6  C   UNL     1      -2.446  -3.580  -0.489  0.00  0.00    +0.046 A 
ATOM      7  C   UNL     1      -2.562  -4.636   0.397  0.00  0.00    +0.007 A 
ATOM      8  C   UNL     1      -1.518  -5.525   0.569  0.00  0.00    +0.046 A 
ATOM      9  C   UNL     1      -0.344  -5.370  -0.151  0.00  0.00    +0.133 A 
BRANCH   9  10
ATOM     10  O   UNL     1       0.677  -6.247   0.015  0.00  0.00    -0.506 OA
ATOM     11  H   UNL     1       1.300  -5.998   0.711  0.00  0.00    +0.292 HD
ENDBRANCH   9  10
BRANCH   5  12
ATOM     12  O   UNL     1      -1.169  -2.367  -2.083  0.00  0.00    -0.506 OA
ATOM     13  H   UNL     1      -1.462  -2.573  -2.981  0.00  0.00    +0.292 HD
ENDBRANCH   5  12
ENDBRANCH   2   4
BRANCH   1  14
ATOM     14  C   UNL     1       1.938  -2.850   0.055  0.00  0.00    +0.183 C 
BRANCH  14  19
ATOM     15  C   UNL     1       1.322   2.149  -0.203  0.00  0.00    +0.086 C 
ATOM     16  C   UNL     1       1.013   0.679  -0.085  0.00  0.00    +0.102 A 
ATOM     17  C   UNL     1      -0.213   0.142   0.054  0.00  0.00    +0.045 A 
ATOM     18  C   UNL     1      -0.040  -1.259   0.127  0.00  0.00    +0.046 A 
ATOM     19  C   UNL     1       1.280  -1.495   0.027  0.00  0.00    +0.122 A 
ATOM     20  O   UNL     1       1.913  -0.318  -0.107  0.00  0.00    -0.463 OA
ENDBRANCH  14  19
ENDBRANCH   1  14
BRANCH   1  21
ATOM     21  C   UNL     1       3.216  -3.090  -2.125  0.00  0.00    +0.170 C 
BRANCH  21  22
ATOM     22  C   UNL     1       2.800  -2.359  -3.375  0.00  0.00    +0.234 C 
ATOM     23  O   UNL     1       1.634  -2.344  -3.710  0.00  0.00    -0.274 OA
ATOM     24  N   UNL     1       3.723  -1.722  -4.122  0.00  0.00    -0.311 N 
ATOM     25  H   UNL     1       4.664  -1.801  -3.901  0.00  0.00    +0.149 HD
BRANCH  24  26
ATOM     26  C   UNL     1       3.305  -0.909  -5.268  0.00  0.00    +0.073 C 
ATOM     27  C   UNL     1       3.143  -1.806  -6.497  0.00  0.00    +0.022 C 
ATOM     28  C   UNL     1       2.706  -0.958  -7.693  0.00  0.00    +0.002 C 
ATOM     29  C   UNL     1       3.766   0.108  -7.976  0.00  0.00    +0.000 C 
ATOM     30  C   UNL     1       3.928   1.005  -6.747  0.00  0.00    +0.002 C 
ATOM     31  C   UNL     1       4.365   0.157  -5.551  0.00  0.00    +0.022 C 
ENDBRANCH  24  26
ENDBRANCH  21  22
BRANCH  21  32
ATOM     32  C   UNL     1       3.902  -4.403  -2.506  0.00  0.00    +0.045 C 
ATOM     33  C   UNL     1       5.204  -4.100  -3.251  0.00  0.00    +0.015 C 
BRANCH  32  34
ATOM     34  C   UNL     1       4.209  -5.190  -1.258  0.00  0.00    -0.042 A 
ATOM     35  C   UNL     1       4.946  -4.613  -0.240  0.00  0.00    +0.004 A 
ATOM     36  C   UNL     1       5.227  -5.335   0.904  0.00  0.00    +0.000 A 
ATOM     37  C   UNL     1       4.771  -6.634   1.032  0.00  0.00    +0.000 A 
ATOM     38  C   UNL     1       4.034  -7.211   0.014  0.00  0.00    +0.000 A 
ATOM     39  C   UNL     1       3.749  -6.487  -1.129  0.00  0.00    +0.004 A 
ENDBRANCH  32  34
ENDBRANCH  21  32
ENDBRANCH   1  21
TORSDOF 10
