REMARK  Name = ZINC39674602
REMARK  7 active torsions:
REMARK  status: ('A' for Active; 'I' for Inactive)
REMARK    1  A    between atoms: C_1  and  C_2
REMARK    2  A    between atoms: C_4  and  C_14
REMARK    3  A    between atoms: C_7  and  C_12
REMARK    4  A    between atoms: C_14  and  C_15
REMARK    5  A    between atoms: C_15  and  N_16
REMARK    6  A    between atoms: C_17  and  C_19
REMARK    7  A    between atoms: C_30  and  C_32
REMARK                            x       y       z     vdW  Elec       q    Type
REMARK                         _______ _______ _______ _____ _____    ______ ____
ROOT
ATOM      1  C   UNL     1      -6.938  -1.497  -1.935  0.00  0.00    +0.100 C 
ATOM      2  C   UNL     1      -6.516  -1.773  -3.396  0.00  0.00    +0.121 C 
ATOM      3  N   UNL     1      -7.124  -3.086  -3.719  0.00  0.00    -0.296 N 
ATOM      4  C   UNL     1      -8.458  -3.044  -3.072  0.00  0.00    +0.115 C 
ATOM      5  C   UNL     1      -8.214  -2.329  -1.728  0.00  0.00    -0.004 C 
ATOM      6  C   UNL     1      -9.391  -1.418  -1.393  0.00  0.00    -0.010 C 
ATOM      7  C   UNL     1     -10.635  -2.273  -1.134  0.00  0.00    -0.082 C 
ATOM      8  N   UNL     1     -10.374  -3.196  -0.024  0.00  0.00    +0.379 N 
ATOM      9  C   UNL     1      -9.303  -4.130  -0.390  0.00  0.00    -0.082 C 
ATOM     10  C   UNL     1      -8.002  -3.354  -0.618  0.00  0.00    -0.010 C 
ATOM     11  C   UNL     1      -6.586  -4.091  -4.438  0.00  0.00    +0.249 C 
ATOM     12  O   UNL     1      -7.250  -5.076  -4.697  0.00  0.00    -0.270 OA
ATOM     13  H   UNL     1     -10.096  -2.670   0.791  0.00  0.00    -0.086 HD
ATOM     14  H   UNL     1     -11.214  -3.715   0.185  0.00  0.00    -0.086 HD
ENDROOT
BRANCH  11  15
ATOM     15  C   UNL     1      -5.191  -3.995  -4.912  0.00  0.00    +0.072 A 
ATOM     16  C   UNL     1      -4.662  -2.760  -5.293  0.00  0.00    +0.016 A 
ATOM     17  C   UNL     1      -3.359  -2.677  -5.734  0.00  0.00    +0.001 A 
ATOM     18  C   UNL     1      -2.572  -3.814  -5.800  0.00  0.00    +0.003 A 
ATOM     19  C   UNL     1      -3.086  -5.041  -5.425  0.00  0.00    +0.039 A 
ATOM     20  C   UNL     1      -4.390  -5.139  -4.975  0.00  0.00    +0.135 A 
ATOM     21  F   UNL     1      -4.890  -6.338  -4.603  0.00  0.00    -0.205 F 
ENDBRANCH  11  15
BRANCH   1  23
ATOM     22  N   UNL     1      -5.727  -1.347   0.217  0.00  0.00    -0.315 N 
ATOM     23  C   UNL     1      -5.859  -1.946  -0.984  0.00  0.00    +0.218 C 
ATOM     24  O   UNL     1      -5.109  -2.845  -1.298  0.00  0.00    -0.275 OA
ATOM     25  H   UNL     1      -6.327  -0.628   0.468  0.00  0.00    +0.149 HD
BRANCH  22  26
ATOM     26  C   UNL     1      -4.678  -1.783   1.141  0.00  0.00    +0.108 C 
BRANCH  26  27
ATOM     27  C   UNL     1      -4.747  -0.948   2.421  0.00  0.00    +0.052 C 
BRANCH  27  30
ATOM     28  C   UNL     1      -4.596  -1.026   5.658  0.00  0.00    +0.035 C 
ATOM     29  C   UNL     1      -3.379  -0.840   4.748  0.00  0.00    +0.103 C 
ATOM     30  C   UNL     1      -3.667  -1.396   3.373  0.00  0.00    -0.037 C 
ATOM     31  C   UNL     1      -2.757  -2.382   3.168  0.00  0.00    +0.000 A 
ATOM     32  C   UNL     1      -2.536  -3.254   2.070  0.00  0.00    +0.028 A 
ATOM     33  C   UNL     1      -1.523  -4.184   2.120  0.00  0.00    +0.052 A 
ATOM     34  C   UNL     1      -0.658  -4.299   3.288  0.00  0.00    +0.021 A 
ATOM     35  C   UNL     1      -0.821  -3.497   4.361  0.00  0.00    +0.027 A 
ATOM     36  C   UNL     1      -1.887  -2.489   4.360  0.00  0.00    +0.043 A 
ATOM     37  N   UNL     1      -2.241  -1.607   5.264  0.00  0.00    -0.378 N 
ATOM     38  H   UNL     1      -1.821  -1.482   6.130  0.00  0.00    +0.160 HD
BRANCH  33  39
ATOM     39  C   UNL     1      -1.315  -5.055   1.003  0.00  0.00    +0.099 C 
ATOM     40  N   UNL     1      -1.149  -5.747   0.117  0.00  0.00    -0.191 NA
ENDBRANCH  33  39
ENDBRANCH  27  30
ENDBRANCH  26  27
ENDBRANCH  22  26
ENDBRANCH   1  23
TORSDOF 6
