REMARK  Name = ZINC51646087
REMARK  12 active torsions:
REMARK  status: ('A' for Active; 'I' for Inactive)
REMARK    1  A    between atoms: C_1  and  C_2
REMARK    2  A    between atoms: C_4  and  C_23
REMARK    3  A    between atoms: C_7  and  N_8
REMARK    4  A    between atoms: N_11  and  C_12
REMARK    5  A    between atoms: C_12  and  C_14
REMARK    6  A    between atoms: C_12  and  C_15
REMARK    7  A    between atoms: C_15  and  C_16
REMARK    8  A    between atoms: C_19  and  O_22
REMARK    9  A    between atoms: N_25  and  C_26
REMARK   10  A    between atoms: C_26  and  C_27
REMARK   11  A    between atoms: C_27  and  C_28
REMARK   12  A    between atoms: C_27  and  C_29
REMARK                            x       y       z     vdW  Elec       q    Type
REMARK                         _______ _______ _______ _____ _____    ______ ____
ROOT
ATOM      1  N   UNL     1       0.025  -0.012   2.413  0.00  0.00    -0.269 N 
ATOM      2  C   UNL     1      -0.632  -0.513   3.478  0.00  0.00    +0.304 C 
ATOM      3  O   UNL     1      -1.150  -1.611   3.411  0.00  0.00    -0.253 OA
ATOM      4  N   UNL     1      -0.716   0.203   4.617  0.00  0.00    -0.296 N 
ATOM      5  H   UNL     1       0.494   0.834   2.487  0.00  0.00    +0.156 HD
ATOM      6  H   UNL     1      -0.302   1.079   4.670  0.00  0.00    +0.151 HD
ENDROOT
BRANCH   1  13
ATOM      7  C   UNL     1      -0.013   1.493   0.004  0.00  0.00    +0.045 C 
ATOM      8  C   UNL     1       0.013  -0.014   0.002  0.00  0.00    -0.028 A 
ATOM      9  C   UNL     1       0.025  -0.699  -1.192  0.00  0.00    +0.018 A 
ATOM     10  C   UNL     1       0.049  -2.096  -1.193  0.00  0.00    +0.037 A 
ATOM     11  C   UNL     1       0.061  -2.793   0.019  0.00  0.00    +0.015 A 
ATOM     12  C   UNL     1       0.049  -2.101   1.208  0.00  0.00    +0.024 A 
ATOM     13  C   UNL     1       0.031  -0.710   1.206  0.00  0.00    +0.038 A 
BRANCH  10  14
ATOM     14  C   UNL     1       0.060  -2.835  -2.471  0.00  0.00    +0.244 C 
ATOM     15  O   UNL     1       0.049  -2.227  -3.524  0.00  0.00    -0.270 OA
ATOM     16  N   UNL     1       0.084  -4.182  -2.470  0.00  0.00    -0.311 N 
ATOM     17  H   UNL     1       0.092  -4.667  -1.630  0.00  0.00    +0.149 HD
BRANCH  16  18
ATOM     18  C   UNL     1       0.096  -4.915  -3.739  0.00  0.00    +0.107 C 
BRANCH  18  19
ATOM     19  C   UNL     1       0.121  -6.419  -3.459  0.00  0.00    -0.000 C 
ATOM     20  C   UNL     1       0.008  -7.186  -4.778  0.00  0.00    +0.009 C 
ATOM     21  C   UNL     1       1.436  -6.786  -2.767  0.00  0.00    +0.009 C 
ENDBRANCH  18  19
ENDBRANCH  16  18
ENDBRANCH  10  14
ENDBRANCH   1  13
BRANCH   4  22
ATOM     22  C   UNL     1      -1.430  -0.342   5.774  0.00  0.00    +0.076 C 
ATOM     23  C   UNL     1      -0.487  -1.238   6.580  0.00  0.00    +0.028 C 
BRANCH  22  24
ATOM     24  C   UNL     1      -1.920   0.807   6.657  0.00  0.00    +0.057 C 
BRANCH  24  25
ATOM     25  C   UNL     1      -2.942   1.619   5.904  0.00  0.00    -0.045 A 
ATOM     26  C   UNL     1      -2.537   2.689   5.127  0.00  0.00    +0.007 A 
ATOM     27  C   UNL     1      -3.472   3.435   4.436  0.00  0.00    +0.045 A 
ATOM     28  C   UNL     1      -4.818   3.110   4.521  0.00  0.00    +0.117 A 
ATOM     29  C   UNL     1      -5.222   2.036   5.301  0.00  0.00    +0.045 A 
ATOM     30  C   UNL     1      -4.283   1.290   5.987  0.00  0.00    +0.007 A 
BRANCH  28  31
ATOM     31  O   UNL     1      -5.740   3.843   3.843  0.00  0.00    -0.507 OA
ATOM     32  H   UNL     1      -5.921   3.518   2.950  0.00  0.00    +0.292 HD
ENDBRANCH  28  31
ENDBRANCH  24  25
ENDBRANCH  22  24
ENDBRANCH   4  22
TORSDOF 8
