REMARK  Name = ZINC63933973
REMARK  6 active torsions:
REMARK  status: ('A' for Active; 'I' for Inactive)
REMARK    1  A    between atoms: C_1  and  C_2
REMARK    2  A    between atoms: C_2  and  C_3
REMARK    3  A    between atoms: C_6  and  C_9
REMARK    4  A    between atoms: N_15  and  C_30
REMARK    5  A    between atoms: C_18  and  C_29
REMARK    6  A    between atoms: C_33  and  N_36
REMARK                            x       y       z     vdW  Elec       q    Type
REMARK                         _______ _______ _______ _____ _____    ______ ____
ROOT
ATOM      1  C   UNL     1      -5.402  -2.042   0.044  0.00  0.00    +0.065 C 
ATOM      2  C   UNL     1      -5.499  -3.384  -0.710  0.00  0.00    +0.123 C 
ATOM      3  N   UNL     1      -6.380  -3.188  -1.865  0.00  0.00    -0.268 N 
ATOM      4  C   UNL     1      -6.104  -3.401  -3.159  0.00  0.00    +0.317 C 
ATOM      5  O   UNL     1      -5.095  -3.948  -3.556  0.00  0.00    -0.252 OA
ATOM      6  N   UNL     1      -7.071  -2.939  -3.965  0.00  0.00    -0.192 N 
ATOM      7  C   UNL     1      -8.113  -2.449  -3.261  0.00  0.00    +0.253 C 
ATOM      8  O   UNL     1      -9.118  -1.934  -3.703  0.00  0.00    -0.272 OA
ATOM      9  C   UNL     1      -7.765  -2.676  -1.807  0.00  0.00    +0.137 C 
ATOM     10  C   UNL     1      -7.742  -1.354  -1.042  0.00  0.00    +0.139 C 
ATOM     11  C   UNL     1      -6.291  -1.064  -0.681  0.00  0.00    -0.027 C 
ATOM     12  C   UNL     1      -6.032   0.156  -1.145  0.00  0.00    -0.000 A 
ATOM     13  C   UNL     1      -4.841   1.012  -1.030  0.00  0.00    +0.010 A 
ATOM     14  C   UNL     1      -4.907   2.219  -1.653  0.00  0.00    +0.001 A 
ATOM     15  C   UNL     1      -6.027   2.653  -2.369  0.00  0.00    +0.002 A 
ATOM     16  C   UNL     1      -7.169   1.935  -2.519  0.00  0.00    +0.026 A 
ATOM     17  C   UNL     1      -7.221   0.651  -1.903  0.00  0.00    +0.043 A 
ATOM     18  N   UNL     1      -8.194  -0.232  -1.865  0.00  0.00    -0.375 N 
ATOM     19  C   UNL     1      -8.709  -3.693  -1.161  0.00  0.00    +0.044 C 
ATOM     20  H   UNL     1      -9.058  -0.159  -2.301  0.00  0.00    +0.160 HD
ENDROOT
BRANCH   1  24
ATOM     21  C   UNL     1      -1.365  -0.645   0.017  0.00  0.00    -0.048 A 
ATOM     22  C   UNL     1      -2.009  -0.874   1.218  0.00  0.00    +0.004 A 
ATOM     23  C   UNL     1      -3.316  -1.326   1.227  0.00  0.00    +0.004 A 
ATOM     24  C   UNL     1      -3.978  -1.549   0.035  0.00  0.00    -0.039 A 
ATOM     25  C   UNL     1      -3.334  -1.320  -1.167  0.00  0.00    +0.004 A 
ATOM     26  C   UNL     1      -2.029  -0.864  -1.176  0.00  0.00    +0.004 A 
BRANCH  21  28
ATOM     27  C   UNL     1       0.070   1.377   0.017  0.00  0.00    +0.009 C 
ATOM     28  C   UNL     1       0.059  -0.153   0.007  0.00  0.00    +0.032 C 
ENDBRANCH  21  28
ENDBRANCH   1  24
BRANCH   6  29
ATOM     29  C   UNL     1      -7.007  -2.963  -5.365  0.00  0.00    +0.046 A 
ATOM     30  C   UNL     1      -8.107  -2.575  -6.118  0.00  0.00    +0.026 A 
ATOM     31  C   UNL     1      -8.042  -2.599  -7.497  0.00  0.00    +0.034 A 
ATOM     32  C   UNL     1      -6.882  -3.009  -8.129  0.00  0.00    +0.126 A 
ATOM     33  C   UNL     1      -5.784  -3.396  -7.381  0.00  0.00    +0.034 A 
ATOM     34  C   UNL     1      -5.842  -3.368  -6.002  0.00  0.00    +0.026 A 
BRANCH  32  35
ATOM     35  N   UNL     1      -6.815  -3.034  -9.607  0.00  0.00    +0.056 N 
ATOM     36  O   UNL     1      -7.774  -2.697 -10.261  0.00  0.00    -0.126 OA
ATOM     37  O   UNL     1      -5.801  -3.393 -10.160  0.00  0.00    -0.126 OA
ENDBRANCH  32  35
ENDBRANCH   6  29
TORSDOF 4
