REMARK  Name = ZINC08870759
REMARK  8 active torsions:
REMARK  status: ('A' for Active; 'I' for Inactive)
REMARK    1  A    between atoms: C_1  and  O_2
REMARK    2  A    between atoms: O_2  and  C_3
REMARK    3  A    between atoms: C_6  and  S_9
REMARK    4  A    between atoms: S_9  and  N_12
REMARK    5  A    between atoms: N_12  and  C_13
REMARK    6  A    between atoms: C_15  and  S_24
REMARK    7  A    between atoms: C_16  and  O_23
REMARK    8  A    between atoms: S_24  and  C_25
REMARK                            x       y       z     vdW  Elec       q    Type
REMARK                         _______ _______ _______ _____ _____    ______ ____
ROOT
ATOM      1  C   UNL     1       2.433   0.011  -0.147  0.00  0.00    +0.057 A 
ATOM      2  C   UNL     1       2.397   1.381  -0.280  0.00  0.00    +0.044 A 
ATOM      3  C   UNL     1       1.195   2.081  -0.145  0.00  0.00    +0.059 A 
ATOM      4  C   UNL     1       0.015   1.412   0.125  0.00  0.00    +0.138 A 
ATOM      5  C   UNL     1       0.024   0.013   0.265  0.00  0.00    +0.026 A 
ATOM      6  C   UNL     1       1.244  -0.696   0.129  0.00  0.00    +0.008 A 
ATOM      7  C   UNL     1       1.247  -2.093   0.269  0.00  0.00    +0.010 A 
ATOM      8  C   UNL     1       0.083  -2.748   0.534  0.00  0.00    +0.001 A 
ATOM      9  C   UNL     1      -1.117  -2.051   0.669  0.00  0.00    +0.001 A 
ATOM     10  C   UNL     1      -1.159  -0.697   0.539  0.00  0.00    +0.012 A 
ENDROOT
BRANCH   1  11
ATOM     11  N   UNL     1       3.641  -0.675  -0.283  0.00  0.00    -0.216 N 
ATOM     12  H   UNL     1       3.656  -1.553  -0.695  0.00  0.00    +0.174 HD
BRANCH  11  13
ATOM     13  S   UNL     1       5.048   0.010   0.257  0.00  0.00    +0.072 S 
ATOM     14  O   UNL     1       6.064  -0.972   0.103  0.00  0.00    -0.150 OA
ATOM     15  O   UNL     1       5.132   1.294  -0.345  0.00  0.00    -0.150 OA
BRANCH  13  19
ATOM     16  C   UNL     1       4.579   0.696   4.709  0.00  0.00    +0.120 A 
ATOM     17  C   UNL     1       5.100  -0.502   4.242  0.00  0.00    +0.047 A 
ATOM     18  C   UNL     1       5.242  -0.709   2.883  0.00  0.00    +0.032 A 
ATOM     19  C   UNL     1       4.866   0.277   1.990  0.00  0.00    +0.109 A 
ATOM     20  C   UNL     1       4.351   1.474   2.453  0.00  0.00    +0.032 A 
ATOM     21  C   UNL     1       4.202   1.683   3.810  0.00  0.00    +0.047 A 
BRANCH  16  23
ATOM     22  C   UNL     1       3.894   2.158   6.454  0.00  0.00    +0.277 C 
ATOM     23  O   UNL     1       4.438   0.901   6.045  0.00  0.00    -0.495 OA
ENDBRANCH  16  23
ENDBRANCH  13  19
ENDBRANCH  11  13
ENDBRANCH   1  11
BRANCH   4  24
ATOM     24  O   UNL     1      -1.150   2.105   0.248  0.00  0.00    -0.505 OA
ATOM     25  H   UNL     1      -1.342   2.393   1.151  0.00  0.00    +0.292 HD
ENDBRANCH   4  24
BRANCH   3  26
ATOM     26  S   UNL     1       1.183   3.834  -0.320  0.00  0.00    -0.048 S 
BRANCH  26  27
ATOM     27  C   UNL     1       0.501   3.974  -1.939  0.00  0.00    +0.172 A 
ATOM     28  N   UNL     1       0.348   5.145  -2.628  0.00  0.00    -0.333 N 
ATOM     29  H   UNL     1       0.597   6.059  -2.307  0.00  0.00    +0.168 HD
ATOM     30  C   UNL     1      -0.217   4.829  -3.853  0.00  0.00    +0.067 A 
ATOM     31  C   UNL     1      -0.598   5.577  -4.956  0.00  0.00    +0.028 A 
ATOM     32  C   UNL     1      -1.153   4.949  -6.053  0.00  0.00    +0.002 A 
ATOM     33  C   UNL     1      -1.332   3.574  -6.059  0.00  0.00    +0.002 A 
ATOM     34  C   UNL     1      -0.959   2.816  -4.971  0.00  0.00    +0.030 A 
ATOM     35  C   UNL     1      -0.396   3.436  -3.853  0.00  0.00    +0.090 A 
ATOM     36  N   UNL     1       0.061   2.973  -2.661  0.00  0.00    -0.222 NA
ENDBRANCH  26  27
ENDBRANCH   3  26
TORSDOF 7
