REMARK  Name = ZINC16026000
REMARK  8 active torsions:
REMARK  status: ('A' for Active; 'I' for Inactive)
REMARK    1  A    between atoms: C_1  and  C_2
REMARK    2  A    between atoms: C_2  and  C_3
REMARK    3  A    between atoms: C_2  and  C_4
REMARK    4  A    between atoms: C_4  and  C_6
REMARK    5  A    between atoms: C_4  and  N_16
REMARK    6  A    between atoms: N_8  and  C_9
REMARK    7  A    between atoms: C_9  and  C_10
REMARK    8  A    between atoms: C_17  and  C_19
REMARK                            x       y       z     vdW  Elec       q    Type
REMARK                         _______ _______ _______ _____ _____    ______ ____
ROOT
ATOM      1  C   UNL     1      -2.465  -0.126   0.366  0.00  0.00    +0.167 C 
ATOM      2  C   UNL     1      -1.511   0.145  -0.807  0.00  0.00    +0.069 C 
ATOM      3  C   UNL     1      -0.566   1.268  -0.462  0.00  0.00    -0.015 A 
ATOM      4  C   UNL     1       0.661   1.626  -1.151  0.00  0.00    +0.003 A 
ATOM      5  C   UNL     1       1.319   1.074  -2.255  0.00  0.00    +0.010 A 
ATOM      6  C   UNL     1       2.485   1.682  -2.649  0.00  0.00    +0.001 A 
ATOM      7  C   UNL     1       2.995   2.791  -1.993  0.00  0.00    +0.002 A 
ATOM      8  C   UNL     1       2.365   3.356  -0.898  0.00  0.00    +0.026 A 
ATOM      9  C   UNL     1       1.179   2.759  -0.475  0.00  0.00    +0.047 A 
ATOM     10  N   UNL     1       0.321   3.050   0.546  0.00  0.00    -0.356 N 
ATOM     11  H   UNL     1       0.427   3.782   1.173  0.00  0.00    +0.166 HD
ATOM     12  C   UNL     1      -0.713   2.152   0.550  0.00  0.00    +0.046 A 
ATOM     13  C   UNL     1      -1.862   2.099   1.527  0.00  0.00    +0.155 C 
ATOM     14  N   UNL     1      -2.851   1.168   0.937  0.00  0.00    -0.273 N 
ATOM     15  C   UNL     1      -4.062   1.739   0.995  0.00  0.00    +0.248 C 
ATOM     16  O   UNL     1      -5.115   1.171   0.784  0.00  0.00    -0.270 OA
ATOM     17  C   UNL     1      -3.922   3.155   1.351  0.00  0.00    +0.042 A 
ATOM     18  C   UNL     1      -2.568   3.406   1.653  0.00  0.00    -0.009 A 
ATOM     19  C   UNL     1      -2.126   4.667   1.986  0.00  0.00    +0.006 A 
ATOM     20  C   UNL     1      -3.078   5.682   2.023  0.00  0.00    +0.000 A 
ATOM     21  C   UNL     1      -4.408   5.444   1.740  0.00  0.00    +0.001 A 
ATOM     22  C   UNL     1      -4.868   4.181   1.398  0.00  0.00    +0.013 A 
ENDROOT
BRANCH   1  24
ATOM     23  N   UNL     1      -3.893  -2.140   0.218  0.00  0.00    -0.302 N 
ATOM     24  C   UNL     1      -3.688  -0.854  -0.128  0.00  0.00    +0.235 C 
ATOM     25  O   UNL     1      -4.489  -0.282  -0.838  0.00  0.00    -0.274 OA
ATOM     26  H   UNL     1      -3.253  -2.598   0.785  0.00  0.00    +0.150 HD
BRANCH  23  27
ATOM     27  C   UNL     1      -5.083  -2.848  -0.263  0.00  0.00    +0.161 C 
BRANCH  27  28
ATOM     28  C   UNL     1      -5.416  -3.971   0.685  0.00  0.00    +0.234 C 
ATOM     29  O   UNL     1      -4.728  -4.162   1.665  0.00  0.00    -0.274 OA
ATOM     30  N   UNL     1      -6.479  -4.763   0.443  0.00  0.00    -0.310 N 
ATOM     31  H   UNL     1      -7.029  -4.611  -0.341  0.00  0.00    +0.149 HD
BRANCH  30  32
ATOM     32  C   UNL     1      -6.803  -5.856   1.364  0.00  0.00    +0.139 C 
BRANCH  32  33
ATOM     33  C   UNL     1      -8.027  -6.583   0.870  0.00  0.00    -0.030 A 
ATOM     34  C   UNL     1      -9.284  -6.180   1.281  0.00  0.00    +0.005 A 
ATOM     35  C   UNL     1     -10.406  -6.845   0.824  0.00  0.00    +0.000 A 
ATOM     36  C   UNL     1     -10.272  -7.918  -0.036  0.00  0.00    +0.000 A 
ATOM     37  C   UNL     1      -9.014  -8.325  -0.443  0.00  0.00    +0.000 A 
ATOM     38  C   UNL     1      -7.892  -7.657   0.010  0.00  0.00    +0.005 A 
ENDBRANCH  32  33
ENDBRANCH  30  32
ENDBRANCH  27  28
BRANCH  27  40
ATOM     39  C   UNL     1      -4.470  -2.278  -2.617  0.00  0.00    +0.009 C 
ATOM     40  C   UNL     1      -4.809  -3.419  -1.655  0.00  0.00    +0.012 C 
ATOM     41  C   UNL     1      -3.630  -4.393  -1.584  0.00  0.00    +0.009 C 
ENDBRANCH  27  40
ENDBRANCH  23  27
ENDBRANCH   1  24
TORSDOF 6
