REMARK  Name = ZINC10425885
REMARK  5 active torsions:
REMARK  status: ('A' for Active; 'I' for Inactive)
REMARK    1  A    between atoms: C_2  and  C_9
REMARK    2  A    between atoms: N_11  and  C_12
REMARK    3  A    between atoms: C_12  and  C_13
REMARK    4  A    between atoms: C_13  and  C_14
REMARK    5  A    between atoms: C_14  and  N_15
REMARK                            x       y       z     vdW  Elec       q    Type
REMARK                         _______ _______ _______ _____ _____    ______ ____
ROOT
ATOM      1  C   UNL     1      -2.716   7.938   0.070  0.00  0.00    +0.038 C 
ENDROOT
BRANCH   1   2
ATOM      2  C   UNL     1      -1.266   7.447   0.053  0.00  0.00    +0.106 C 
BRANCH   2   5
ATOM      3  C   UNL     1      -0.070   5.325   0.031  0.00  0.00    +0.244 C 
ATOM      4  O   UNL     1       0.974   5.947   0.024  0.00  0.00    -0.270 OA
ATOM      5  N   UNL     1      -1.246   5.983   0.046  0.00  0.00    -0.311 N 
ATOM      6  H   UNL     1      -2.080   5.486   0.051  0.00  0.00    +0.149 HD
BRANCH   3   8
ATOM      7  C   UNL     1      -1.248   3.130   0.031  0.00  0.00    +0.033 A 
ATOM      8  C   UNL     1      -0.050   3.846   0.023  0.00  0.00    +0.039 A 
ATOM      9  C   UNL     1       1.166   3.162   0.008  0.00  0.00    +0.033 A 
ATOM     10  C   UNL     1       1.179   1.782   0.000  0.00  0.00    +0.043 A 
ATOM     11  C   UNL     1      -0.013   1.076   0.008  0.00  0.00    +0.040 A 
ATOM     12  C   UNL     1      -1.222   1.749   0.017  0.00  0.00    +0.043 A 
ATOM     13 CL   UNL     1      -2.711   0.855   0.019  0.00  0.00    -0.083 Cl
ATOM     14 CL   UNL     1       2.691   0.929  -0.019  0.00  0.00    -0.083 Cl
ENDBRANCH   3   8
ENDBRANCH   2   5
ENDBRANCH   1   2
BRANCH   1  15
ATOM     15  C   UNL     1      -2.736   9.468   0.078  0.00  0.00    +0.119 C 
BRANCH  15  16
ATOM     16  N   UNL     1      -4.124   9.937   0.093  0.00  0.00    -0.224 N 
ATOM     17  C   UNL     1      -4.832  10.175   1.219  0.00  0.00    +0.246 C 
ATOM     18  O   UNL     1      -4.458  10.046   2.365  0.00  0.00    -0.273 OA
ATOM     19  C   UNL     1      -6.188  10.634   0.746  0.00  0.00    +0.113 C 
ATOM     20  C   UNL     1      -6.498  12.049   1.253  0.00  0.00    +0.035 C 
ATOM     21  C   UNL     1      -8.027  12.026   1.514  0.00  0.00    +0.003 C 
ATOM     22  C   UNL     1      -8.260  10.599   2.071  0.00  0.00    +0.003 C 
ATOM     23  C   UNL     1      -7.297   9.710   1.253  0.00  0.00    +0.035 C 
ATOM     24  N   UNL     1      -6.095  10.606  -0.716  0.00  0.00    -0.285 N 
ATOM     25  C   UNL     1      -4.846  10.190  -1.006  0.00  0.00    +0.309 C 
ATOM     26  O   UNL     1      -4.424  10.055  -2.138  0.00  0.00    -0.252 OA
ATOM     27  H   UNL     1      -6.792  10.842  -1.348  0.00  0.00    +0.151 HD
ENDBRANCH  15  16
ENDBRANCH   1  15
TORSDOF 5
