REMARK  Name = ZINC34792629
REMARK  9 active torsions:
REMARK  status: ('A' for Active; 'I' for Inactive)
REMARK    1  A    between atoms: C_1  and  C_2
REMARK    2  A    between atoms: C_2  and  C_3
REMARK    3  A    between atoms: C_3  and  C_5
REMARK    4  A    between atoms: C_3  and  N_6
REMARK    5  A    between atoms: C_7  and  C_9
REMARK    6  A    between atoms: C_9  and  N_10
REMARK    7  A    between atoms: N_12  and  C_27
REMARK    8  A    between atoms: C_21  and  C_23
REMARK    9  A    between atoms: C_23  and  C_25
REMARK                            x       y       z     vdW  Elec       q    Type
REMARK                         _______ _______ _______ _____ _____    ______ ____
ROOT
ATOM      1  N   UNL     1       4.976   0.559   3.553  0.00  0.00    -0.275 N 
ATOM      2  C   UNL     1       5.023   1.761   4.384  0.00  0.00    +0.217 C 
ATOM      3  N   UNL     1       5.509   1.375   5.715  0.00  0.00    -0.300 N 
ATOM      4  C   UNL     1       5.745  -0.072   5.652  0.00  0.00    +0.115 C 
ATOM      5  C   UNL     1       5.380  -0.511   4.258  0.00  0.00    +0.241 C 
ATOM      6  O   UNL     1       5.443  -1.647   3.838  0.00  0.00    -0.273 OA
ATOM      7  C   UNL     1       4.860  -0.789   6.671  0.00  0.00    +0.054 C 
ATOM      8  C   UNL     1       5.202  -0.292   8.079  0.00  0.00    +0.110 C 
ATOM      9  N   UNL     1       6.644  -0.457   8.302  0.00  0.00    -0.300 N 
ATOM     10  C   UNL     1       7.580   0.130   7.333  0.00  0.00    +0.110 C 
ATOM     11  C   UNL     1       7.218  -0.371   5.931  0.00  0.00    +0.054 C 
ATOM     12  C   UNL     1       7.101  -1.133   9.374  0.00  0.00    +0.233 C 
ATOM     13  O   UNL     1       6.320  -1.690  10.117  0.00  0.00    -0.274 OA
ENDROOT
BRANCH   3  14
ATOM     14  C   UNL     1       5.705   2.213   6.815  0.00  0.00    +0.032 A 
ATOM     15  C   UNL     1       5.351   3.554   6.740  0.00  0.00    +0.023 A 
ATOM     16  C   UNL     1       5.546   4.380   7.830  0.00  0.00    +0.002 A 
ATOM     17  C   UNL     1       6.093   3.873   8.994  0.00  0.00    +0.000 A 
ATOM     18  C   UNL     1       6.446   2.538   9.072  0.00  0.00    +0.002 A 
ATOM     19  C   UNL     1       6.248   1.706   7.988  0.00  0.00    +0.023 A 
ENDBRANCH   3  14
BRANCH  12  20
ATOM     20  C   UNL     1       8.581  -1.196   9.652  0.00  0.00    +0.163 C 
ATOM     21  C   UNL     1       8.824  -1.055  11.155  0.00  0.00    +0.034 C 
ATOM     22 CL   UNL     1       9.231  -2.779   9.083  0.00  0.00    -0.112 Cl
ENDBRANCH  12  20
BRANCH   1  23
ATOM     23  C   UNL     1       4.543   0.524   2.153  0.00  0.00    +0.205 C 
BRANCH  23  25
ATOM     24  N   UNL     1       2.434   0.212   0.899  0.00  0.00    -0.311 N 
ATOM     25  C   UNL     1       3.057   0.283   2.092  0.00  0.00    +0.231 C 
ATOM     26  O   UNL     1       2.421   0.152   3.117  0.00  0.00    -0.274 OA
ATOM     27  H   UNL     1       2.942   0.317   0.080  0.00  0.00    +0.149 HD
BRANCH  24  28
ATOM     28  C   UNL     1       0.989  -0.023   0.841  0.00  0.00    +0.070 C 
ATOM     29  C   UNL     1       0.714  -1.527   0.908  0.00  0.00    +0.028 C 
BRANCH  28  31
ATOM     30  C   UNL     1       0.598   2.059  -0.483  0.00  0.00    +0.005 C 
ATOM     31  C   UNL     1       0.434   0.538  -0.470  0.00  0.00    +0.018 C 
ENDBRANCH  28  31
ENDBRANCH  24  28
ENDBRANCH  23  25
ENDBRANCH   1  23
TORSDOF 6
