REMARK  Name = ZINC13149940
REMARK  7 active torsions:
REMARK  status: ('A' for Active; 'I' for Inactive)
REMARK    1  A    between atoms: C_4  and  C_7
REMARK    2  A    between atoms: C_9  and  N_20
REMARK    3  A    between atoms: N_20  and  C_21
REMARK    4  A    between atoms: C_21  and  C_22
REMARK    5  A    between atoms: C_22  and  C_23
REMARK    6  A    between atoms: C_26  and  S_29
REMARK    7  A    between atoms: S_29  and  N_32
REMARK                            x       y       z     vdW  Elec       q    Type
REMARK                         _______ _______ _______ _____ _____    ______ ____
ROOT
ATOM      1  C   UNL     1       1.162   6.203   5.074  0.00  0.00    -0.005 A 
ATOM      2  C   UNL     1       1.160   5.525   3.865  0.00  0.00    +0.050 A 
ATOM      3  C   UNL     1       1.139   6.248   2.669  0.00  0.00    +0.097 A 
ATOM      4  C   UNL     1       1.122   8.280   3.788  0.00  0.00    +0.052 A 
ATOM      5  C   UNL     1       1.143   7.621   5.041  0.00  0.00    +0.010 A 
ATOM      6  C   UNL     1       1.143   8.375   6.222  0.00  0.00    +0.060 A 
ATOM      7  C   UNL     1       1.124   9.741   6.160  0.00  0.00    +0.163 A 
ATOM      8  C   UNL     1       1.105  10.396   4.921  0.00  0.00    +0.164 A 
ATOM      9  C   UNL     1       1.103   9.683   3.754  0.00  0.00    +0.075 A 
ATOM     10  O   UNL     1       1.092  11.757   4.859  0.00  0.00    -0.485 OA
ATOM     11  C   UNL     1       0.715  12.453   6.052  0.00  0.00    +0.270 C 
ATOM     12  C   UNL     1       1.479  11.835   7.230  0.00  0.00    +0.270 C 
ATOM     13  O   UNL     1       1.121  10.452   7.322  0.00  0.00    -0.485 OA
ATOM     14  N   UNL     1       1.126   7.604   2.586  0.00  0.00    -0.343 N 
ATOM     15  H   UNL     1       1.119   8.095   1.684  0.00  0.00    +0.167 HD
ENDROOT
BRANCH   1  19
ATOM     16  C   UNL     1       1.225   4.098   8.766  0.00  0.00    +0.000 A 
ATOM     17  C   UNL     1       0.301   3.757   7.794  0.00  0.00    +0.001 A 
ATOM     18  C   UNL     1       0.276   4.437   6.593  0.00  0.00    +0.008 A 
ATOM     19  C   UNL     1       1.184   5.469   6.361  0.00  0.00    -0.017 A 
ATOM     20  C   UNL     1       2.117   5.805   7.342  0.00  0.00    +0.008 A 
ATOM     21  C   UNL     1       2.128   5.122   8.541  0.00  0.00    +0.001 A 
ENDBRANCH   1  19
BRANCH   3  22
ATOM     22  N   UNL     1       1.137   5.560   1.463  0.00  0.00    -0.330 N 
ATOM     23  H   UNL     1       1.123   6.049   0.625  0.00  0.00    +0.147 HD
BRANCH  22  24
ATOM     24  C   UNL     1       1.157   4.095   1.455  0.00  0.00    +0.107 C 
BRANCH  24  25
ATOM     25  C   UNL     1       1.151   3.592   0.010  0.00  0.00    +0.054 C 
BRANCH  25  26
ATOM     26  C   UNL     1       1.171   2.086   0.002  0.00  0.00    -0.046 A 
ATOM     27  C   UNL     1      -0.017   1.378   0.010  0.00  0.00    +0.005 A 
ATOM     28  C   UNL     1       0.002  -0.004   0.002  0.00  0.00    +0.029 A 
ATOM     29  C   UNL     1       1.208  -0.679  -0.013  0.00  0.00    +0.105 A 
ATOM     30  C   UNL     1       2.396   0.029  -0.021  0.00  0.00    +0.029 A 
ATOM     31  C   UNL     1       2.377   1.411  -0.015  0.00  0.00    +0.005 A 
BRANCH  29  32
ATOM     32  S   UNL     1       1.232  -2.441  -0.022  0.00  0.00    +0.056 S 
ATOM     33  O   UNL     1       2.489  -2.832   0.515  0.00  0.00    -0.153 OA
ATOM     34  O   UNL     1      -0.002  -2.866   0.539  0.00  0.00    -0.153 OA
BRANCH  32  35
ATOM     35  N   UNL     1       1.223  -2.923  -1.606  0.00  0.00    -0.204 NA
ATOM     36  H   UNL     1       1.652  -3.754  -1.862  0.00  0.00    +0.144 HD
ATOM     37  H   UNL     1       0.789  -2.374  -2.277  0.00  0.00    +0.144 HD
ENDBRANCH  32  35
ENDBRANCH  29  32
ENDBRANCH  25  26
ENDBRANCH  24  25
ENDBRANCH  22  24
ENDBRANCH   3  22
TORSDOF 7
