REMARK  Name = ZINC13761726
REMARK  10 active torsions:
REMARK  status: ('A' for Active; 'I' for Inactive)
REMARK    1  A    between atoms: C_1  and  C_2
REMARK    2  A    between atoms: C_2  and  C_3
REMARK    3  A    between atoms: C_2  and  C_4
REMARK    4  A    between atoms: C_4  and  C_5
REMARK    5  A    between atoms: C_5  and  C_7
REMARK    6  A    between atoms: C_5  and  C_23
REMARK    7  A    between atoms: C_11  and  N_13
REMARK    8  A    between atoms: N_13  and  S_14
REMARK    9  A    between atoms: S_14  and  C_17
REMARK   10  A    between atoms: C_24  and  O_36
REMARK                            x       y       z     vdW  Elec       q    Type
REMARK                         _______ _______ _______ _____ _____    ______ ____
ROOT
ATOM      1  C   UNL     1      -2.647   3.759   0.082  0.00  0.00    +0.060 C 
ENDROOT
BRANCH   1   2
ATOM      2  C   UNL     1      -3.415   3.611   1.370  0.00  0.00    +0.086 A 
ATOM      3  C   UNL     1      -2.813   3.890   2.585  0.00  0.00    +0.134 A 
ATOM      4  C   UNL     1      -3.573   3.743   3.761  0.00  0.00    +0.033 A 
ATOM      5  C   UNL     1      -4.854   3.319   3.688  0.00  0.00    +0.116 A 
ATOM      6  O   UNL     1      -5.429   3.050   2.511  0.00  0.00    -0.427 OA
ATOM      7  C   UNL     1      -4.749   3.182   1.358  0.00  0.00    +0.344 A 
ATOM      8  O   UNL     1      -5.295   2.928   0.298  0.00  0.00    -0.245 OA
ATOM      9  C   UNL     1      -5.598   3.151   4.987  0.00  0.00    +0.075 C 
ATOM     10  C   UNL     1      -6.192   4.432   5.478  0.00  0.00    +0.008 C 
ATOM     11  C   UNL     1      -5.277   5.419   6.172  0.00  0.00    +0.000 C 
ATOM     12  C   UNL     1      -4.376   6.130   5.146  0.00  0.00    +0.000 C 
ATOM     13  C   UNL     1      -2.940   5.563   5.302  0.00  0.00    +0.005 C 
ATOM     14  C   UNL     1      -2.989   4.047   5.115  0.00  0.00    +0.042 C 
BRANCH   3  15
ATOM     15  O   UNL     1      -1.524   4.301   2.640  0.00  0.00    -0.506 OA
ATOM     16  H   UNL     1      -1.414   5.261   2.594  0.00  0.00    +0.292 HD
ENDBRANCH   3  15
ENDBRANCH   1   2
BRANCH   1  17
ATOM     17  C   UNL     1      -2.387   2.396  -0.507  0.00  0.00    -0.038 A 
ATOM     18  C   UNL     1      -3.350   1.788  -1.292  0.00  0.00    +0.004 A 
ATOM     19  C   UNL     1      -3.118   0.535  -1.829  0.00  0.00    +0.002 A 
ATOM     20  C   UNL     1      -1.918  -0.107  -1.594  0.00  0.00    +0.024 A 
ATOM     21  C   UNL     1      -0.947   0.503  -0.811  0.00  0.00    +0.048 A 
ATOM     22  C   UNL     1      -1.186   1.759  -0.268  0.00  0.00    +0.028 A 
BRANCH  21  23
ATOM     23  N   UNL     1       0.268  -0.144  -0.571  0.00  0.00    -0.216 N 
ATOM     24  H   UNL     1       0.639  -0.162   0.324  0.00  0.00    +0.174 HD
BRANCH  23  25
ATOM     25  S   UNL     1       1.073  -0.881  -1.817  0.00  0.00    +0.074 S 
ATOM     26  O   UNL     1       2.268  -1.417  -1.266  0.00  0.00    -0.150 OA
ATOM     27  O   UNL     1       0.120  -1.686  -2.497  0.00  0.00    -0.150 OA
BRANCH  25  28
ATOM     28  C   UNL     1       1.560   0.383  -2.943  0.00  0.00    +0.126 A 
ATOM     29  C   UNL     1       0.725   0.754  -3.986  0.00  0.00    +0.032 A 
ATOM     30  C   UNL     1       1.148   1.757  -4.845  0.00  0.00    +0.022 A 
ATOM     31  C   UNL     1       2.383   2.342  -4.641  0.00  0.00    +0.111 A 
ATOM     32  N   UNL     1       3.153   1.961  -3.641  0.00  0.00    -0.261 NA
ATOM     33  C   UNL     1       2.781   1.014  -2.801  0.00  0.00    +0.139 A 
ENDBRANCH  25  28
ENDBRANCH  23  25
ENDBRANCH  21  23
ENDBRANCH   1  17
BRANCH   1  34
ATOM     34  C   UNL     1      -3.464   4.594  -0.906  0.00  0.00    +0.016 C 
BRANCH  34  36
ATOM     35  C   UNL     1      -2.837   6.742   0.207  0.00  0.00    +0.007 C 
ATOM     36  C   UNL     1      -4.004   5.838  -0.197  0.00  0.00    -0.016 C 
ATOM     37  C   UNL     1      -4.935   6.599  -1.143  0.00  0.00    +0.007 C 
ENDBRANCH  34  36
ENDBRANCH   1  34
TORSDOF 8
