REMARK  Name = ZINC35749517
REMARK  12 active torsions:
REMARK  status: ('A' for Active; 'I' for Inactive)
REMARK    1  A    between atoms: C_1  and  C_2
REMARK    2  A    between atoms: C_2  and  C_3
REMARK    3  A    between atoms: C_3  and  C_5
REMARK    4  A    between atoms: C_3  and  N_6
REMARK    5  A    between atoms: C_7  and  C_9
REMARK    6  A    between atoms: C_9  and  C_11
REMARK    7  A    between atoms: C_9  and  N_24
REMARK    8  A    between atoms: N_19  and  C_20
REMARK    9  A    between atoms: C_20  and  C_21
REMARK   10  A    between atoms: C_20  and  C_22
REMARK   11  A    between atoms: C_20  and  C_23
REMARK   12  A    between atoms: C_25  and  C_27
REMARK                            x       y       z     vdW  Elec       q    Type
REMARK                         _______ _______ _______ _____ _____    ______ ____
ROOT
ATOM      1  C   UNL     1      -0.227   0.302  -4.863  0.00  0.00    +0.162 C 
ENDROOT
BRANCH   1   2
ATOM      2  C   UNL     1      -0.880   1.683  -4.765  0.00  0.00    +0.021 C 
ATOM      3  C   UNL     1      -1.726   1.757  -3.491  0.00  0.00    +0.025 C 
ATOM      4  C   UNL     1      -2.350   3.151  -3.379  0.00  0.00    +0.109 C 
ATOM      5  N   UNL     1      -3.093   3.438  -4.614  0.00  0.00    -0.286 N 
ATOM      6  C   UNL     1      -2.398   3.308  -5.902  0.00  0.00    +0.109 C 
ATOM      7  C   UNL     1      -1.773   1.911  -5.986  0.00  0.00    +0.025 C 
ATOM      8  C   UNL     1      -4.387   3.812  -4.566  0.00  0.00    +0.303 C 
ATOM      9  O   UNL     1      -4.979   3.817  -3.505  0.00  0.00    -0.253 OA
ATOM     10  N   UNL     1      -5.023   4.182  -5.696  0.00  0.00    -0.294 N 
ATOM     11  H   UNL     1      -4.572   4.112  -6.551  0.00  0.00    +0.151 HD
BRANCH  10  12
ATOM     12  C   UNL     1      -6.396   4.689  -5.630  0.00  0.00    +0.028 C 
ATOM     13  C   UNL     1      -6.435   5.944  -4.756  0.00  0.00    +0.031 C 
ATOM     14  C   UNL     1      -6.881   5.033  -7.040  0.00  0.00    +0.031 C 
ATOM     15  C   UNL     1      -7.307   3.618  -5.025  0.00  0.00    +0.031 C 
ENDBRANCH  10  12
ENDBRANCH   1   2
BRANCH   1  17
ATOM     16  N   UNL     1      -0.042  -0.496  -2.529  0.00  0.00    -0.311 N 
ATOM     17  C   UNL     1       0.566   0.032  -3.610  0.00  0.00    +0.234 C 
ATOM     18  O   UNL     1       1.750   0.290  -3.574  0.00  0.00    -0.274 OA
ATOM     19  H   UNL     1      -1.002  -0.633  -2.531  0.00  0.00    +0.149 HD
BRANCH  16  20
ATOM     20  C   UNL     1       0.748  -0.865  -1.351  0.00  0.00    +0.070 C 
ATOM     21  C   UNL     1       1.316  -2.273  -1.538  0.00  0.00    +0.028 C 
BRANCH  20  23
ATOM     22  C   UNL     1      -0.612   0.598   0.149  0.00  0.00    +0.005 C 
ATOM     23  C   UNL     1      -0.144  -0.836  -0.109  0.00  0.00    +0.018 C 
ENDBRANCH  20  23
ENDBRANCH  16  20
ENDBRANCH   1  17
BRANCH   1  24
ATOM     24  N   UNL     1       0.667   0.267  -6.023  0.00  0.00    -0.300 N 
ATOM     25  C   UNL     1       0.956  -0.909  -6.614  0.00  0.00    +0.246 C 
ATOM     26  O   UNL     1       0.476  -1.940  -6.185  0.00  0.00    -0.270 OA
ATOM     27  H   UNL     1       1.051   1.089  -6.365  0.00  0.00    +0.150 HD
BRANCH  25  28
ATOM     28  C   UNL     1       1.858  -0.946  -7.785  0.00  0.00    +0.055 A 
ATOM     29  C   UNL     1       2.416   0.236  -8.277  0.00  0.00    +0.014 A 
ATOM     30  C   UNL     1       3.257   0.195  -9.369  0.00  0.00    +0.001 A 
ATOM     31  C   UNL     1       3.548  -1.013  -9.979  0.00  0.00    +0.001 A 
ATOM     32  C   UNL     1       2.999  -2.188  -9.498  0.00  0.00    +0.021 A 
ATOM     33  C   UNL     1       2.160  -2.163  -8.401  0.00  0.00    +0.053 A 
ATOM     34 CL   UNL     1       1.477  -3.639  -7.793  0.00  0.00    -0.083 Cl
ENDBRANCH  25  28
ENDBRANCH   1  24
TORSDOF 7
