REMARK  Name = ZINC20206009
REMARK  9 active torsions:
REMARK  status: ('A' for Active; 'I' for Inactive)
REMARK    1  A    between atoms: C_1  and  C_2
REMARK    2  A    between atoms: C_6  and  C_8
REMARK    3  A    between atoms: C_8  and  O_9
REMARK    4  A    between atoms: O_9  and  C_10
REMARK    5  A    between atoms: C_11  and  O_33
REMARK    6  A    between atoms: C_13  and  C_17
REMARK    7  A    between atoms: C_28  and  S_29
REMARK    8  A    between atoms: S_29  and  C_32
REMARK    9  A    between atoms: O_33  and  C_34
REMARK                            x       y       z     vdW  Elec       q    Type
REMARK                         _______ _______ _______ _____ _____    ______ ____
ROOT
ATOM      1  C   UNL     1       1.474  -3.840   4.164  0.00  0.00    +0.181 A 
ATOM      2  C   UNL     1       1.096  -3.155   5.319  0.00  0.00    +0.164 A 
ATOM      3  C   UNL     1       1.154  -3.783   6.546  0.00  0.00    +0.057 A 
ATOM      4  C   UNL     1       1.594  -5.112   6.628  0.00  0.00    -0.019 A 
ATOM      5  C   UNL     1       1.972  -5.794   5.464  0.00  0.00    +0.032 A 
ATOM      6  C   UNL     1       1.906  -5.159   4.243  0.00  0.00    +0.087 A 
ATOM      7 CL   UNL     1       2.369  -6.006   2.800  0.00  0.00    -0.080 Cl
ENDROOT
BRANCH   4   8
ATOM      8  C   UNL     1       1.658  -5.786   7.928  0.00  0.00    +0.024 C 
ATOM      9  C   UNL     1       1.234  -7.090   8.049  0.00  0.00    +0.079 C 
ATOM     10  C   UNL     1       1.451  -7.876   9.298  0.00  0.00    +0.138 C 
ATOM     11  N   UNL     1       1.459  -7.343  10.490  0.00  0.00    -0.284 NA
ATOM     12  N   UNL     1       1.647  -9.251   9.061  0.00  0.00    -0.201 N 
ATOM     13  C   UNL     1       1.157  -9.791   7.891  0.00  0.00    +0.183 C 
ATOM     14  N   UNL     1       0.599  -9.136   6.898  0.00  0.00    -0.152 NA
ATOM     15  C   UNL     1       0.529  -7.790   6.947  0.00  0.00    +0.273 C 
ATOM     16  O   UNL     1      -0.093  -7.163   6.105  0.00  0.00    -0.268 OA
ATOM     17  S   UNL     1       1.471 -11.420   8.062  0.00  0.00    +0.049 S 
ATOM     18  N   UNL     1       2.294 -11.386   9.522  0.00  0.00    -0.174 NA
ATOM     19  C   UNL     1       2.271 -10.137   9.873  0.00  0.00    +0.257 C 
ATOM     20  H   UNL     1       1.318  -6.390  10.597  0.00  0.00    +0.188 HD
BRANCH  19  21
ATOM     21  S   UNL     1       3.034  -9.607  11.369  0.00  0.00    +0.026 S 
ATOM     22  O   UNL     1       3.933 -10.654  11.709  0.00  0.00    -0.167 OA
ATOM     23  O   UNL     1       3.517  -8.300  11.087  0.00  0.00    -0.167 OA
ATOM     24  C   UNL     1       1.683  -9.525  12.578  0.00  0.00    +0.203 C 
ENDBRANCH  19  21
ENDBRANCH   4   8
BRANCH   2  25
ATOM     25  O   UNL     1       0.669  -1.866   5.235  0.00  0.00    -0.491 OA
ATOM     26  C   UNL     1       0.297  -1.225   6.457  0.00  0.00    +0.277 C 
ENDBRANCH   2  25
BRANCH   1  27
ATOM     27  O   UNL     1       1.416  -3.218   2.958  0.00  0.00    -0.482 OA
BRANCH  27  28
ATOM     28  C   UNL     1       0.189  -3.322   2.234  0.00  0.00    +0.264 C 
BRANCH  28  34
ATOM     29  C   UNL     1      -0.299   0.904  -0.402  0.00  0.00    +0.044 C 
ATOM     30  C   UNL     1       0.076  -0.554  -0.331  0.00  0.00    -0.050 A 
ATOM     31  C   UNL     1       0.532  -1.206  -1.461  0.00  0.00    +0.003 A 
ATOM     32  C   UNL     1       0.876  -2.543  -1.396  0.00  0.00    +0.001 A 
ATOM     33  C   UNL     1       0.765  -3.228  -0.200  0.00  0.00    +0.007 A 
ATOM     34  C   UNL     1       0.310  -2.576   0.930  0.00  0.00    -0.010 A 
ATOM     35  C   UNL     1      -0.030  -1.237   0.866  0.00  0.00    +0.010 A 
ENDBRANCH  28  34
ENDBRANCH  27  28
ENDBRANCH   1  27
TORSDOF 6
