REMARK  Name = ZINC36206404
REMARK  11 active torsions:
REMARK  status: ('A' for Active; 'I' for Inactive)
REMARK    1  A    between atoms: C_1  and  C_2
REMARK    2  A    between atoms: C_2  and  C_3
REMARK    3  A    between atoms: C_3  and  C_4
REMARK    4  A    between atoms: C_4  and  C_6
REMARK    5  A    between atoms: C_4  and  O_33
REMARK    6  A    between atoms: C_6  and  N_7
REMARK    7  A    between atoms: N_7  and  C_8
REMARK    8  A    between atoms: N_7  and  C_14
REMARK    9  A    between atoms: C_8  and  C_9
REMARK   10  A    between atoms: C_14  and  C_15
REMARK   11  A    between atoms: C_21  and  C_26
REMARK                            x       y       z     vdW  Elec       q    Type
REMARK                         _______ _______ _______ _____ _____    ______ ____
ROOT
ATOM      1  C   UNL     1      -3.984  -6.116  -0.317  0.00  0.00    +0.094 A 
ATOM      2  N   UNL     1      -5.120  -6.835  -0.505  0.00  0.00    -0.312 N 
ATOM      3  H   UNL     1      -5.965  -6.370  -0.610  0.00  0.00    +0.170 HD
ATOM      4  C   UNL     1      -5.097  -8.180  -0.550  0.00  0.00    +0.260 A 
ATOM      5  O   UNL     1      -6.126  -8.811  -0.721  0.00  0.00    -0.267 OA
ATOM      6  C   UNL     1      -3.846  -8.858  -0.395  0.00  0.00    +0.080 A 
ATOM      7  C   UNL     1      -3.564 -10.288  -0.407  0.00  0.00    +0.004 A 
ATOM      8  C   UNL     1      -2.285 -10.702  -0.239  0.00  0.00    +0.056 A 
ATOM      9  S   UNL     1      -1.379  -9.178  -0.054  0.00  0.00    -0.076 S 
ATOM     10  C   UNL     1      -2.726  -8.032  -0.205  0.00  0.00    +0.116 A 
ATOM     11  N   UNL     1      -2.827  -6.706  -0.178  0.00  0.00    -0.229 NA
ENDROOT
BRANCH   7  12
ATOM     12  C   UNL     1      -4.657 -11.272  -0.598  0.00  0.00    -0.015 A 
ATOM     13  C   UNL     1      -5.818 -11.186   0.170  0.00  0.00    +0.008 A 
ATOM     14  C   UNL     1      -6.832 -12.104  -0.012  0.00  0.00    +0.002 A 
ATOM     15  C   UNL     1      -6.699 -13.109  -0.954  0.00  0.00    +0.020 A 
ATOM     16  C   UNL     1      -5.548 -13.199  -1.719  0.00  0.00    +0.042 A 
ATOM     17  C   UNL     1      -4.530 -12.282  -1.550  0.00  0.00    +0.028 A 
ATOM     18 CL   UNL     1      -5.389 -14.464  -2.898  0.00  0.00    -0.084 Cl
ENDBRANCH   7  12
BRANCH   1  19
ATOM     19  C   UNL     1      -4.058  -4.611  -0.273  0.00  0.00    -0.003 C 
BRANCH  19  20
ATOM     20  N   UNL     1      -2.712  -4.061  -0.068  0.00  0.00    +0.391 N 
ATOM     21  H   UNL     1      -2.300  -4.478   0.753  0.00  0.00    -0.080 HD
BRANCH  20  22
ATOM     22  C   UNL     1      -2.801  -2.606   0.115  0.00  0.00    -0.046 C 
BRANCH  22  23
ATOM     23  C   UNL     1      -3.501  -2.300   1.441  0.00  0.00    +0.098 C 
BRANCH  23  24
ATOM     24  O   UNL     1      -4.875  -2.682   1.353  0.00  0.00    -0.394 OA
ATOM     25  H   UNL     1      -5.367  -2.224   0.659  0.00  0.00    +0.210 HD
ENDBRANCH  23  24
BRANCH  23  26
ATOM     26  C   UNL     1      -3.406  -0.801   1.733  0.00  0.00    +0.029 C 
BRANCH  26  28
ATOM     27  C   UNL     1      -3.901   0.986   3.408  0.00  0.00    +0.004 C 
ATOM     28  C   UNL     1      -3.995  -0.513   3.116  0.00  0.00    -0.001 C 
ENDBRANCH  26  28
ENDBRANCH  23  26
ENDBRANCH  22  23
ENDBRANCH  20  22
BRANCH  20  29
ATOM     29  C   UNL     1      -1.877  -4.357  -1.239  0.00  0.00    -0.002 C 
BRANCH  29  30
ATOM     30  C   UNL     1      -0.460  -3.920  -0.970  0.00  0.00    +0.089 A 
ATOM     31  C   UNL     1       0.530  -4.705  -0.507  0.00  0.00    +0.042 A 
ATOM     32  C   UNL     1       1.682  -3.892  -0.403  0.00  0.00    +0.041 A 
ATOM     33  C   UNL     1       1.327  -2.659  -0.809  0.00  0.00    +0.195 A 
ATOM     34  O   UNL     1       0.030  -2.684  -1.156  0.00  0.00    -0.470 OA
ENDBRANCH  29  30
ENDBRANCH  20  29
ENDBRANCH  19  20
ENDBRANCH   1  19
TORSDOF 10
