REMARK  Name = ZINC10068052
REMARK  9 active torsions:
REMARK  status: ('A' for Active; 'I' for Inactive)
REMARK    1  A    between atoms: C_1  and  N_51
REMARK    2  A    between atoms: C_2  and  N_51
REMARK    3  A    between atoms: C_3  and  C_4
REMARK    4  A    between atoms: C_3  and  N_51
REMARK    5  A    between atoms: C_4  and  C_5
REMARK    6  A    between atoms: C_5  and  N_6
REMARK    7  A    between atoms: C_17  and  C_19
REMARK    8  A    between atoms: C_20  and  C_21
REMARK    9  A    between atoms: C_25  and  N_27
REMARK                            x       y       z     vdW  Elec       q    Type
REMARK                         _______ _______ _______ _____ _____    ______ ____
ROOT
ATOM      1  N   UNL     1      -2.440   8.092   0.172  0.00  0.00    -0.247 N 
ATOM      2  C   UNL     1      -3.621   7.380   0.283  0.00  0.00    +0.168 A 
ATOM      3  N   UNL     1      -4.854   7.830   0.320  0.00  0.00    -0.223 NA
ATOM      4  C   UNL     1      -5.922   7.011   0.427  0.00  0.00    +0.099 A 
ATOM      5  C   UNL     1      -5.630   5.630   0.510  0.00  0.00    +0.042 A 
ATOM      6  S   UNL     1      -3.856   5.613   0.420  0.00  0.00    -0.052 S 
ATOM      7  C   UNL     1      -6.606   4.672   0.627  0.00  0.00    +0.017 A 
ATOM      8  C   UNL     1      -7.935   5.051   0.669  0.00  0.00    +0.003 A 
ATOM      9  C   UNL     1      -8.260   6.398   0.591  0.00  0.00    +0.022 A 
ATOM     10  C   UNL     1      -7.292   7.363   0.473  0.00  0.00    +0.067 A 
ATOM     11 CL   UNL     1      -7.752   9.034   0.379  0.00  0.00    -0.081 Cl
ATOM     12  C   UNL     1      -1.268   7.439   0.047  0.00  0.00    +0.245 C 
ATOM     13  O   UNL     1      -1.255   6.227  -0.058  0.00  0.00    -0.270 OA
ENDROOT
BRANCH  12  14
ATOM     14  C   UNL     1      -0.010   8.187   0.037  0.00  0.00    +0.068 C 
ATOM     15  C   UNL     1       1.167   7.529   0.023  0.00  0.00    +0.013 C 
BRANCH  15  16
ATOM     16  C   UNL     1       2.431   8.281   0.013  0.00  0.00    -0.023 A 
ATOM     17  C   UNL     1       2.417   9.680   0.018  0.00  0.00    +0.008 A 
ATOM     18  C   UNL     1       3.606  10.378   0.014  0.00  0.00    +0.003 A 
ATOM     19  C   UNL     1       4.812   9.698  -0.006  0.00  0.00    +0.033 A 
ATOM     20  C   UNL     1       4.834   8.314  -0.011  0.00  0.00    +0.127 A 
ATOM     21  C   UNL     1       3.653   7.602  -0.002  0.00  0.00    +0.040 A 
BRANCH  20  22
ATOM     22  N   UNL     1       6.129   7.597  -0.027  0.00  0.00    +0.056 N 
ATOM     23  O   UNL     1       7.173   8.225  -0.036  0.00  0.00    -0.126 OA
ATOM     24  O   UNL     1       6.150   6.379  -0.031  0.00  0.00    -0.126 OA
ENDBRANCH  20  22
ENDBRANCH  15  16
ENDBRANCH  12  14
BRANCH   1  25
ATOM     25  C   UNL     1      -2.464   9.557   0.190  0.00  0.00    +0.114 C 
BRANCH  25  26
ATOM     26  C   UNL     1      -2.616  10.082  -1.239  0.00  0.00    +0.001 C 
BRANCH  26  27
ATOM     27  C   UNL     1      -2.641  11.612  -1.221  0.00  0.00    -0.078 C 
BRANCH  27  30
ATOM     28  C   UNL     1      -4.097  11.752  -3.150  0.00  0.00    -0.097 C 
ATOM     29  C   UNL     1      -2.579  13.569  -2.644  0.00  0.00    -0.097 C 
ATOM     30  N   UNL     1      -2.768  12.104  -2.609  0.00  0.00    +0.376 N 
ATOM     31  H   UNL     1      -2.044  11.660  -3.187  0.00  0.00    -0.083 HD
ENDBRANCH  27  30
ENDBRANCH  26  27
ENDBRANCH  25  26
ENDBRANCH   1  25
TORSDOF 7
