REMARK  Name = ZINC00507810
REMARK  3 active torsions:
REMARK  status: ('A' for Active; 'I' for Inactive)
REMARK    1  A    between atoms: C_4  and  N_20
REMARK    2  A    between atoms: C_5  and  C_7
REMARK    3  A    between atoms: N_9  and  N_10
REMARK                            x       y       z     vdW  Elec       q    Type
REMARK                         _______ _______ _______ _____ _____    ______ ____
ROOT
ATOM      1  C   UNL     1       2.641   5.438   0.500  0.00  0.00    +0.262 C 
ATOM      2  O   UNL     1       1.645   6.111   0.312  0.00  0.00    -0.269 OA
ATOM      3  N   UNL     1       2.525   4.173   0.950  0.00  0.00    -0.231 N 
ATOM      4  H   UNL     1       3.319   3.637   1.100  0.00  0.00    +0.173 HD
ENDROOT
BRANCH   3   5
ATOM      5  N   UNL     1       1.257   3.632   1.200  0.00  0.00    -0.242 N 
ATOM      6  C   UNL     1       1.138   2.337   1.661  0.00  0.00    +0.176 A 
ATOM      7  N   UNL     1       0.049   1.661   1.950  0.00  0.00    -0.224 NA
ATOM      8  C   UNL     1       0.083   0.386   2.395  0.00  0.00    +0.080 A 
ATOM      9  C   UNL     1      -1.006  -0.447   2.739  0.00  0.00    +0.029 A 
ATOM     10  C   UNL     1      -0.796  -1.729   3.178  0.00  0.00    +0.002 A 
ATOM     11  C   UNL     1       0.482  -2.252   3.300  0.00  0.00    +0.001 A 
ATOM     12  C   UNL     1       1.571  -1.465   2.972  0.00  0.00    +0.017 A 
ATOM     13  C   UNL     1       1.370  -0.181   2.532  0.00  0.00    +0.041 A 
ATOM     14  S   UNL     1       2.427   1.150   2.014  0.00  0.00    -0.051 S 
ATOM     15  H   UNL     1       0.463   4.168   1.050  0.00  0.00    +0.172 HD
ENDBRANCH   3   5
BRANCH   1  20
ATOM     16  C   UNL     1       6.357   5.740   0.077  0.00  0.00    +0.001 A 
ATOM     17  C   UNL     1       6.487   7.078  -0.260  0.00  0.00    +0.002 A 
ATOM     18  C   UNL     1       5.373   7.887  -0.350  0.00  0.00    +0.023 A 
ATOM     19  C   UNL     1       4.110   7.362  -0.104  0.00  0.00    +0.037 A 
ATOM     20  C   UNL     1       3.975   6.008   0.236  0.00  0.00    +0.059 A 
ATOM     21  C   UNL     1       5.114   5.203   0.330  0.00  0.00    +0.015 A 
BRANCH  19  22
ATOM     22  N   UNL     1       2.987   8.175  -0.195  0.00  0.00    -0.357 N 
ATOM     23  H   UNL     1       2.178   7.938   0.285  0.00  0.00    +0.142 HD
ATOM     24  H   UNL     1       3.012   8.978  -0.737  0.00  0.00    +0.142 HD
ENDBRANCH  19  22
ENDBRANCH   1  20
TORSDOF 3
