REMARK  Name = ZINC20709516
REMARK  6 active torsions:
REMARK  status: ('A' for Active; 'I' for Inactive)
REMARK    1  A    between atoms: C_4  and  C_7
REMARK    2  A    between atoms: C_7  and  N_8
REMARK    3  A    between atoms: C_9  and  C_11
REMARK    4  A    between atoms: C_18  and  C_27
REMARK    5  A    between atoms: C_29  and  N_34
REMARK    6  A    between atoms: C_32  and  O_33
REMARK                            x       y       z     vdW  Elec       q    Type
REMARK                         _______ _______ _______ _____ _____    ______ ____
ROOT
ATOM      1  C   UNL     1       6.314  -0.460  -0.127  0.00  0.00    +0.058 A 
ATOM      2  C   UNL     1       6.907  -1.329  -1.041  0.00  0.00    +0.015 A 
ATOM      3  C   UNL     1       6.514  -1.316  -2.361  0.00  0.00    +0.001 A 
ATOM      4  C   UNL     1       5.522  -0.442  -2.777  0.00  0.00    +0.006 A 
ATOM      5  C   UNL     1       4.920   0.419  -1.886  0.00  0.00    -0.019 A 
ATOM      6  C   UNL     1       5.308   0.437  -0.543  0.00  0.00    +0.044 A 
ATOM      7  N   UNL     1       4.784   1.298   0.409  0.00  0.00    -0.336 N 
ATOM      8  C   UNL     1       3.682   2.172  -0.022  0.00  0.00    +0.108 C 
ATOM      9  C   UNL     1       4.001   2.631  -1.430  0.00  0.00    +0.029 C 
ATOM     10  C   UNL     1       3.849   1.348  -2.306  0.00  0.00    +0.049 C 
ATOM     11  C   UNL     1       3.724   1.906  -3.684  0.00  0.00    -0.023 C 
ATOM     12  C   UNL     1       3.221   3.134  -3.613  0.00  0.00    -0.030 C 
ATOM     13  C   UNL     1       2.974   3.512  -2.150  0.00  0.00    +0.033 C 
ATOM     14  H   UNL     1       5.153   1.348   1.444  0.00  0.00    +0.147 HD
ENDROOT
BRANCH   8  15
ATOM     15  C   UNL     1       2.385   1.405  -0.014  0.00  0.00    +0.017 A 
ATOM     16  C   UNL     1       2.398   0.024  -0.021  0.00  0.00    +0.041 A 
ATOM     17  C   UNL     1       1.208  -0.680  -0.013  0.00  0.00    +0.127 A 
ATOM     18  C   UNL     1       0.002  -0.004   0.002  0.00  0.00    +0.036 A 
ATOM     19  C   UNL     1      -0.017   1.377   0.010  0.00  0.00    +0.048 A 
ATOM     20  C   UNL     1       1.176   2.086   0.002  0.00  0.00    +0.122 A 
BRANCH  17  21
ATOM     21  N   UNL     1       1.225  -2.160  -0.021  0.00  0.00    +0.056 N 
ATOM     22  O   UNL     1       0.178  -2.781  -0.015  0.00  0.00    -0.126 OA
ATOM     23  O   UNL     1       2.287  -2.757  -0.035  0.00  0.00    -0.126 OA
ENDBRANCH  17  21
BRANCH  20  24
ATOM     24  O   UNL     1       1.160   3.445   0.009  0.00  0.00    -0.506 OA
ATOM     25  H   UNL     1       0.201   3.984   0.021  0.00  0.00    +0.292 HD
ENDBRANCH  20  24
ENDBRANCH   8  15
BRANCH   1  27
ATOM     26  N   UNL     1       7.700  -1.336   1.687  0.00  0.00    -0.307 N 
ATOM     27  C   UNL     1       6.739  -0.480   1.284  0.00  0.00    +0.246 C 
ATOM     28  O   UNL     1       6.224   0.276   2.086  0.00  0.00    -0.270 OA
ATOM     29  H   UNL     1       8.166  -2.019   0.962  0.00  0.00    +0.149 HD
BRANCH  26  30
ATOM     30  C   UNL     1       8.123  -1.356   3.089  0.00  0.00    +0.139 C 
BRANCH  30  34
ATOM     31  C   UNL     1      11.176  -4.296   3.615  0.00  0.00    +0.000 A 
ATOM     32  C   UNL     1      11.517  -2.996   3.290  0.00  0.00    +0.000 A 
ATOM     33  C   UNL     1      10.528  -2.045   3.119  0.00  0.00    +0.005 A 
ATOM     34  C   UNL     1       9.200  -2.393   3.275  0.00  0.00    -0.030 A 
ATOM     35  C   UNL     1       8.860  -3.691   3.605  0.00  0.00    +0.005 A 
ATOM     36  C   UNL     1       9.847  -4.644   3.770  0.00  0.00    +0.000 A 
ENDBRANCH  30  34
ENDBRANCH  26  30
ENDBRANCH   1  27
TORSDOF 6
