REMARK  Name = ZINC06846811
REMARK  8 active torsions:
REMARK  status: ('A' for Active; 'I' for Inactive)
REMARK    1  A    between atoms: C_1  and  C_2
REMARK    2  A    between atoms: N_9  and  N_10
REMARK    3  A    between atoms: C_11  and  C_13
REMARK    4  A    between atoms: C_13  and  O_14
REMARK    5  A    between atoms: O_14  and  C_15
REMARK    6  A    between atoms: N_27  and  C_28
REMARK    7  A    between atoms: C_28  and  C_29
REMARK    8  A    between atoms: C_28  and  C_30
REMARK                            x       y       z     vdW  Elec       q    Type
REMARK                         _______ _______ _______ _____ _____    ______ ____
ROOT
ATOM      1  N   UNL     1       0.148  -1.614   4.055  0.00  0.00    -0.203 N 
ATOM      2  C   UNL     1       0.253  -1.415   5.384  0.00  0.00    +0.270 C 
ATOM      3  O   UNL     1       0.270  -2.363   6.139  0.00  0.00    -0.270 OA
ATOM      4  H   UNL     1       0.135  -0.855   3.451  0.00  0.00    +0.177 HD
ENDROOT
BRANCH   1  13
ATOM      5  C   UNL     1       1.040   1.409   0.030  0.00  0.00    +0.044 C 
ATOM      6  C   UNL     1       0.754  -0.070   0.016  0.00  0.00    -0.050 A 
ATOM      7  C   UNL     1       0.673  -0.748  -1.189  0.00  0.00    +0.005 A 
ATOM      8  C   UNL     1       0.412  -2.103  -1.218  0.00  0.00    +0.024 A 
ATOM      9  C   UNL     1       0.227  -2.803  -0.031  0.00  0.00    +0.046 A 
ATOM     10  C   UNL     1       0.310  -2.114   1.186  0.00  0.00    +0.029 A 
ATOM     11  C   UNL     1       0.580  -0.750   1.205  0.00  0.00    +0.015 A 
ATOM     12  C   UNL     1       0.072  -3.116   2.251  0.00  0.00    +0.153 C 
ATOM     13  N   UNL     1       0.058  -2.916   3.547  0.00  0.00    -0.174 NA
ATOM     14  C   UNL     1      -0.145  -4.390   1.535  0.00  0.00    +0.272 C 
ATOM     15  O   UNL     1      -0.375  -5.469   2.047  0.00  0.00    -0.268 OA
ATOM     16  N   UNL     1      -0.043  -4.145   0.218  0.00  0.00    -0.263 N 
BRANCH  16  17
ATOM     17  C   UNL     1      -0.197  -5.162  -0.825  0.00  0.00    +0.076 C 
ATOM     18  C   UNL     1       0.857  -6.254  -0.632  0.00  0.00    +0.028 C 
ATOM     19  C   UNL     1      -1.594  -5.780  -0.733  0.00  0.00    +0.028 C 
ENDBRANCH  16  17
ENDBRANCH   1  13
BRANCH   2  20
ATOM     20  C   UNL     1       0.351  -0.014   5.931  0.00  0.00    +0.326 C 
BRANCH  20  21
ATOM     21  O   UNL     1       0.453  -0.065   7.356  0.00  0.00    -0.483 OA
BRANCH  21  22
ATOM     22  C   UNL     1       0.549   1.122   8.010  0.00  0.00    +0.122 A 
ATOM     23  C   UNL     1       0.539   2.315   7.281  0.00  0.00    +0.046 A 
ATOM     24  C   UNL     1       0.634   3.518   7.907  0.00  0.00    +0.012 A 
ATOM     25  C   UNL     1       0.743   3.568   9.308  0.00  0.00    -0.018 A 
ATOM     26  C   UNL     1       0.843   4.794   9.987  0.00  0.00    +0.008 A 
ATOM     27  C   UNL     1       0.947   4.806  11.344  0.00  0.00    +0.001 A 
ATOM     28  C   UNL     1       0.957   3.618  12.074  0.00  0.00    +0.001 A 
ATOM     29  C   UNL     1       0.863   2.412  11.450  0.00  0.00    +0.008 A 
ATOM     30  C   UNL     1       0.753   2.360  10.049  0.00  0.00    -0.014 A 
ATOM     31  C   UNL     1       0.649   1.134   9.372  0.00  0.00    +0.054 A 
ENDBRANCH  21  22
ENDBRANCH  20  21
ENDBRANCH   2  20
TORSDOF 5
