REMARK  Name = ZINC23083040
REMARK  5 active torsions:
REMARK  status: ('A' for Active; 'I' for Inactive)
REMARK    1  A    between atoms: C_4  and  C_7
REMARK    2  A    between atoms: C_7  and  N_8
REMARK    3  A    between atoms: N_16  and  C_17
REMARK    4  A    between atoms: C_17  and  C_19
REMARK    5  A    between atoms: C_26  and  C_28
REMARK                            x       y       z     vdW  Elec       q    Type
REMARK                         _______ _______ _______ _____ _____    ______ ____
ROOT
ATOM      1  N   UNL     1       3.815   0.122   2.127  0.00  0.00    +0.386 N 
ATOM      2  C   UNL     1       5.170  -0.436   2.024  0.00  0.00    -0.072 C 
ATOM      3  C   UNL     1       5.794  -0.569   3.417  0.00  0.00    +0.035 C 
ATOM      4  C   UNL     1       4.817  -1.336   4.299  0.00  0.00    +0.024 A 
ATOM      5  C   UNL     1       3.532  -1.454   3.924  0.00  0.00    -0.004 A 
ATOM      6  S   UNL     1       2.803  -2.404   5.226  0.00  0.00    -0.059 S 
ATOM      7  C   UNL     1       4.175  -2.599   6.182  0.00  0.00    +0.163 A 
ATOM      8  N   UNL     1       5.137  -1.940   5.483  0.00  0.00    -0.339 N 
ATOM      9  N   UNL     1       4.291  -3.245   7.344  0.00  0.00    -0.156 NA
ATOM     10  C   UNL     1       2.906  -0.895   2.689  0.00  0.00    -0.033 C 
ATOM     11  H   UNL     1       6.045  -1.898   5.822  0.00  0.00    +0.167 HD
ATOM     12  H   UNL     1       3.828   0.931   2.729  0.00  0.00    -0.081 HD
ENDROOT
BRANCH   9  13
ATOM     13  C   UNL     1       5.464  -3.295   7.962  0.00  0.00    +0.243 C 
ATOM     14  O   UNL     1       6.434  -2.752   7.468  0.00  0.00    -0.273 OA
BRANCH  13  15
ATOM     15  C   UNL     1       5.594  -4.024   9.274  0.00  0.00    +0.094 C 
ATOM     16  C   UNL     1       7.040  -3.932   9.768  0.00  0.00    +0.016 C 
ATOM     17  C   UNL     1       7.166  -4.644  11.117  0.00  0.00    +0.020 C 
ATOM     18  C   UNL     1       6.807  -6.123  10.945  0.00  0.00    +0.108 C 
ATOM     19  N   UNL     1       5.474  -6.218  10.335  0.00  0.00    -0.297 N 
ATOM     20  C   UNL     1       5.217  -5.496   9.081  0.00  0.00    +0.121 C 
ATOM     21  C   UNL     1       4.505  -6.954  10.914  0.00  0.00    +0.250 C 
ATOM     22  O   UNL     1       4.748  -7.602  11.914  0.00  0.00    -0.270 OA
BRANCH  21  23
ATOM     23  C   UNL     1       3.149  -6.975  10.335  0.00  0.00    +0.074 A 
ATOM     24  C   UNL     1       2.792  -7.052   8.911  0.00  0.00    +0.054 A 
ATOM     25  C   UNL     1       1.452  -7.043   8.865  0.00  0.00    +0.195 A 
ATOM     26  O   UNL     1       0.970  -6.968  10.116  0.00  0.00    -0.470 OA
ATOM     27  C   UNL     1       1.964  -6.932  11.008  0.00  0.00    +0.207 A 
ENDBRANCH  21  23
ENDBRANCH  13  15
ENDBRANCH   9  13
BRANCH   1  28
ATOM     28  C   UNL     1       3.345   0.514   0.791  0.00  0.00    -0.043 C 
BRANCH  28  32
ATOM     29  C   UNL     1      -0.448   2.451   1.127  0.00  0.00    +0.000 A 
ATOM     30  C   UNL     1       0.716   3.194   1.190  0.00  0.00    +0.000 A 
ATOM     31  C   UNL     1       1.943   2.567   1.082  0.00  0.00    +0.002 A 
ATOM     32  C   UNL     1       2.007   1.197   0.910  0.00  0.00    -0.064 A 
ATOM     33  C   UNL     1       0.843   0.454   0.848  0.00  0.00    +0.002 A 
ATOM     34  C   UNL     1      -0.384   1.081   0.955  0.00  0.00    +0.000 A 
ENDBRANCH  28  32
ENDBRANCH   1  28
TORSDOF 5
