REMARK  Name = ZINC39655977
REMARK  6 active torsions:
REMARK  status: ('A' for Active; 'I' for Inactive)
REMARK    1  A    between atoms: C_1  and  C_2
REMARK    2  A    between atoms: C_8  and  C_11
REMARK    3  A    between atoms: C_11  and  C_12
REMARK    4  A    between atoms: C_12  and  N_13
REMARK    5  A    between atoms: C_14  and  C_16
REMARK    6  A    between atoms: C_27  and  C_29
REMARK                            x       y       z     vdW  Elec       q    Type
REMARK                         _______ _______ _______ _____ _____    ______ ____
ROOT
ATOM      1  C   UNL     1       5.184  -0.231  -7.215  0.00  0.00    +0.100 C 
ATOM      2  C   UNL     1       5.056   0.649  -8.478  0.00  0.00    +0.121 C 
ATOM      3  N   UNL     1       5.795  -0.093  -9.527  0.00  0.00    -0.296 N 
ATOM      4  C   UNL     1       5.455  -1.515  -9.282  0.00  0.00    +0.115 C 
ATOM      5  C   UNL     1       5.445  -1.651  -7.747  0.00  0.00    -0.004 C 
ATOM      6  C   UNL     1       4.328  -2.593  -7.309  0.00  0.00    -0.010 C 
ATOM      7  C   UNL     1       4.639  -4.010  -7.800  0.00  0.00    -0.082 C 
ATOM      8  N   UNL     1       5.925  -4.450  -7.245  0.00  0.00    +0.379 N 
ATOM      9  C   UNL     1       7.006  -3.594  -7.746  0.00  0.00    -0.082 C 
ATOM     10  C   UNL     1       6.795  -2.160  -7.252  0.00  0.00    -0.010 C 
ATOM     11  C   UNL     1       6.596   0.412 -10.487  0.00  0.00    +0.248 C 
ATOM     12  O   UNL     1       7.060  -0.321 -11.339  0.00  0.00    -0.270 OA
ATOM     13  H   UNL     1       5.892  -4.394  -6.238  0.00  0.00    -0.086 HD
ATOM     14  H   UNL     1       6.098  -5.405  -7.520  0.00  0.00    -0.086 HD
ENDROOT
BRANCH  11  15
ATOM     15  C   UNL     1       6.910   1.856 -10.503  0.00  0.00    +0.057 A 
ATOM     16  C   UNL     1       5.946   2.788 -10.115  0.00  0.00    +0.014 A 
ATOM     17  C   UNL     1       6.245   4.134 -10.132  0.00  0.00    +0.002 A 
ATOM     18  C   UNL     1       7.498   4.564 -10.533  0.00  0.00    +0.021 A 
ATOM     19  C   UNL     1       8.460   3.647 -10.919  0.00  0.00    +0.060 A 
ATOM     20  C   UNL     1       8.176   2.294 -10.900  0.00  0.00    +0.071 A 
ATOM     21 CL   UNL     1       9.385   1.143 -11.377  0.00  0.00    -0.081 Cl
ATOM     22 CL   UNL     1      10.029   4.196 -11.420  0.00  0.00    -0.082 Cl
ENDBRANCH  11  15
BRANCH   1  24
ATOM     23  N   UNL     1       3.937  -0.366  -5.083  0.00  0.00    -0.315 N 
ATOM     24  C   UNL     1       3.904  -0.196  -6.419  0.00  0.00    +0.218 C 
ATOM     25  O   UNL     1       2.845  -0.015  -6.982  0.00  0.00    -0.275 OA
ATOM     26  H   UNL     1       4.784  -0.511  -4.633  0.00  0.00    +0.149 HD
BRANCH  23  27
ATOM     27  C   UNL     1       2.693  -0.332  -4.310  0.00  0.00    +0.109 C 
BRANCH  27  28
ATOM     28  C   UNL     1       3.007  -0.549  -2.828  0.00  0.00    +0.056 C 
BRANCH  28  36
ATOM     29  C   UNL     1      -0.233  -5.235  -2.228  0.00  0.00    +0.044 C 
ATOM     30  C   UNL     1      -0.224  -3.789  -1.805  0.00  0.00    -0.050 A 
ATOM     31  C   UNL     1      -1.258  -3.293  -1.024  0.00  0.00    +0.005 A 
ATOM     32  C   UNL     1      -1.269  -1.973  -0.627  0.00  0.00    +0.026 A 
ATOM     33  C   UNL     1      -0.234  -1.128  -1.012  0.00  0.00    +0.047 A 
ATOM     34  N   UNL     1       0.037   0.203  -0.785  0.00  0.00    -0.360 N 
ATOM     35  C   UNL     1       1.209   0.550  -1.401  0.00  0.00    +0.087 A 
ATOM     36  C   UNL     1       1.727  -0.514  -2.033  0.00  0.00    -0.021 A 
ATOM     37  C   UNL     1       0.813  -1.635  -1.803  0.00  0.00    +0.003 A 
ATOM     38  C   UNL     1       0.806  -2.977  -2.190  0.00  0.00    +0.013 A 
ATOM     39  H   UNL     1      -0.519   0.805  -0.267  0.00  0.00    +0.165 HD
ENDBRANCH  28  36
ENDBRANCH  27  28
ENDBRANCH  23  27
ENDBRANCH   1  24
TORSDOF 5
