REMARK  Name = ZINC06221538
REMARK  7 active torsions:
REMARK  status: ('A' for Active; 'I' for Inactive)
REMARK    1  A    between atoms: C_6  and  C_7
REMARK    2  A    between atoms: C_7  and  O_8
REMARK    3  A    between atoms: O_8  and  C_9
REMARK    4  A    between atoms: C_12  and  C_16
REMARK    5  A    between atoms: N_17  and  N_18
REMARK    6  A    between atoms: N_18  and  C_19
REMARK    7  A    between atoms: C_19  and  N_21
REMARK                            x       y       z     vdW  Elec       q    Type
REMARK                         _______ _______ _______ _____ _____    ______ ____
ROOT
ATOM      1  C   UNL     1      -2.917   2.994   1.557  0.00  0.00    +0.135 A 
ATOM      2  C   UNL     1      -3.656   3.417   0.460  0.00  0.00    +0.047 A 
ATOM      3  C   UNL     1      -4.851   4.078   0.645  0.00  0.00    +0.013 A 
ATOM      4  C   UNL     1      -5.314   4.333   1.939  0.00  0.00    -0.004 A 
ATOM      5  C   UNL     1      -4.564   3.911   3.040  0.00  0.00    +0.028 A 
ATOM      6  C   UNL     1      -3.372   3.245   2.846  0.00  0.00    +0.060 A 
ATOM      7 BR   UNL     1      -2.356   2.674   4.335  0.00  0.00    -0.046 Br
ENDROOT
BRANCH   4   8
ATOM      8  C   UNL     1      -6.588   5.045   2.141  0.00  0.00    +0.138 C 
ATOM      9  N   UNL     1      -7.283   5.436   1.117  0.00  0.00    -0.188 NA
BRANCH   9  10
ATOM     10  N   UNL     1      -8.495   6.113   1.310  0.00  0.00    -0.219 N 
ATOM     11  H   UNL     1      -8.814   6.290   2.208  0.00  0.00    +0.176 HD
BRANCH  10  12
ATOM     12  C   UNL     1      -9.216   6.519   0.246  0.00  0.00    +0.147 C 
ATOM     13  S   UNL     1     -10.696   7.346   0.481  0.00  0.00    -0.017 S 
BRANCH  12  14
ATOM     14  N   UNL     1      -8.772   6.274  -1.003  0.00  0.00    -0.339 N 
ATOM     15  H   UNL     1      -7.933   5.805  -1.136  0.00  0.00    +0.144 HD
ATOM     16  H   UNL     1      -9.291   6.566  -1.768  0.00  0.00    +0.144 HD
ENDBRANCH  12  14
ENDBRANCH  10  12
ENDBRANCH   9  10
ENDBRANCH   4   8
BRANCH   1  17
ATOM     17  O   UNL     1      -1.742   2.338   1.370  0.00  0.00    -0.486 OA
BRANCH  17  18
ATOM     18  C   UNL     1      -1.332   2.113   0.020  0.00  0.00    +0.264 C 
BRANCH  18  24
ATOM     19  C   UNL     1       1.170   2.087   0.002  0.00  0.00    +0.010 A 
ATOM     20  C   UNL     1       2.377   1.414  -0.013  0.00  0.00    +0.039 A 
ATOM     21  C   UNL     1       2.397   0.029  -0.021  0.00  0.00    +0.123 A 
ATOM     22  C   UNL     1       1.208  -0.679  -0.013  0.00  0.00    +0.039 A 
ATOM     23  C   UNL     1       0.002  -0.004   0.002  0.00  0.00    +0.010 A 
ATOM     24  C   UNL     1      -0.017   1.378   0.010  0.00  0.00    -0.010 A 
ATOM     25  F   UNL     1       3.577  -0.630  -0.035  0.00  0.00    -0.205 F 
ENDBRANCH  18  24
ENDBRANCH  17  18
ENDBRANCH   1  17
TORSDOF 7
