REMARK  Name = ZINC67650041
REMARK  6 active torsions:
REMARK  status: ('A' for Active; 'I' for Inactive)
REMARK    1  A    between atoms: C_1  and  C_2
REMARK    2  A    between atoms: C_2  and  C_3
REMARK    3  A    between atoms: C_3  and  N_4
REMARK    4  A    between atoms: C_8  and  C_9
REMARK    5  A    between atoms: C_9  and  N_10
REMARK    6  A    between atoms: C_19  and  C_21
REMARK                            x       y       z     vdW  Elec       q    Type
REMARK                         _______ _______ _______ _____ _____    ______ ____
ROOT
ATOM      1  N   UNL     1      -2.227  -1.876  -0.972  0.00  0.00    -0.282 NA
ATOM      2  C   UNL     1      -1.579  -0.872  -0.115  0.00  0.00    +0.092 C 
ATOM      3  C   UNL     1      -2.302  -0.807   1.238  0.00  0.00    +0.070 C 
ATOM      4  C   UNL     1      -3.781  -0.696   0.966  0.00  0.00    +0.040 A 
ATOM      5  C   UNL     1      -4.341  -0.968  -0.234  0.00  0.00    +0.059 A 
ATOM      6  N   UNL     1      -5.656  -0.767  -0.129  0.00  0.00    -0.348 N 
ATOM      7  C   UNL     1      -5.934  -0.383   1.091  0.00  0.00    +0.171 A 
ATOM      8  N   UNL     1      -4.785  -0.328   1.804  0.00  0.00    -0.349 N 
ATOM      9  H   UNL     1      -4.695  -0.075   2.736  0.00  0.00    +0.166 HD
ATOM     10  C   UNL     1      -3.548  -1.418  -1.435  0.00  0.00    +0.143 C 
ATOM     11  H   UNL     1      -6.302  -0.886  -0.842  0.00  0.00    +0.166 HD
ENDROOT
BRANCH  10  12
ATOM     12  C   UNL     1      -4.266  -2.552  -2.122  0.00  0.00    +0.014 A 
ATOM     13  C   UNL     1      -5.026  -2.525  -3.243  0.00  0.00    +0.014 A 
ATOM     14  C   UNL     1      -5.594  -3.701  -3.697  0.00  0.00    +0.028 A 
ATOM     15  C   UNL     1      -5.372  -4.847  -3.005  0.00  0.00    +0.078 A 
ATOM     16  S   UNL     1      -4.327  -4.279  -1.674  0.00  0.00    -0.080 S 
ATOM     17 CL   UNL     1      -5.948  -6.452  -3.334  0.00  0.00    -0.076 Cl
ENDBRANCH  10  12
BRANCH   1  18
ATOM     18  C   UNL     1      -1.366  -2.234  -2.107  0.00  0.00    +0.157 C 
BRANCH  18  23
ATOM     19  N   UNL     1       0.129  -4.101  -1.243  0.00  0.00    -0.335 N 
ATOM     20  C   UNL     1       1.432  -4.211  -0.838  0.00  0.00    +0.104 A 
ATOM     21  C   UNL     1       1.980  -2.986  -0.949  0.00  0.00    +0.101 A 
ATOM     22  N   UNL     1       1.037  -2.150  -1.410  0.00  0.00    -0.349 N 
ATOM     23  C   UNL     1      -0.072  -2.812  -1.593  0.00  0.00    +0.101 A 
ATOM     24  H   UNL     1       1.162  -1.204  -1.583  0.00  0.00    +0.166 HD
BRANCH  19  25
ATOM     25  C   UNL     1      -0.860  -5.181  -1.294  0.00  0.00    +0.122 C 
BRANCH  25  27
ATOM     26  C   UNL     1      -1.819  -6.995  -2.719  0.00  0.00    +0.005 C 
ATOM     27  C   UNL     1      -0.882  -5.785  -2.699  0.00  0.00    +0.018 C 
ENDBRANCH  25  27
ENDBRANCH  19  25
ENDBRANCH  18  23
ENDBRANCH   1  18
TORSDOF 5
