REMARK  Name = ZINC55183191
REMARK  7 active torsions:
REMARK  status: ('A' for Active; 'I' for Inactive)
REMARK    1  A    between atoms: C_4  and  C_7
REMARK    2  A    between atoms: C_7  and  C_8
REMARK    3  A    between atoms: C_8  and  C_10
REMARK    4  A    between atoms: C_8  and  O_35
REMARK    5  A    between atoms: N_17  and  C_21
REMARK    6  A    between atoms: C_21  and  C_22
REMARK    7  A    between atoms: C_27  and  C_28
REMARK                            x       y       z     vdW  Elec       q    Type
REMARK                         _______ _______ _______ _____ _____    ______ ____
ROOT
ATOM      1  C   UNL     1       5.422  -1.804   1.383  0.00  0.00    -0.018 A 
ATOM      2  C   UNL     1       6.658  -1.201   1.241  0.00  0.00    +0.010 A 
ATOM      3  C   UNL     1       7.809  -1.966   1.236  0.00  0.00    +0.046 A 
ATOM      4  C   UNL     1       7.717  -3.345   1.369  0.00  0.00    +0.125 A 
ATOM      5  C   UNL     1       6.479  -3.944   1.494  0.00  0.00    +0.009 A 
ATOM      6  C   UNL     1       5.331  -3.179   1.518  0.00  0.00    +0.014 A 
ATOM      7  C   UNL     1       6.389  -5.455   1.583  0.00  0.00    +0.123 C 
ATOM      8  N   UNL     1       6.963  -5.889   2.862  0.00  0.00    -0.291 NA
ATOM      9  C   UNL     1       8.416  -6.031   2.804  0.00  0.00    +0.126 C 
ATOM     10  C   UNL     1       9.148  -4.715   2.653  0.00  0.00    +0.244 C 
ATOM     11  O   UNL     1       8.845  -4.106   1.392  0.00  0.00    -0.490 OA
ENDROOT
BRANCH   1  12
ATOM     12  C   UNL     1       4.171  -0.963   1.399  0.00  0.00    +0.149 C 
BRANCH  12  13
ATOM     13  O   UNL     1       4.444   0.284   2.041  0.00  0.00    -0.387 OA
ATOM     14  H   UNL     1       5.134   0.806   1.609  0.00  0.00    +0.210 HD
ENDBRANCH  12  13
BRANCH  12  15
ATOM     15  C   UNL     1       3.711  -0.707  -0.038  0.00  0.00    +0.071 C 
BRANCH  15  19
ATOM     16  C   UNL     1      -0.017   1.378   0.010  0.00  0.00    +0.000 A 
ATOM     17  C   UNL     1       1.171   2.086   0.002  0.00  0.00    +0.000 A 
ATOM     18  C   UNL     1       2.377   1.411  -0.013  0.00  0.00    +0.004 A 
ATOM     19  C   UNL     1       2.396   0.029  -0.020  0.00  0.00    -0.045 A 
ATOM     20  C   UNL     1       1.208  -0.679  -0.012  0.00  0.00    +0.004 A 
ATOM     21  C   UNL     1       0.002  -0.004   0.002  0.00  0.00    +0.000 A 
ENDBRANCH  15  19
ENDBRANCH  12  15
ENDBRANCH   1  12
BRANCH   8  22
ATOM     22  C   UNL     1       6.331  -7.130   3.329  0.00  0.00    +0.123 C 
BRANCH  22  23
ATOM     23  C   UNL     1       6.764  -7.411   4.745  0.00  0.00    +0.012 A 
ATOM     24  C   UNL     1       7.727  -8.278   5.125  0.00  0.00    +0.110 A 
ATOM     25  N   UNL     1       7.813  -8.242   6.473  0.00  0.00    -0.284 N 
ATOM     26  H   UNL     1       8.422  -8.763   7.019  0.00  0.00    +0.188 HD
ATOM     27  N   UNL     1       6.870  -7.320   6.945  0.00  0.00    -0.174 NA
ATOM     28  C   UNL     1       6.239  -6.812   5.907  0.00  0.00    +0.097 A 
BRANCH  28  29
ATOM     29  C   UNL     1       5.162  -5.793   5.954  0.00  0.00    +0.003 A 
ATOM     30  C   UNL     1       5.058  -4.839   4.943  0.00  0.00    +0.013 A 
ATOM     31  C   UNL     1       4.055  -3.893   4.990  0.00  0.00    +0.039 A 
ATOM     32  C   UNL     1       3.152  -3.889   6.040  0.00  0.00    +0.123 A 
ATOM     33  C   UNL     1       3.251  -4.835   7.048  0.00  0.00    +0.039 A 
ATOM     34  C   UNL     1       4.247  -5.789   7.005  0.00  0.00    +0.013 A 
ATOM     35  F   UNL     1       2.172  -2.960   6.083  0.00  0.00    -0.205 F 
ENDBRANCH  28  29
ENDBRANCH  22  23
ENDBRANCH   8  22
TORSDOF 7
