REMARK  Name = ZINC64220529
REMARK  4 active torsions:
REMARK  status: ('A' for Active; 'I' for Inactive)
REMARK    1  A    between atoms: C_7  and  C_12
REMARK    2  A    between atoms: N_14  and  N_15
REMARK    3  A    between atoms: C_16  and  C_18
REMARK    4  A    between atoms: C_18  and  C_19
REMARK                            x       y       z     vdW  Elec       q    Type
REMARK                         _______ _______ _______ _____ _____    ______ ____
ROOT
ATOM      1  C   UNL     1       0.014  -2.947  -0.013  0.00  0.00    +0.261 C 
ATOM      2  O   UNL     1       0.061  -4.157  -0.114  0.00  0.00    -0.269 OA
ATOM      3  N   UNL     1      -1.177  -2.327   0.103  0.00  0.00    -0.230 N 
ATOM      4  H   UNL     1      -1.220  -1.358   0.109  0.00  0.00    +0.173 HD
ENDROOT
BRANCH   1  11
ATOM      5  C   UNL     1       3.898  -4.813   0.012  0.00  0.00    +0.001 A 
ATOM      6  C   UNL     1       5.057  -4.048   0.005  0.00  0.00    +0.002 A 
ATOM      7  C   UNL     1       4.989  -2.672  -0.010  0.00  0.00    +0.026 A 
ATOM      8  C   UNL     1       3.748  -2.039  -0.018  0.00  0.00    +0.050 A 
ATOM      9  C   UNL     1       2.578  -2.818  -0.011  0.00  0.00    +0.011 A 
ATOM     10  C   UNL     1       2.671  -4.214   0.004  0.00  0.00    +0.011 A 
ATOM     11  C   UNL     1       1.266  -2.153  -0.020  0.00  0.00    +0.052 A 
ATOM     12  C   UNL     1       1.227  -0.789  -0.035  0.00  0.00    +0.083 A 
ATOM     13  C   UNL     1       2.479  -0.034  -0.042  0.00  0.00    +0.250 A 
ATOM     14  N   UNL     1       3.667  -0.663  -0.033  0.00  0.00    -0.322 N 
ATOM     15  O   UNL     1       2.445   1.184  -0.056  0.00  0.00    -0.268 OA
ATOM     16  H   UNL     1       4.482  -0.139  -0.037  0.00  0.00    +0.169 HD
ENDBRANCH   1  11
BRANCH   3  17
ATOM     17  N   UNL     1      -2.352  -3.081   0.217  0.00  0.00    -0.234 N 
ATOM     18  C   UNL     1      -3.543  -2.461   0.334  0.00  0.00    +0.233 C 
ATOM     19  O   UNL     1      -3.597  -1.249   0.341  0.00  0.00    -0.274 OA
ATOM     20  H   UNL     1      -2.309  -4.050   0.211  0.00  0.00    +0.173 HD
BRANCH  18  21
ATOM     21  C   UNL     1      -4.807  -3.272   0.455  0.00  0.00    +0.130 C 
BRANCH  21  22
ATOM     22  C   UNL     1      -5.989  -2.346   0.572  0.00  0.00    -0.033 C 
ATOM     23  C   UNL     1      -6.793  -1.923  -0.431  0.00  0.00    -0.001 A 
ATOM     24  C   UNL     1      -6.805  -2.187  -1.874  0.00  0.00    +0.010 A 
ATOM     25  C   UNL     1      -7.756  -1.605  -2.640  0.00  0.00    +0.001 A 
ATOM     26  C   UNL     1      -8.728  -0.758  -2.091  0.00  0.00    +0.002 A 
ATOM     27  C   UNL     1      -8.781  -0.467  -0.773  0.00  0.00    +0.026 A 
ATOM     28  C   UNL     1      -7.830  -1.024   0.125  0.00  0.00    +0.043 A 
ATOM     29  N   UNL     1      -7.674  -0.897   1.420  0.00  0.00    -0.380 N 
ATOM     30  C   UNL     1      -6.522  -1.706   1.834  0.00  0.00    +0.145 C 
ATOM     31  H   UNL     1      -8.229  -0.360   2.007  0.00  0.00    +0.160 HD
ENDBRANCH  21  22
ENDBRANCH  18  21
ENDBRANCH   3  17
TORSDOF 4
