REMARK  Name = ZINC57329081
REMARK  12 active torsions:
REMARK  status: ('A' for Active; 'I' for Inactive)
REMARK    1  A    between atoms: C_1  and  C_2
REMARK    2  A    between atoms: C_2  and  C_3
REMARK    3  A    between atoms: C_2  and  C_4
REMARK    4  A    between atoms: C_4  and  N_5
REMARK    5  A    between atoms: C_6  and  N_30
REMARK    6  A    between atoms: C_7  and  N_14
REMARK    7  A    between atoms: N_14  and  C_15
REMARK    8  A    between atoms: C_15  and  C_16
REMARK    9  A    between atoms: C_16  and  O_17
REMARK   10  A    between atoms: O_17  and  C_18
REMARK   11  A    between atoms: C_19  and  C_21
REMARK   12  A    between atoms: C_22  and  C_23
REMARK                            x       y       z     vdW  Elec       q    Type
REMARK                         _______ _______ _______ _____ _____    ______ ____
ROOT
ATOM      1  N   UNL     1       3.859  -0.041   0.148  0.00  0.00    -0.280 N 
ATOM      2  C   UNL     1       4.187   1.196  -0.355  0.00  0.00    +0.127 A 
ATOM      3  C   UNL     1       3.925   1.476  -1.681  0.00  0.00    +0.140 A 
ATOM      4  C   UNL     1       3.328   0.482  -2.479  0.00  0.00    +0.277 A 
ATOM      5  O   UNL     1       3.086   0.702  -3.654  0.00  0.00    -0.266 OA
ATOM      6  N   UNL     1       3.026  -0.714  -1.937  0.00  0.00    -0.273 N 
ATOM      7  H   UNL     1       2.614  -1.400  -2.486  0.00  0.00    +0.173 HD
ATOM      8  C   UNL     1       3.293  -0.970  -0.644  0.00  0.00    +0.331 A 
ATOM      9  O   UNL     1       3.014  -2.059  -0.181  0.00  0.00    -0.246 OA
ENDROOT
BRANCH   3  10
ATOM     10  N   UNL     1       4.250   2.735  -2.226  0.00  0.00    -0.259 N 
ATOM     11  C   UNL     1       3.271   3.560  -2.646  0.00  0.00    +0.244 C 
ATOM     12  O   UNL     1       2.114   3.181  -2.647  0.00  0.00    -0.270 OA
BRANCH  11  13
ATOM     13  C   UNL     1       3.598   4.913  -3.099  0.00  0.00    +0.068 C 
ATOM     14  C   UNL     1       2.618   5.739  -3.519  0.00  0.00    +0.014 C 
BRANCH  14  15
ATOM     15  C   UNL     1       2.947   7.099  -3.975  0.00  0.00    -0.011 A 
ATOM     16  C   UNL     1       4.276   7.536  -3.980  0.00  0.00    +0.009 A 
ATOM     17  C   UNL     1       4.576   8.812  -4.409  0.00  0.00    +0.001 A 
ATOM     18  C   UNL     1       3.567   9.659  -4.834  0.00  0.00    +0.001 A 
ATOM     19  C   UNL     1       2.250   9.235  -4.832  0.00  0.00    +0.016 A 
ATOM     20  C   UNL     1       1.933   7.959  -4.411  0.00  0.00    +0.025 A 
ATOM     21 BR   UNL     1       0.134   7.378  -4.417  0.00  0.00    -0.050 Br
ENDBRANCH  14  15
ENDBRANCH  11  13
BRANCH  10  22
ATOM     22  C   UNL     1       5.652   3.145  -2.337  0.00  0.00    +0.142 C 
BRANCH  22  23
ATOM     23  C   UNL     1       6.180   2.788  -3.728  0.00  0.00    +0.179 C 
BRANCH  23  24
ATOM     24  O   UNL     1       5.483   3.552  -4.713  0.00  0.00    -0.381 OA
ATOM     25  C   UNL     1       5.902   3.293  -6.054  0.00  0.00    +0.194 C 
ENDBRANCH  23  24
ENDBRANCH  22  23
ENDBRANCH  10  22
ENDBRANCH   3  10
BRANCH   2  26
ATOM     26  N   UNL     1       4.769   2.143   0.453  0.00  0.00    -0.343 N 
ATOM     27  H   UNL     1       4.883   1.969   1.401  0.00  0.00    +0.144 HD
ATOM     28  H   UNL     1       5.067   2.986   0.076  0.00  0.00    +0.144 HD
ENDBRANCH   2  26
BRANCH   1  29
ATOM     29  C   UNL     1       4.131  -0.351   1.554  0.00  0.00    +0.131 C 
BRANCH  29  31
ATOM     30  C   UNL     1       6.574   0.105   1.290  0.00  0.00    +0.009 C 
ATOM     31  C   UNL     1       5.535  -0.948   1.681  0.00  0.00    +0.003 C 
ATOM     32  C   UNL     1       5.773  -1.386   3.128  0.00  0.00    +0.009 C 
ENDBRANCH  29  31
ENDBRANCH   1  29
TORSDOF 9
