REMARK  Name = ZINC20558516
REMARK  5 active torsions:
REMARK  status: ('A' for Active; 'I' for Inactive)
REMARK    1  A    between atoms: C_4  and  C_7
REMARK    2  A    between atoms: C_9  and  C_33
REMARK    3  A    between atoms: C_10  and  N_32
REMARK    4  A    between atoms: N_17  and  C_24
REMARK    5  A    between atoms: C_24  and  C_25
REMARK                            x       y       z     vdW  Elec       q    Type
REMARK                         _______ _______ _______ _____ _____    ______ ____
ROOT
ATOM      1  C   UNL     1      -4.617   0.520  -0.325  0.00  0.00    +0.118 C 
ATOM      2  C   UNL     1      -4.401  -0.705   0.521  0.00  0.00    +0.099 C 
ATOM      3  C   UNL     1      -3.147  -1.065   0.894  0.00  0.00    +0.199 C 
ATOM      4  O   UNL     1      -2.076  -0.347   0.520  0.00  0.00    -0.439 OA
ATOM      5  C   UNL     1      -2.220   0.948   0.129  0.00  0.00    +0.162 C 
ATOM      6  C   UNL     1      -3.401   1.403  -0.278  0.00  0.00    +0.141 C 
ATOM      7  S   UNL     1      -3.537   3.095  -0.776  0.00  0.00    +0.076 S 
ATOM      8  O   UNL     1      -4.768   3.582  -0.261  0.00  0.00    -0.150 OA
ATOM      9  O   UNL     1      -3.203   3.150  -2.156  0.00  0.00    -0.150 OA
ATOM     10  N   UNL     1      -2.320   3.877   0.050  0.00  0.00    -0.198 N 
ATOM     11  C   UNL     1      -1.091   3.214   0.148  0.00  0.00    +0.062 A 
ATOM     12  C   UNL     1      -1.022   1.820   0.168  0.00  0.00    +0.042 A 
ATOM     13  C   UNL     1       0.233   1.204   0.255  0.00  0.00    +0.013 A 
ATOM     14  C   UNL     1       1.379   1.967   0.317  0.00  0.00    +0.001 A 
ATOM     15  C   UNL     1       1.301   3.349   0.299  0.00  0.00    +0.002 A 
ATOM     16  C   UNL     1       0.072   3.971   0.214  0.00  0.00    +0.025 A 
ENDROOT
BRANCH   1  20
ATOM     17  C   UNL     1      -5.356  -0.660  -4.363  0.00  0.00    +0.000 A 
ATOM     18  C   UNL     1      -6.314   0.051  -3.664  0.00  0.00    +0.000 A 
ATOM     19  C   UNL     1      -6.074   0.433  -2.357  0.00  0.00    +0.004 A 
ATOM     20  C   UNL     1      -4.877   0.104  -1.749  0.00  0.00    -0.033 A 
ATOM     21  C   UNL     1      -3.917  -0.602  -2.450  0.00  0.00    +0.004 A 
ATOM     22  C   UNL     1      -4.158  -0.988  -3.755  0.00  0.00    +0.000 A 
ENDBRANCH   1  20
BRANCH   3  23
ATOM     23  N   UNL     1      -2.970  -2.185   1.668  0.00  0.00    -0.328 N 
ATOM     24  H   UNL     1      -1.958  -2.486   1.977  0.00  0.00    +0.145 HD
ATOM     25  H   UNL     1      -3.841  -2.781   1.980  0.00  0.00    +0.145 HD
ENDBRANCH   3  23
BRANCH   2  26
ATOM     26  C   UNL     1      -5.523  -1.494   0.933  0.00  0.00    +0.101 C 
ATOM     27  N   UNL     1      -6.413  -2.120   1.260  0.00  0.00    -0.191 NA
ENDBRANCH   2  26
BRANCH  10  28
ATOM     28  C   UNL     1      -2.528   5.198   0.649  0.00  0.00    +0.169 C 
BRANCH  28  29
ATOM     29  C   UNL     1      -2.935   5.038   2.091  0.00  0.00    +0.007 A 
ATOM     30  C   UNL     1      -4.266   5.141   2.449  0.00  0.00    +0.008 A 
ATOM     31  C   UNL     1      -4.640   4.988   3.771  0.00  0.00    +0.000 A 
ATOM     32  C   UNL     1      -3.683   4.744   4.738  0.00  0.00    +0.003 A 
ATOM     33  C   UNL     1      -2.351   4.646   4.383  0.00  0.00    +0.038 A 
ATOM     34  C   UNL     1      -1.975   4.793   3.058  0.00  0.00    +0.128 A 
ATOM     35  F   UNL     1      -0.673   4.698   2.710  0.00  0.00    -0.205 F 
ENDBRANCH  28  29
ENDBRANCH  10  28
TORSDOF 5
