REMARK  Name = ZINC34974623
REMARK  10 active torsions:
REMARK  status: ('A' for Active; 'I' for Inactive)
REMARK    1  A    between atoms: C_1  and  C_2
REMARK    2  A    between atoms: C_5  and  S_8
REMARK    3  A    between atoms: S_8  and  N_11
REMARK    4  A    between atoms: N_11  and  C_12
REMARK    5  A    between atoms: C_12  and  C_14
REMARK    6  A    between atoms: C_12  and  C_17
REMARK    7  A    between atoms: C_14  and  C_15
REMARK    8  A    between atoms: C_14  and  C_16
REMARK    9  A    between atoms: C_23  and  C_26
REMARK   10  A    between atoms: C_27  and  C_29
REMARK                            x       y       z     vdW  Elec       q    Type
REMARK                         _______ _______ _______ _____ _____    ______ ____
ROOT
ATOM      1  C   UNL     1       2.475  -4.321   0.695  0.00  0.00    +0.165 C 
ENDROOT
BRANCH   1   2
ATOM      2  C   UNL     1       3.796  -3.660   0.398  0.00  0.00    +0.235 C 
ATOM      3  O   UNL     1       4.129  -3.459  -0.750  0.00  0.00    -0.274 OA
ATOM      4  N   UNL     1       4.608  -3.293   1.409  0.00  0.00    -0.297 N 
ATOM      5  C   UNL     1       4.278  -3.642   2.798  0.00  0.00    +0.127 C 
ATOM      6  C   UNL     1       4.254  -2.357   3.635  0.00  0.00    +0.127 C 
ATOM      7  N   UNL     1       5.485  -1.600   3.368  0.00  0.00    -0.295 N 
ATOM      8  C   UNL     1       5.815  -1.251   1.979  0.00  0.00    +0.090 C 
ATOM      9  C   UNL     1       5.842  -2.541   1.143  0.00  0.00    +0.130 C 
ATOM     10  C   UNL     1       7.188  -0.577   1.932  0.00  0.00    +0.029 C 
ATOM     11  C   UNL     1       6.297  -1.233   4.379  0.00  0.00    +0.219 C 
ATOM     12  O   UNL     1       7.272  -0.547   4.156  0.00  0.00    -0.275 OA
BRANCH  11  13
ATOM     13  C   UNL     1       5.994  -1.675   5.788  0.00  0.00    +0.075 C 
ATOM     14  C   UNL     1       5.560  -0.601   6.787  0.00  0.00    +0.013 C 
ATOM     15  C   UNL     1       6.953  -1.225   6.891  0.00  0.00    +0.013 C 
ENDBRANCH  11  13
ENDBRANCH   1   2
BRANCH   1  16
ATOM     16  C   UNL     1       2.716  -5.760   1.155  0.00  0.00    +0.010 C 
ATOM     17  C   UNL     1       1.382  -6.402   1.542  0.00  0.00    +0.009 C 
ATOM     18  C   UNL     1       3.355  -6.559   0.017  0.00  0.00    +0.009 C 
ENDBRANCH   1  16
BRANCH   1  19
ATOM     19  N   UNL     1       1.649  -4.327  -0.515  0.00  0.00    -0.178 NA
ATOM     20  H   UNL     1       1.957  -4.790  -1.310  0.00  0.00    +0.149 HD
BRANCH  19  21
ATOM     21  S   UNL     1       0.190  -3.543  -0.526  0.00  0.00    +0.059 S 
ATOM     22  O   UNL     1      -0.511  -3.974   0.633  0.00  0.00    -0.153 OA
ATOM     23  O   UNL     1      -0.340  -3.691  -1.836  0.00  0.00    -0.153 OA
BRANCH  21  28
ATOM     24  C   UNL     1       1.313   2.337   0.226  0.00  0.00    +0.044 C 
ATOM     25  C   UNL     1       1.033   0.868   0.038  0.00  0.00    -0.050 A 
ATOM     26  C   UNL     1       0.987   0.331  -1.234  0.00  0.00    +0.005 A 
ATOM     27  C   UNL     1       0.730  -1.017  -1.407  0.00  0.00    +0.029 A 
ATOM     28  C   UNL     1       0.519  -1.826  -0.306  0.00  0.00    +0.105 A 
ATOM     29  C   UNL     1       0.566  -1.289   0.966  0.00  0.00    +0.029 A 
ATOM     30  C   UNL     1       0.827   0.058   1.139  0.00  0.00    +0.005 A 
ENDBRANCH  21  28
ENDBRANCH  19  21
ENDBRANCH   1  19
TORSDOF 6
