REMARK  Name = ZINC17198153
REMARK  7 active torsions:
REMARK  status: ('A' for Active; 'I' for Inactive)
REMARK    1  A    between atoms: C_1  and  C_2
REMARK    2  A    between atoms: C_2  and  C_3
REMARK    3  A    between atoms: C_3  and  C_4
REMARK    4  A    between atoms: C_4  and  C_5
REMARK    5  A    between atoms: C_5  and  C_6
REMARK    6  A    between atoms: C_6  and  N_7
REMARK    7  A    between atoms: C_10  and  C_16
REMARK                            x       y       z     vdW  Elec       q    Type
REMARK                         _______ _______ _______ _____ _____    ______ ____
ROOT
ATOM      1  N   UNL     1      -2.702  -0.673  -3.192  0.00  0.00    -0.288 N 
ATOM      2  C   UNL     1      -2.547   0.350  -2.329  0.00  0.00    +0.260 A 
ATOM      3  O   UNL     1      -2.240   1.456  -2.737  0.00  0.00    -0.267 OA
ATOM      4  C   UNL     1      -2.742   0.132  -0.953  0.00  0.00    +0.073 A 
ATOM      5  C   UNL     1      -3.080  -1.117  -0.521  0.00  0.00    +0.258 A 
ATOM      6  N   UNL     1      -3.233  -2.128  -1.435  0.00  0.00    -0.302 N 
ATOM      7  C   UNL     1      -3.042  -1.897  -2.747  0.00  0.00    +0.163 A 
ATOM      8  S   UNL     1      -3.233  -3.179  -3.865  0.00  0.00    -0.013 S 
ATOM      9  O   UNL     1      -3.268  -1.354   0.794  0.00  0.00    -0.267 OA
ATOM     10  H   UNL     1      -3.514  -3.136  -1.097  0.00  0.00    +0.171 HD
ENDROOT
BRANCH   4  11
ATOM     11  C   UNL     1      -2.574   1.261   0.031  0.00  0.00    +0.018 C 
ATOM     12  C   UNL     1      -1.139   1.734   0.016  0.00  0.00    +0.011 A 
ATOM     13  C   UNL     1      -0.796   3.038   0.027  0.00  0.00    -0.022 A 
ATOM     14  C   UNL     1       0.659   3.109   0.012  0.00  0.00    +0.003 A 
ATOM     15  C   UNL     1       1.589   4.151   0.008  0.00  0.00    +0.010 A 
ATOM     16  C   UNL     1       2.925   3.871  -0.005  0.00  0.00    +0.001 A 
ATOM     17  C   UNL     1       3.370   2.556  -0.015  0.00  0.00    +0.002 A 
ATOM     18  C   UNL     1       2.473   1.512  -0.013  0.00  0.00    +0.026 A 
ATOM     19  C   UNL     1       1.107   1.773   0.001  0.00  0.00    +0.047 A 
ATOM     20  N   UNL     1      -0.011   0.966   0.007  0.00  0.00    -0.359 N 
ATOM     21  H   UNL     1      -0.093  -0.131   0.006  0.00  0.00    +0.166 HD
ATOM     22  C   UNL     1      -1.795   4.167   0.046  0.00  0.00    +0.018 C 
ATOM     23  C   UNL     1      -3.157   3.584   0.451  0.00  0.00    -0.076 C 
ATOM     24  N   UNL     1      -3.437   2.389  -0.357  0.00  0.00    +0.388 N 
ATOM     25  H   UNL     1      -3.265   2.636  -1.415  0.00  0.00    -0.084 HD
ATOM     26  H   UNL     1      -4.491   2.110  -0.212  0.00  0.00    -0.084 HD
ENDBRANCH   4  11
BRANCH   1  27
ATOM     27  C   UNL     1      -2.500  -0.452  -4.626  0.00  0.00    +0.127 C 
BRANCH  27  28
ATOM     28  C   UNL     1      -1.034  -0.709  -4.980  0.00  0.00    +0.022 C 
BRANCH  28  29
ATOM     29  C   UNL     1      -0.823  -0.478  -6.478  0.00  0.00    +0.002 C 
BRANCH  29  30
ATOM     30  C   UNL     1       0.643  -0.735  -6.832  0.00  0.00    -0.000 C 
BRANCH  30  32
ATOM     31  C   UNL     1       2.320  -0.761  -8.684  0.00  0.00    +0.004 C 
ATOM     32  C   UNL     1       0.854  -0.504  -8.330  0.00  0.00    -0.003 C 
ENDBRANCH  30  32
ENDBRANCH  29  30
ENDBRANCH  28  29
ENDBRANCH  27  28
ENDBRANCH   1  27
TORSDOF 6
