REMARK  Name = ZINC12487617
REMARK  11 active torsions:
REMARK  status: ('A' for Active; 'I' for Inactive)
REMARK    1  A    between atoms: C_1  and  C_2
REMARK    2  A    between atoms: C_2  and  C_4
REMARK    3  A    between atoms: C_7  and  N_10
REMARK    4  A    between atoms: N_10  and  C_11
REMARK    5  A    between atoms: C_11  and  C_13
REMARK    6  A    between atoms: C_11  and  C_20
REMARK    7  A    between atoms: N_22  and  C_23
REMARK    8  A    between atoms: C_23  and  C_24
REMARK    9  A    between atoms: C_29  and  C_31
REMARK   10  A    between atoms: C_31  and  N_32
REMARK   11  A    between atoms: C_33  and  C_35
REMARK                            x       y       z     vdW  Elec       q    Type
REMARK                         _______ _______ _______ _____ _____    ______ ____
ROOT
ATOM      1  N   UNL     1      -0.820   2.031  -1.266  0.00  0.00    -0.254 N 
ATOM      2  C   UNL     1      -1.773   2.984  -1.250  0.00  0.00    +0.238 C 
ATOM      3  O   UNL     1      -1.938   3.661  -0.257  0.00  0.00    -0.274 OA
ENDROOT
BRANCH   1   7
ATOM      4  C   UNL     1      -0.051  -0.085  -4.765  0.00  0.00    +0.017 A 
ATOM      5  C   UNL     1      -0.519  -0.754  -3.627  0.00  0.00    +0.013 A 
ATOM      6  C   UNL     1      -0.772  -0.053  -2.477  0.00  0.00    +0.024 A 
ATOM      7  C   UNL     1      -0.563   1.323  -2.438  0.00  0.00    +0.038 A 
ATOM      8  C   UNL     1      -0.103   1.994  -3.568  0.00  0.00    +0.024 A 
ATOM      9  C   UNL     1       0.157   1.300  -4.721  0.00  0.00    +0.013 A 
BRANCH   4  11
ATOM     10  C   UNL     1       0.724  -0.109  -7.222  0.00  0.00    +0.091 C 
ATOM     11  C   UNL     1       0.221  -0.832  -5.999  0.00  0.00    +0.160 C 
ATOM     12  O   UNL     1       0.040  -2.031  -6.035  0.00  0.00    -0.292 OA
ENDBRANCH   4  11
ENDBRANCH   1   7
BRANCH   1  13
ATOM     13  C   UNL     1      -0.055   1.741  -0.051  0.00  0.00    +0.200 C 
BRANCH  13  14
ATOM     14  C   UNL     1      -0.896   0.914   0.887  0.00  0.00    +0.017 A 
ATOM     15  C   UNL     1      -1.977   0.202   0.401  0.00  0.00    +0.009 A 
ATOM     16  C   UNL     1      -2.745  -0.560   1.260  0.00  0.00    +0.001 A 
ATOM     17  C   UNL     1      -2.441  -0.603   2.608  0.00  0.00    +0.003 A 
ATOM     18  C   UNL     1      -1.365   0.112   3.097  0.00  0.00    +0.039 A 
ATOM     19  C   UNL     1      -0.591   0.872   2.236  0.00  0.00    +0.129 A 
ATOM     20  F   UNL     1       0.462   1.572   2.713  0.00  0.00    -0.205 F 
ENDBRANCH  13  14
BRANCH  13  21
ATOM     21  C   UNL     1       1.192   0.976  -0.414  0.00  0.00    +0.239 C 
ATOM     22  O   UNL     1       1.501   0.837  -1.578  0.00  0.00    -0.273 OA
ATOM     23  N   UNL     1       1.964   0.446   0.556  0.00  0.00    -0.306 N 
ATOM     24  H   UNL     1       1.716   0.557   1.487  0.00  0.00    +0.149 HD
BRANCH  23  25
ATOM     25  C   UNL     1       3.176  -0.297   0.203  0.00  0.00    +0.178 C 
BRANCH  25  26
ATOM     26  C   UNL     1       3.852  -0.781   1.460  0.00  0.00    +0.122 A 
ATOM     27  C   UNL     1       3.626  -1.957   2.073  0.00  0.00    +0.046 A 
ATOM     28  C   UNL     1       4.469  -1.997   3.207  0.00  0.00    +0.041 A 
ATOM     29  C   UNL     1       5.161  -0.844   3.219  0.00  0.00    +0.195 A 
ATOM     30  O   UNL     1       4.787  -0.113   2.156  0.00  0.00    -0.466 OA
ENDBRANCH  25  26
ENDBRANCH  23  25
ENDBRANCH  13  21
ENDBRANCH   1  13
BRANCH   2  31
ATOM     31  C   UNL     1      -2.634   3.209  -2.467  0.00  0.00    +0.201 C 
BRANCH  31  32
ATOM     32  N   UNL     1      -3.510   4.361  -2.239  0.00  0.00    -0.300 N 
ATOM     33  C   UNL     1      -4.373   4.752  -3.198  0.00  0.00    +0.280 C 
ATOM     34  O   UNL     1      -4.425   4.147  -4.252  0.00  0.00    -0.267 OA
ATOM     35  H   UNL     1      -3.468   4.843  -1.398  0.00  0.00    +0.150 HD
BRANCH  33  36
ATOM     36  C   UNL     1      -5.250   5.905  -2.970  0.00  0.00    +0.189 A 
ATOM     37  C   UNL     1      -6.165   6.404  -3.852  0.00  0.00    +0.054 A 
ATOM     38  C   UNL     1      -6.774   7.501  -3.223  0.00  0.00    +0.042 A 
ATOM     39  C   UNL     1      -6.211   7.622  -2.001  0.00  0.00    +0.196 A 
ATOM     40  O   UNL     1      -5.297   6.656  -1.850  0.00  0.00    -0.458 OA
ENDBRANCH  33  36
ENDBRANCH  31  32
ENDBRANCH   2  31
TORSDOF 10
