REMARK  Name = ZINC05439141
REMARK  8 active torsions:
REMARK  status: ('A' for Active; 'I' for Inactive)
REMARK    1  A    between atoms: C_1  and  C_2
REMARK    2  A    between atoms: C_2  and  C_3
REMARK    3  A    between atoms: C_2  and  C_4
REMARK    4  A    between atoms: C_4  and  O_24
REMARK    5  A    between atoms: C_7  and  C_23
REMARK    6  A    between atoms: C_10  and  O_22
REMARK    7  A    between atoms: C_12  and  C_21
REMARK    8  A    between atoms: C_18  and  O_20
REMARK                            x       y       z     vdW  Elec       q    Type
REMARK                         _______ _______ _______ _____ _____    ______ ____
ROOT
ATOM      1  C   UNL     1       3.668   2.239   2.182  0.00  0.00    +0.090 C 
ATOM      2  C   UNL     1       3.976   3.737   2.389  0.00  0.00    +0.040 C 
ATOM      3  C   UNL     1       2.596   4.378   2.696  0.00  0.00    +0.014 C 
ATOM      4  C   UNL     1       1.652   3.513   1.802  0.00  0.00    -0.005 C 
ATOM      5  C   UNL     1       2.154   2.124   2.099  0.00  0.00    -0.034 C 
ATOM      6  C   UNL     1       1.478   1.042   2.349  0.00  0.00    +0.007 C 
ATOM      7  C   UNL     1      -0.012   1.021   2.502  0.00  0.00    +0.146 C 
ATOM      8  C   UNL     1      -0.727   1.566   1.267  0.00  0.00    +0.030 C 
ATOM      9  C   UNL     1      -0.013   1.095   0.008  0.00  0.00    +0.013 C 
ATOM     10  C   UNL     1      -0.729   1.576  -1.248  0.00  0.00    +0.005 C 
ATOM     11  C   UNL     1      -0.732   3.097  -1.322  0.00  0.00    +0.033 C 
ATOM     12  C   UNL     1      -0.989   3.736   0.004  0.00  0.00    -0.045 C 
ATOM     13  C   UNL     1      -1.411   4.986  -0.007  0.00  0.00    +0.010 C 
ATOM     14  C   UNL     1      -0.835   3.085   1.332  0.00  0.00    +0.096 C 
ATOM     15  C   UNL     1       0.218   3.713   2.228  0.00  0.00    +0.051 C 
ATOM     16  C   UNL     1      -2.157   0.985   1.270  0.00  0.00    +0.017 C 
ATOM     17  C   UNL     1       1.901   3.912   0.349  0.00  0.00    +0.016 C 
ENDROOT
BRANCH   1  19
ATOM     18  C   UNL     1       5.848   1.860   1.028  0.00  0.00    +0.010 C 
ATOM     19  C   UNL     1       4.329   1.714   0.911  0.00  0.00    +0.019 C 
ATOM     20  C   UNL     1       3.971   0.238   0.722  0.00  0.00    +0.010 C 
ENDBRANCH   1  19
BRANCH  14  21
ATOM     21  O   UNL     1      -2.104   3.337   2.004  0.00  0.00    -0.384 OA
ATOM     22  H   UNL     1      -2.310   4.276   2.117  0.00  0.00    +0.211 HD
ENDBRANCH  14  21
BRANCH   7  23
ATOM     23  O   UNL     1      -0.437  -0.332   2.724  0.00  0.00    -0.387 OA
ATOM     24  H   UNL     1      -0.058  -0.739   3.515  0.00  0.00    +0.210 HD
ENDBRANCH   7  23
BRANCH   1  25
ATOM     25  O   UNL     1       4.137   1.494   3.313  0.00  0.00    -0.384 OA
ATOM     26  H   UNL     1       5.091   1.553   3.454  0.00  0.00    +0.211 HD
ENDBRANCH   1  25
TORSDOF 4
