REMARK  Name = ZINC21223898
REMARK  5 active torsions:
REMARK  status: ('A' for Active; 'I' for Inactive)
REMARK    1  A    between atoms: C_1  and  C_2
REMARK    2  A    between atoms: C_2  and  O_3
REMARK    3  A    between atoms: O_3  and  C_4
REMARK    4  A    between atoms: C_7  and  C_11
REMARK    5  A    between atoms: C_22  and  C_25
REMARK                            x       y       z     vdW  Elec       q    Type
REMARK                         _______ _______ _______ _____ _____    ______ ____
ROOT
ATOM      1  C   UNL     1       5.622   6.826  -0.066  0.00  0.00    +0.063 C 
ATOM      2  C   UNL     1       5.609   7.777  -1.264  0.00  0.00    +0.109 C 
ATOM      3  C   UNL     1       5.230   7.006  -2.502  0.00  0.00    +0.218 C 
ATOM      4  O   UNL     1       5.709   7.309  -3.574  0.00  0.00    -0.275 OA
ATOM      5  N   UNL     1       4.362   5.983  -2.421  0.00  0.00    -0.289 N 
ATOM      6  C   UNL     1       3.785   5.635  -1.226  0.00  0.00    +0.018 C 
ATOM      7  C   UNL     1       4.349   6.011  -0.059  0.00  0.00    +0.020 C 
ATOM      8  C   UNL     1       3.780   5.658   1.176  0.00  0.00    +0.162 C 
ATOM      9  O   UNL     1       4.309   6.027   2.205  0.00  0.00    -0.292 OA
ATOM     10  C   UNL     1       2.525   4.830   1.243  0.00  0.00    +0.088 C 
ATOM     11  C   UNL     1       2.451   3.937   0.000  0.00  0.00    +0.032 C 
ATOM     12  C   UNL     1       2.512   4.825  -1.244  0.00  0.00    +0.059 C 
ATOM     13  H   UNL     1       4.102   5.409  -3.323  0.00  0.00    +0.155 HD
ENDROOT
BRANCH   1  17
ATOM     14  C   UNL     1       8.989   4.209  -0.356  0.00  0.00    +0.139 A 
ATOM     15  C   UNL     1       8.854   5.050   0.739  0.00  0.00    +0.047 A 
ATOM     16  C   UNL     1       7.765   5.895   0.830  0.00  0.00    +0.008 A 
ATOM     17  C   UNL     1       6.809   5.903  -0.169  0.00  0.00    -0.038 A 
ATOM     18  C   UNL     1       6.937   5.063  -1.259  0.00  0.00    +0.028 A 
ATOM     19  C   UNL     1       8.028   4.219  -1.358  0.00  0.00    +0.083 A 
ATOM     20 CL   UNL     1       8.193   3.169  -2.730  0.00  0.00    -0.080 Cl
BRANCH  14  21
ATOM     21  O   UNL     1      10.059   3.376  -0.448  0.00  0.00    -0.491 OA
BRANCH  21  23
ATOM     22  C   UNL     1      12.133   2.421   0.343  0.00  0.00    +0.048 C 
ATOM     23  C   UNL     1      11.008   3.419   0.620  0.00  0.00    +0.226 C 
ENDBRANCH  21  23
ENDBRANCH  14  21
ENDBRANCH   1  17
BRANCH  11  24
ATOM     24  C   UNL     1       1.156   3.165   0.008  0.00  0.00    -0.044 A 
ATOM     25  C   UNL     1       1.175   1.783   0.000  0.00  0.00    +0.004 A 
ATOM     26  C   UNL     1      -0.013   1.076   0.008  0.00  0.00    +0.000 A 
ATOM     27  C   UNL     1      -1.219   1.751   0.017  0.00  0.00    +0.000 A 
ATOM     28  C   UNL     1      -1.238   3.133   0.029  0.00  0.00    +0.000 A 
ATOM     29  C   UNL     1      -0.050   3.840   0.022  0.00  0.00    +0.004 A 
ENDBRANCH  11  24
TORSDOF 4
