REMARK  Name = ZINC20690673
REMARK  8 active torsions:
REMARK  status: ('A' for Active; 'I' for Inactive)
REMARK    1  A    between atoms: C_1  and  C_2
REMARK    2  A    between atoms: C_2  and  C_3
REMARK    3  A    between atoms: C_2  and  O_4
REMARK    4  A    between atoms: O_4  and  C_5
REMARK    5  A    between atoms: C_18  and  C_21
REMARK    6  A    between atoms: C_24  and  O_28
REMARK    7  A    between atoms: C_25  and  O_27
REMARK    8  A    between atoms: O_28  and  C_29
REMARK                            x       y       z     vdW  Elec       q    Type
REMARK                         _______ _______ _______ _____ _____    ______ ____
ROOT
ATOM      1  C   UNL     1      -1.824   1.919  -0.690  0.00  0.00    +0.121 A 
ATOM      2  C   UNL     1      -0.680   1.170  -0.456  0.00  0.00    +0.047 A 
ATOM      3  C   UNL     1       0.562   1.769  -0.507  0.00  0.00    +0.027 A 
ATOM      4  C   UNL     1       0.677   3.125  -0.786  0.00  0.00    +0.032 A 
ATOM      5  C   UNL     1      -0.481   3.880  -1.002  0.00  0.00    -0.016 A 
ATOM      6  C   UNL     1      -1.718   3.275  -0.957  0.00  0.00    +0.051 A 
ATOM      7  C   UNL     1      -0.314   5.328  -1.251  0.00  0.00    +0.049 C 
ATOM      8  C   UNL     1      -1.319   6.114  -2.012  0.00  0.00    -0.023 C 
ATOM      9  C   UNL     1      -0.695   7.095  -2.652  0.00  0.00    -0.030 C 
ATOM     10  C   UNL     1       0.810   7.016  -2.389  0.00  0.00    +0.033 C 
ATOM     11  C   UNL     1       0.992   5.524  -2.078  0.00  0.00    +0.029 C 
ATOM     12  C   UNL     1       2.126   5.146  -1.141  0.00  0.00    +0.105 C 
ATOM     13  N   UNL     1       1.953   3.702  -0.869  0.00  0.00    -0.336 N 
ATOM     14  H   UNL     1       2.835   3.060  -0.728  0.00  0.00    +0.147 HD
ENDROOT
BRANCH  12  15
ATOM     15  C   UNL     1       2.026   5.932   0.140  0.00  0.00    -0.023 A 
ATOM     16  C   UNL     1       1.328   5.414   1.215  0.00  0.00    +0.009 A 
ATOM     17  C   UNL     1       1.235   6.132   2.393  0.00  0.00    +0.050 A 
ATOM     18  C   UNL     1       1.842   7.373   2.498  0.00  0.00    +0.161 A 
ATOM     19  C   UNL     1       2.545   7.894   1.416  0.00  0.00    +0.159 A 
ATOM     20  C   UNL     1       2.639   7.167   0.240  0.00  0.00    +0.054 A 
BRANCH  19  21
ATOM     21  O   UNL     1       3.142   9.112   1.515  0.00  0.00    -0.503 OA
ATOM     22  H   UNL     1       3.698   9.523   0.659  0.00  0.00    +0.292 HD
ENDBRANCH  19  21
BRANCH  18  23
ATOM     23  O   UNL     1       1.750   8.080   3.656  0.00  0.00    -0.491 OA
ATOM     24  C   UNL     1       1.012   7.484   4.724  0.00  0.00    +0.277 C 
ENDBRANCH  18  23
ENDBRANCH  12  15
BRANCH   1  25
ATOM     25  O   UNL     1      -3.047   1.324  -0.652  0.00  0.00    -0.489 OA
BRANCH  25  27
ATOM     26  C   UNL     1      -4.473   2.412  -2.273  0.00  0.00    +0.051 C 
ATOM     27  C   UNL     1      -4.186   2.176  -0.788  0.00  0.00    +0.167 C 
ATOM     28  C   UNL     1      -5.400   1.513  -0.134  0.00  0.00    +0.051 C 
ENDBRANCH  25  27
ENDBRANCH   1  25
TORSDOF 5
