REMARK  Name = ZINC39694850
REMARK  11 active torsions:
REMARK  status: ('A' for Active; 'I' for Inactive)
REMARK    1  A    between atoms: C_1  and  C_2
REMARK    2  A    between atoms: C_4  and  C_35
REMARK    3  A    between atoms: C_6  and  C_8
REMARK    4  A    between atoms: C_8  and  N_9
REMARK    5  A    between atoms: C_10  and  C_12
REMARK    6  A    between atoms: C_23  and  C_25
REMARK    7  A    between atoms: C_27  and  C_34
REMARK    8  A    between atoms: N_29  and  C_30
REMARK    9  A    between atoms: C_30  and  C_31
REMARK   10  A    between atoms: C_30  and  C_32
REMARK   11  A    between atoms: C_30  and  C_33
REMARK                            x       y       z     vdW  Elec       q    Type
REMARK                         _______ _______ _______ _____ _____    ______ ____
ROOT
ATOM      1  C   UNL     1       3.388  -3.798   4.730  0.00  0.00    +0.100 C 
ATOM      2  C   UNL     1       3.999  -4.497   3.494  0.00  0.00    +0.121 C 
ATOM      3  N   UNL     1       4.878  -5.550   4.056  0.00  0.00    -0.295 N 
ATOM      4  C   UNL     1       4.119  -6.085   5.212  0.00  0.00    +0.115 C 
ATOM      5  C   UNL     1       3.468  -4.844   5.854  0.00  0.00    -0.004 C 
ATOM      6  C   UNL     1       4.335  -4.325   6.998  0.00  0.00    -0.010 C 
ATOM      7  C   UNL     1       4.353  -5.358   8.128  0.00  0.00    -0.082 C 
ATOM      8  N   UNL     1       2.983  -5.597   8.596  0.00  0.00    +0.379 N 
ATOM      9  C   UNL     1       2.179  -6.183   7.516  0.00  0.00    -0.082 C 
ATOM     10  C   UNL     1       2.070  -5.185   6.360  0.00  0.00    -0.010 C 
ATOM     11  C   UNL     1       6.092  -5.934   3.616  0.00  0.00    +0.265 C 
ATOM     12  O   UNL     1       6.698  -6.815   4.195  0.00  0.00    -0.268 OA
ATOM     13  H   UNL     1       3.003  -6.232   9.381  0.00  0.00    -0.086 HD
ATOM     14  H   UNL     1       2.570  -4.723   8.885  0.00  0.00    -0.086 HD
ENDROOT
BRANCH  11  15
ATOM     15  C   UNL     1       6.685  -5.288   2.434  0.00  0.00    +0.124 A 
ATOM     16  C   UNL     1       6.051  -4.434   1.549  0.00  0.00    +0.057 A 
ATOM     17  C   UNL     1       7.023  -4.090   0.607  0.00  0.00    +0.061 A 
ATOM     18  N   UNL     1       8.132  -4.704   0.931  0.00  0.00    -0.175 NA
ATOM     19  N   UNL     1       7.973  -5.406   1.994  0.00  0.00    -0.254 N 
ATOM     20  C   UNL     1       6.828  -3.174  -0.575  0.00  0.00    +0.067 C 
BRANCH  19  21
ATOM     21  C   UNL     1       9.013  -6.214   2.636  0.00  0.00    +0.056 C 
ATOM     22  C   UNL     1       8.620  -7.692   2.576  0.00  0.00    +0.036 C 
ATOM     23  C   UNL     1      10.341  -6.010   1.904  0.00  0.00    +0.036 C 
ATOM     24  C   UNL     1       9.164  -5.785   4.097  0.00  0.00    +0.036 C 
ENDBRANCH  19  21
ENDBRANCH  11  15
BRANCH   1  26
ATOM     25  N   UNL     1       1.418  -2.339   5.059  0.00  0.00    -0.311 N 
ATOM     26  C   UNL     1       1.953  -3.423   4.463  0.00  0.00    +0.218 C 
ATOM     27  O   UNL     1       1.279  -4.096   3.713  0.00  0.00    -0.275 OA
ATOM     28  H   UNL     1       1.933  -1.842   5.715  0.00  0.00    +0.149 HD
BRANCH  25  29
ATOM     29  C   UNL     1       0.060  -1.910   4.717  0.00  0.00    +0.139 C 
BRANCH  29  35
ATOM     30  C   UNL     1      -1.883   0.166   8.836  0.00  0.00    +0.044 C 
ATOM     31  C   UNL     1      -1.226   0.310   7.487  0.00  0.00    -0.050 A 
ATOM     32  C   UNL     1      -0.950   1.567   6.984  0.00  0.00    +0.006 A 
ATOM     33  C   UNL     1      -0.348   1.699   5.747  0.00  0.00    -0.050 A 
ATOM     34  C   UNL     1      -0.021   0.574   5.013  0.00  0.00    +0.008 A 
ATOM     35  C   UNL     1      -0.296  -0.683   5.517  0.00  0.00    -0.030 A 
ATOM     36  C   UNL     1      -0.895  -0.816   6.756  0.00  0.00    +0.008 A 
ATOM     37  C   UNL     1      -0.048   3.070   5.198  0.00  0.00    +0.044 C 
ENDBRANCH  29  35
ENDBRANCH  25  29
ENDBRANCH   1  26
TORSDOF 5
