REMARK  Name = ZINC38752083
REMARK  6 active torsions:
REMARK  status: ('A' for Active; 'I' for Inactive)
REMARK    1  A    between atoms: C_1  and  C_2
REMARK    2  A    between atoms: N_5  and  C_8
REMARK    3  A    between atoms: C_8  and  C_10
REMARK    4  A    between atoms: C_8  and  C_26
REMARK    5  A    between atoms: C_10  and  N_11
REMARK    6  A    between atoms: C_12  and  C_14
REMARK                            x       y       z     vdW  Elec       q    Type
REMARK                         _______ _______ _______ _____ _____    ______ ____
ROOT
ATOM      1  N   UNL     1      -2.242  -5.869   1.705  0.00  0.00    -0.316 N 
ATOM      2  C   UNL     1      -3.428  -6.505   1.770  0.00  0.00    +0.229 C 
ATOM      3  O   UNL     1      -4.460  -5.869   1.742  0.00  0.00    -0.275 OA
ATOM      4  H   UNL     1      -1.417  -6.378   1.727  0.00  0.00    +0.149 HD
ENDROOT
BRANCH   2   5
ATOM      5  C   UNL     1      -3.472  -8.008   1.877  0.00  0.00    +0.184 C 
ATOM      6  C   UNL     1      -4.926  -8.435   1.835  0.00  0.00    +0.004 C 
ATOM      7  C   UNL     1      -5.398  -9.151   2.894  0.00  0.00    -0.007 A 
ATOM      8  C   UNL     1      -6.790  -9.602   2.936  0.00  0.00    +0.009 A 
ATOM      9  C   UNL     1      -7.216 -10.313   4.012  0.00  0.00    +0.001 A 
ATOM     10  C   UNL     1      -6.357 -10.615   5.069  0.00  0.00    +0.002 A 
ATOM     11  C   UNL     1      -5.056 -10.226   5.091  0.00  0.00    +0.024 A 
ATOM     12  C   UNL     1      -4.514  -9.485   4.024  0.00  0.00    +0.040 A 
ATOM     13  N   UNL     1      -3.236  -9.109   4.056  0.00  0.00    -0.284 N 
ATOM     14  C   UNL     1      -2.665  -8.411   3.090  0.00  0.00    +0.233 C 
ATOM     15  O   UNL     1      -1.493  -8.095   3.176  0.00  0.00    -0.274 OA
ATOM     16  H   UNL     1      -2.700  -9.357   4.826  0.00  0.00    +0.155 HD
ENDBRANCH   2   5
BRANCH   1  17
ATOM     17  C   UNL     1      -2.199  -4.408   1.601  0.00  0.00    +0.094 C 
BRANCH  17  18
ATOM     18  C   UNL     1      -0.749  -3.951   1.429  0.00  0.00    -0.013 C 
BRANCH  18  23
ATOM     19  C   UNL     1      -0.054   1.429  -0.331  0.00  0.00    +0.007 C 
ATOM     20  C   UNL     1      -0.025  -0.098  -0.242  0.00  0.00    -0.018 C 
ATOM     21  C   UNL     1      -1.458  -0.635  -0.178  0.00  0.00    -0.015 C 
ATOM     22  C   UNL     1      -1.421  -2.155  -0.009  0.00  0.00    -0.078 C 
ATOM     23  N   UNL     1      -0.715  -2.496   1.231  0.00  0.00    +0.386 N 
ATOM     24  C   UNL     1       0.681  -2.048   1.148  0.00  0.00    -0.078 C 
ATOM     25  C   UNL     1       0.725  -0.523   1.024  0.00  0.00    -0.015 C 
ATOM     26  H   UNL     1      -1.167  -2.042   2.010  0.00  0.00    -0.081 HD
ENDBRANCH  18  23
BRANCH  18  27
ATOM     27  C   UNL     1       0.041  -4.310   2.661  0.00  0.00    -0.022 A 
ATOM     28  C   UNL     1       0.881  -5.354   2.862  0.00  0.00    +0.009 A 
ATOM     29  C   UNL     1       1.505  -5.485   4.088  0.00  0.00    +0.008 A 
ATOM     30  C   UNL     1       1.258  -4.566   5.054  0.00  0.00    +0.045 A 
ATOM     31  S   UNL     1       0.118  -3.465   4.232  0.00  0.00    -0.103 S 
ENDBRANCH  18  27
ENDBRANCH  17  18
ENDBRANCH   1  17
TORSDOF 5
