REMARK  Name = ZINC15911028
REMARK  5 active torsions:
REMARK  status: ('A' for Active; 'I' for Inactive)
REMARK    1  A    between atoms: C_5  and  N_7
REMARK    2  A    between atoms: C_13  and  C_15
REMARK    3  A    between atoms: C_17  and  C_22
REMARK    4  A    between atoms: C_22  and  C_24
REMARK    5  A    between atoms: C_29  and  O_30
REMARK                            x       y       z     vdW  Elec       q    Type
REMARK                         _______ _______ _______ _____ _____    ______ ____
ROOT
ATOM      1  C   UNL     1      -4.843   1.590  -0.109  0.00  0.00    +0.097 A 
ATOM      2  C   UNL     1      -3.888   1.849   0.860  0.00  0.00    +0.033 A 
ATOM      3  C   UNL     1      -2.697   1.085   0.860  0.00  0.00    +0.058 A 
ATOM      4  C   UNL     1      -2.498   0.108  -0.091  0.00  0.00    +0.209 A 
ATOM      5  O   UNL     1      -3.411  -0.158  -1.028  0.00  0.00    -0.446 OA
ATOM      6  C   UNL     1      -4.572   0.528  -1.093  0.00  0.00    +0.204 A 
ATOM      7  N   UNL     1      -5.448   0.253  -2.023  0.00  0.00    -0.369 N 
ATOM      8  H   UNL     1      -5.241  -0.540  -2.756  0.00  0.00    +0.159 HD
ATOM      9  H   UNL     1      -6.392   0.815  -2.072  0.00  0.00    +0.159 HD
ENDROOT
BRANCH   1  16
ATOM     10  N   UNL     1      -5.915   6.248  -1.339  0.00  0.00    -0.325 N 
ATOM     11  C   UNL     1      -7.130   5.449  -1.545  0.00  0.00    +0.124 C 
ATOM     12  C   UNL     1      -7.304   4.479  -0.371  0.00  0.00    +0.127 C 
ATOM     13  N   UNL     1      -6.066   3.700  -0.221  0.00  0.00    -0.294 N 
ATOM     14  C   UNL     1      -4.791   4.429  -0.140  0.00  0.00    +0.127 C 
ATOM     15  C   UNL     1      -4.715   5.401  -1.329  0.00  0.00    +0.124 C 
ATOM     16  C   UNL     1      -6.098   2.354  -0.153  0.00  0.00    +0.252 C 
ATOM     17  O   UNL     1      -7.167   1.772  -0.129  0.00  0.00    -0.270 OA
BRANCH  10  22
ATOM     18  C   UNL     1      -6.694   9.213  -3.369  0.00  0.00    +0.002 A 
ATOM     19  C   UNL     1      -5.599   9.249  -4.212  0.00  0.00    +0.003 A 
ATOM     20  C   UNL     1      -4.607   8.291  -4.105  0.00  0.00    +0.040 A 
ATOM     21  C   UNL     1      -4.708   7.293  -3.153  0.00  0.00    +0.144 A 
ATOM     22  C   UNL     1      -5.808   7.255  -2.303  0.00  0.00    +0.065 A 
ATOM     23  C   UNL     1      -6.803   8.217  -2.418  0.00  0.00    +0.026 A 
ATOM     24  F   UNL     1      -3.740   6.357  -3.049  0.00  0.00    -0.204 F 
ENDBRANCH  10  22
ENDBRANCH   1  16
BRANCH   3  25
ATOM     25  C   UNL     1      -1.662   1.340   1.878  0.00  0.00    +0.200 C 
ATOM     26  O   UNL     1      -1.875   2.132   2.777  0.00  0.00    -0.286 OA
BRANCH  25  27
ATOM     27  C   UNL     1      -0.369   0.635   1.807  0.00  0.00    +0.065 A 
ATOM     28  C   UNL     1      -0.106  -0.438   2.663  0.00  0.00    +0.030 A 
ATOM     29  C   UNL     1       1.103  -1.096   2.588  0.00  0.00    +0.019 A 
ATOM     30  C   UNL     1       2.060  -0.699   1.666  0.00  0.00    +0.019 A 
ATOM     31  C   UNL     1       1.812   0.360   0.816  0.00  0.00    +0.047 A 
ATOM     32  C   UNL     1       0.602   1.034   0.878  0.00  0.00    +0.128 A 
ATOM     33 BR   UNL     1       1.458  -2.549   3.746  0.00  0.00    -0.050 Br
BRANCH  32  34
ATOM     34  O   UNL     1       0.358   2.074   0.042  0.00  0.00    -0.506 OA
ATOM     35  H   UNL     1       1.121   2.385  -0.687  0.00  0.00    +0.292 HD
ENDBRANCH  32  34
ENDBRANCH  25  27
ENDBRANCH   3  25
TORSDOF 5
