REMARK  Name = ZINC33593949
REMARK  10 active torsions:
REMARK  status: ('A' for Active; 'I' for Inactive)
REMARK    1  A    between atoms: C_1  and  N_2
REMARK    2  A    between atoms: N_2  and  C_3
REMARK    3  A    between atoms: N_2  and  C_4
REMARK    4  A    between atoms: C_7  and  C_10
REMARK    5  A    between atoms: N_18  and  C_21
REMARK    6  A    between atoms: C_21  and  C_22
REMARK    7  A    between atoms: C_28  and  C_30
REMARK    8  A    between atoms: C_28  and  C_38
REMARK    9  A    between atoms: C_30  and  C_31
REMARK   10  A    between atoms: C_34  and  O_37
REMARK                            x       y       z     vdW  Elec       q    Type
REMARK                         _______ _______ _______ _____ _____    ______ ____
ROOT
ATOM      1  C   UNL     1      -4.870  -2.906   0.033  0.00  0.00    -0.027 C 
ATOM      2  C   UNL     1      -5.480  -2.921   1.431  0.00  0.00    +0.077 C 
ATOM      3  C   UNL     1      -6.941  -3.326   1.003  0.00  0.00    +0.086 C 
ATOM      4  C   UNL     1      -7.506  -3.776   2.252  0.00  0.00    +0.225 C 
ATOM      5  O   UNL     1      -8.655  -3.670   2.624  0.00  0.00    -0.275 OA
ATOM      6  N   UNL     1      -6.458  -4.350   2.928  0.00  0.00    -0.237 N 
ATOM      7  C   UNL     1      -5.230  -4.059   2.370  0.00  0.00    +0.225 C 
ATOM      8  O   UNL     1      -4.171  -4.608   2.585  0.00  0.00    -0.275 OA
ATOM      9  C   UNL     1      -7.241  -2.406  -0.102  0.00  0.00    +0.052 C 
ATOM     10  N   UNL     1      -5.910  -2.204  -0.788  0.00  0.00    +0.396 N 
ATOM     11  H   UNL     1      -5.703  -1.217  -0.831  0.00  0.00    -0.083 HD
ATOM     12  H   UNL     1      -5.931  -2.592  -1.719  0.00  0.00    -0.083 HD
ENDROOT
BRANCH   1  16
ATOM     13  C   UNL     1      -1.198  -0.719   0.010  0.00  0.00    +0.029 A 
ATOM     14  C   UNL     1      -1.181  -2.108   0.008  0.00  0.00    +0.023 A 
ATOM     15  C   UNL     1      -2.369  -2.812   0.016  0.00  0.00    +0.004 A 
ATOM     16  C   UNL     1      -3.575  -2.135   0.025  0.00  0.00    -0.060 A 
ATOM     17  C   UNL     1      -3.596  -0.752   0.027  0.00  0.00    +0.004 A 
ATOM     18  C   UNL     1      -2.411  -0.042   0.025  0.00  0.00    +0.023 A 
BRANCH  13  20
ATOM     19  C   UNL     1      -0.018   1.461   0.010  0.00  0.00    +0.129 C 
ATOM     20  N   UNL     1       0.002  -0.004   0.002  0.00  0.00    -0.336 N 
ATOM     21  C   UNL     1       1.281  -0.719  -0.014  0.00  0.00    +0.129 C 
ENDBRANCH  13  20
ENDBRANCH   1  16
BRANCH   9  22
ATOM     22  C   UNL     1      -7.789  -1.106   0.431  0.00  0.00    +0.347 C 
ATOM     23  O   UNL     1      -7.205  -0.060   0.203  0.00  0.00    -0.248 OA
ATOM     24  O   UNL     1      -8.815  -1.102   1.089  0.00  0.00    -0.248 OA
ENDBRANCH   9  22
BRANCH   6  25
ATOM     25  C   UNL     1      -6.621  -5.176   4.127  0.00  0.00    +0.151 C 
BRANCH  25  26
ATOM     26  C   UNL     1      -6.788  -6.619   3.724  0.00  0.00    -0.030 A 
ATOM     27  C   UNL     1      -8.050  -7.126   3.477  0.00  0.00    +0.005 A 
ATOM     28  C   UNL     1      -8.203  -8.450   3.108  0.00  0.00    +0.000 A 
ATOM     29  C   UNL     1      -7.093  -9.265   2.984  0.00  0.00    +0.000 A 
ATOM     30  C   UNL     1      -5.831  -8.758   3.230  0.00  0.00    +0.000 A 
ATOM     31  C   UNL     1      -5.678  -7.433   3.596  0.00  0.00    +0.005 A 
ENDBRANCH  25  26
ENDBRANCH   6  25
BRANCH   9  32
ATOM     32  C   UNL     1      -8.233  -3.046  -1.075  0.00  0.00    +0.035 C 
BRANCH  32  33
ATOM     33  C   UNL     1      -8.431  -2.136  -2.260  0.00  0.00    -0.048 A 
ATOM     34  C   UNL     1      -9.424  -1.175  -2.234  0.00  0.00    +0.007 A 
ATOM     35  C   UNL     1      -9.608  -0.340  -3.319  0.00  0.00    +0.045 A 
ATOM     36  C   UNL     1      -8.796  -0.468  -4.436  0.00  0.00    +0.117 A 
ATOM     37  C   UNL     1      -7.800  -1.433  -4.460  0.00  0.00    +0.045 A 
ATOM     38  C   UNL     1      -7.617  -2.262  -3.370  0.00  0.00    +0.007 A 
BRANCH  36  39
ATOM     39  O   UNL     1      -8.975   0.351  -5.506  0.00  0.00    -0.507 OA
ATOM     40  H   UNL     1      -8.458   1.167  -5.467  0.00  0.00    +0.292 HD
ENDBRANCH  36  39
ENDBRANCH  32  33
ENDBRANCH   9  32
TORSDOF 8
