REMARK  Name = ZINC12333668
REMARK  7 active torsions:
REMARK  status: ('A' for Active; 'I' for Inactive)
REMARK    1  A    between atoms: C_1  and  C_2
REMARK    2  A    between atoms: C_2  and  O_3
REMARK    3  A    between atoms: O_3  and  C_4
REMARK    4  A    between atoms: C_9  and  N_68
REMARK    5  A    between atoms: C_12  and  N_68
REMARK    6  A    between atoms: N_23  and  C_26
REMARK    7  A    between atoms: C_26  and  C_27
REMARK                            x       y       z     vdW  Elec       q    Type
REMARK                         _______ _______ _______ _____ _____    ______ ____
ROOT
ATOM      1  C   UNL     1       0.874   3.975   7.305  0.00  0.00    -0.066 C 
ATOM      2  C   UNL     1       1.568   2.779   6.645  0.00  0.00    -0.011 C 
ATOM      3  C   UNL     1       1.379   2.841   5.129  0.00  0.00    +0.035 C 
ATOM      4  C   UNL     1      -0.109   2.989   4.824  0.00  0.00    -0.023 A 
ATOM      5  C   UNL     1      -0.969   3.414   5.774  0.00  0.00    -0.006 A 
ATOM      6  S   UNL     1      -2.555   3.429   4.984  0.00  0.00    -0.073 S 
ATOM      7  C   UNL     1      -2.057   2.865   3.376  0.00  0.00    +0.116 A 
ATOM      8  C   UNL     1      -0.672   2.684   3.509  0.00  0.00    +0.076 A 
ATOM      9  C   UNL     1       0.009   2.221   2.335  0.00  0.00    +0.262 A 
ATOM     10  O   UNL     1       1.213   2.034   2.350  0.00  0.00    -0.267 OA
ATOM     11  N   UNL     1      -0.704   1.998   1.216  0.00  0.00    -0.298 N 
ATOM     12  C   UNL     1      -2.046   2.207   1.179  0.00  0.00    +0.203 A 
ATOM     13  N   UNL     1      -2.694   2.623   2.234  0.00  0.00    -0.230 NA
ATOM     14  C   UNL     1      -0.645   3.789   7.188  0.00  0.00    +0.027 C 
ENDROOT
BRANCH   1  15
ATOM     15  N   UNL     1       1.261   4.038   8.727  0.00  0.00    +0.383 N 
ATOM     16  H   UNL     1       0.649   3.420   9.272  0.00  0.00    -0.085 HD
ATOM     17  H   UNL     1       2.235   3.731   8.827  0.00  0.00    -0.085 HD
BRANCH  15  23
ATOM     18  C   UNL     1       2.642   8.297  11.742  0.00  0.00    +0.403 C 
ATOM     19  O   UNL     1       2.344   8.263  12.920  0.00  0.00    -0.226 OA
ATOM     20  N   UNL     1       1.913   7.608  10.842  0.00  0.00    -0.268 N 
ATOM     21  C   UNL     1       0.754   6.812  11.270  0.00  0.00    +0.109 C 
ATOM     22  C   UNL     1       0.919   5.382  10.746  0.00  0.00    +0.003 C 
ATOM     23  C   UNL     1       1.132   5.419   9.231  0.00  0.00    -0.069 C 
ATOM     24  C   UNL     1       2.409   6.200   8.913  0.00  0.00    +0.003 C 
ATOM     25  C   UNL     1       2.261   7.639   9.415  0.00  0.00    +0.109 C 
BRANCH  18  26
ATOM     26  O   UNL     1       3.701   9.023  11.337  0.00  0.00    -0.451 OA
BRANCH  26  28
ATOM     27  C   UNL     1       5.599  10.501  11.714  0.00  0.00    +0.048 C 
ATOM     28  C   UNL     1       4.440   9.739  12.361  0.00  0.00    +0.230 C 
ENDBRANCH  26  28
ENDBRANCH  18  26
ENDBRANCH  15  23
ENDBRANCH   1  15
BRANCH  11  29
ATOM     29  C   UNL     1      -0.019   1.526   0.010  0.00  0.00    +0.129 C 
BRANCH  29  30
ATOM     30  C   UNL     1       0.002  -0.004   0.002  0.00  0.00    +0.009 C 
ATOM     31  C   UNL     1       0.848  -0.509   1.173  0.00  0.00    +0.005 C 
ATOM     32  C   UNL     1       0.868  -2.039   1.165  0.00  0.00    +0.000 C 
ATOM     33  C   UNL     1       1.472  -2.534  -0.151  0.00  0.00    +0.000 C 
ATOM     34  C   UNL     1       0.627  -2.029  -1.322  0.00  0.00    +0.000 C 
ATOM     35  C   UNL     1       0.606  -0.499  -1.314  0.00  0.00    +0.005 C 
ENDBRANCH  29  30
ENDBRANCH  11  29
TORSDOF 6
