REMARK  Name = ZINC34785492
REMARK  7 active torsions:
REMARK  status: ('A' for Active; 'I' for Inactive)
REMARK    1  A    between atoms: C_4  and  C_7
REMARK    2  A    between atoms: C_7  and  N_8
REMARK    3  A    between atoms: C_9  and  N_28
REMARK    4  A    between atoms: C_10  and  N_20
REMARK    5  A    between atoms: C_11  and  C_13
REMARK    6  A    between atoms: N_23  and  C_24
REMARK    7  A    between atoms: C_24  and  C_25
REMARK                            x       y       z     vdW  Elec       q    Type
REMARK                         _______ _______ _______ _____ _____    ______ ____
ROOT
ATOM      1  N   UNL     1       3.863  -0.956   1.455  0.00  0.00    -0.244 N 
ATOM      2  C   UNL     1       4.396  -0.005   2.269  0.00  0.00    +0.137 A 
ATOM      3  C   UNL     1       5.057  -0.645   3.275  0.00  0.00    +0.102 A 
ATOM      4  C   UNL     1       4.920  -2.032   3.064  0.00  0.00    +0.116 A 
ATOM      5  N   UNL     1       4.199  -2.212   1.976  0.00  0.00    -0.167 NA
ENDROOT
BRANCH   4   6
ATOM      6  C   UNL     1       5.484  -3.103   3.921  0.00  0.00    +0.004 A 
ATOM      7  C   UNL     1       6.700  -2.909   4.574  0.00  0.00    +0.011 A 
ATOM      8  C   UNL     1       7.220  -3.908   5.370  0.00  0.00    +0.020 A 
ATOM      9  C   UNL     1       6.536  -5.102   5.522  0.00  0.00    +0.041 A 
ATOM     10  C   UNL     1       5.328  -5.301   4.876  0.00  0.00    +0.020 A 
ATOM     11  C   UNL     1       4.796  -4.305   4.082  0.00  0.00    +0.011 A 
ATOM     12 CL   UNL     1       7.196  -6.356   6.525  0.00  0.00    -0.084 Cl
ENDBRANCH   4   6
BRANCH   3  13
ATOM     13  N   UNL     1       5.753  -0.030   4.337  0.00  0.00    -0.265 N 
ATOM     14  C   UNL     1       5.734  -0.584   5.566  0.00  0.00    +0.304 C 
ATOM     15  O   UNL     1       5.043  -1.560   5.782  0.00  0.00    -0.253 OA
ATOM     16  N   UNL     1       6.482  -0.055   6.555  0.00  0.00    -0.299 N 
ATOM     17  H   UNL     1       6.245   0.792   4.183  0.00  0.00    +0.157 HD
ATOM     18  H   UNL     1       7.033   0.725   6.382  0.00  0.00    +0.150 HD
BRANCH  16  19
ATOM     19  C   UNL     1       6.461  -0.657   7.890  0.00  0.00    +0.109 C 
BRANCH  19  20
ATOM     20  C   UNL     1       7.389   0.130   8.818  0.00  0.00    +0.006 C 
ATOM     21  C   UNL     1       8.605  -0.604   9.388  0.00  0.00    +0.005 C 
ATOM     22  C   UNL     1       7.418  -0.272  10.294  0.00  0.00    +0.005 C 
ENDBRANCH  19  20
ENDBRANCH  16  19
ENDBRANCH   3  13
BRANCH   2  23
ATOM     23  N   UNL     1       4.286   1.377   2.104  0.00  0.00    -0.342 N 
ATOM     24  H   UNL     1       3.881   1.738   1.300  0.00  0.00    +0.144 HD
ATOM     25  H   UNL     1       4.615   1.975   2.793  0.00  0.00    +0.144 HD
ENDBRANCH   2  23
BRANCH   1  26
ATOM     26  C   UNL     1       3.071  -0.709   0.248  0.00  0.00    +0.180 C 
BRANCH  26  30
ATOM     27  C   UNL     1      -1.065  -0.454   1.284  0.00  0.00    +0.000 A 
ATOM     28  C   UNL     1      -0.281   0.685   1.284  0.00  0.00    +0.000 A 
ATOM     29  C   UNL     1       1.057   0.602   0.949  0.00  0.00    +0.005 A 
ATOM     30  C   UNL     1       1.612  -0.619   0.614  0.00  0.00    -0.026 A 
ATOM     31  C   UNL     1       0.828  -1.758   0.616  0.00  0.00    +0.005 A 
ATOM     32  C   UNL     1      -0.511  -1.675   0.950  0.00  0.00    +0.000 A 
ENDBRANCH  26  30
ENDBRANCH   1  26
TORSDOF 7
