REMARK  Name = ZINC39674005
REMARK  9 active torsions:
REMARK  status: ('A' for Active; 'I' for Inactive)
REMARK    1  A    between atoms: C_1  and  C_2
REMARK    2  A    between atoms: C_4  and  C_12
REMARK    3  A    between atoms: C_12  and  C_13
REMARK    4  A    between atoms: C_13  and  N_14
REMARK    5  A    between atoms: C_15  and  C_17
REMARK    6  A    between atoms: C_28  and  C_30
REMARK    7  A    between atoms: C_30  and  C_32
REMARK    8  A    between atoms: C_30  and  O_33
REMARK    9  A    between atoms: O_33  and  C_34
REMARK                            x       y       z     vdW  Elec       q    Type
REMARK                         _______ _______ _______ _____ _____    ______ ____
ROOT
ATOM      1  C   UNL     1      -5.418   3.574   3.658  0.00  0.00    +0.100 C 
ATOM      2  C   UNL     1      -4.981   2.413   4.579  0.00  0.00    +0.121 C 
ATOM      3  N   UNL     1      -4.240   3.069   5.683  0.00  0.00    -0.297 N 
ATOM      4  C   UNL     1      -5.010   4.305   5.959  0.00  0.00    +0.115 C 
ATOM      5  C   UNL     1      -5.440   4.813   4.568  0.00  0.00    -0.004 C 
ATOM      6  C   UNL     1      -6.848   5.398   4.631  0.00  0.00    -0.010 C 
ATOM      7  C   UNL     1      -6.832   6.662   5.494  0.00  0.00    -0.082 C 
ATOM      8  N   UNL     1      -5.900   7.639   4.918  0.00  0.00    +0.379 N 
ATOM      9  C   UNL     1      -4.534   7.105   4.947  0.00  0.00    -0.082 C 
ATOM     10  C   UNL     1      -4.452   5.859   4.061  0.00  0.00    -0.010 C 
ATOM     11  C   UNL     1      -3.120   2.639   6.297  0.00  0.00    +0.256 C 
ATOM     12  O   UNL     1      -2.550   1.648   5.892  0.00  0.00    -0.272 OA
ATOM     13  H   UNL     1      -6.165   7.832   3.963  0.00  0.00    -0.086 HD
ATOM     14  H   UNL     1      -5.937   8.494   5.453  0.00  0.00    -0.086 HD
ENDROOT
BRANCH   1  16
ATOM     15  N   UNL     1      -4.833   4.230   1.346  0.00  0.00    -0.315 N 
ATOM     16  C   UNL     1      -4.424   3.760   2.541  0.00  0.00    +0.218 C 
ATOM     17  O   UNL     1      -3.255   3.488   2.717  0.00  0.00    -0.275 OA
ATOM     18  H   UNL     1      -5.768   4.447   1.205  0.00  0.00    +0.149 HD
BRANCH  15  19
ATOM     19  C   UNL     1      -3.867   4.411   0.260  0.00  0.00    +0.109 C 
BRANCH  19  20
ATOM     20  C   UNL     1      -4.586   4.952  -0.978  0.00  0.00    +0.056 C 
BRANCH  20  24
ATOM     21  C   UNL     1      -3.810   2.831  -3.108  0.00  0.00    +0.063 C 
ATOM     22  C   UNL     1      -3.250   4.228  -3.020  0.00  0.00    +0.017 A 
ATOM     23  H   UNL     1      -1.912   4.283  -4.616  0.00  0.00    +0.166 HD
ATOM     24  C   UNL     1      -3.592   5.138  -2.095  0.00  0.00    -0.018 A 
ATOM     25  C   UNL     1      -2.816   6.348  -2.377  0.00  0.00    +0.003 A 
ATOM     26  C   UNL     1      -2.731   7.608  -1.782  0.00  0.00    +0.010 A 
ATOM     27  C   UNL     1      -1.884   8.548  -2.299  0.00  0.00    +0.001 A 
ATOM     28  C   UNL     1      -1.108   8.260  -3.413  0.00  0.00    +0.002 A 
ATOM     29  C   UNL     1      -1.176   7.023  -4.017  0.00  0.00    +0.026 A 
ATOM     30  C   UNL     1      -2.031   6.051  -3.507  0.00  0.00    +0.047 A 
ATOM     31  N   UNL     1      -2.314   4.754  -3.869  0.00  0.00    -0.358 N 
ENDBRANCH  20  24
ENDBRANCH  19  20
ENDBRANCH  15  19
ENDBRANCH   1  16
BRANCH  11  32
ATOM     32  C   UNL     1      -2.578   3.388   7.486  0.00  0.00    +0.256 C 
ATOM     33  C   UNL     1      -3.531   3.224   8.671  0.00  0.00    +0.062 C 
BRANCH  32  34
ATOM     34  O   UNL     1      -1.293   2.867   7.832  0.00  0.00    -0.480 OA
BRANCH  34  35
ATOM     35  C   UNL     1      -0.447   3.700   8.493  0.00  0.00    +0.122 A 
ATOM     36  C   UNL     1       0.858   3.303   8.751  0.00  0.00    +0.045 A 
ATOM     37  C   UNL     1       1.716   4.152   9.423  0.00  0.00    +0.004 A 
ATOM     38  C   UNL     1       1.276   5.395   9.839  0.00  0.00    +0.000 A 
ATOM     39  C   UNL     1      -0.024   5.792   9.584  0.00  0.00    +0.004 A 
ATOM     40  C   UNL     1      -0.884   4.949   8.907  0.00  0.00    +0.045 A 
ENDBRANCH  34  35
ENDBRANCH  32  34
ENDBRANCH  11  32
TORSDOF 7
