REMARK  Name = ZINC42406122
REMARK  3 active torsions:
REMARK  status: ('A' for Active; 'I' for Inactive)
REMARK    1  A    between atoms: C_2  and  N_22
REMARK    2  A    between atoms: C_3  and  N_12
REMARK    3  A    between atoms: C_17  and  C_19
REMARK                            x       y       z     vdW  Elec       q    Type
REMARK                         _______ _______ _______ _____ _____    ______ ____
ROOT
ATOM      1  C   UNL     1       0.861  -0.169   0.278  0.00  0.00    +0.072 A 
ATOM      2  C   UNL     1       1.765   0.883   0.272  0.00  0.00    +0.050 A 
ATOM      3  C   UNL     1       3.098   0.656  -0.066  0.00  0.00    +0.053 A 
ATOM      4  C   UNL     1       3.522  -0.623  -0.396  0.00  0.00    +0.052 A 
ATOM      5  C   UNL     1       2.617  -1.673  -0.389  0.00  0.00    +0.078 A 
ATOM      6  C   UNL     1       1.284  -1.445  -0.052  0.00  0.00    +0.144 A 
ATOM      7  O   UNL     1       0.407  -2.486  -0.053  0.00  0.00    -0.481 OA
ATOM      8  C   UNL     1       0.634  -3.517  -1.017  0.00  0.00    +0.325 C 
ATOM      9  C   UNL     1       2.092  -3.902  -1.014  0.00  0.00    +0.255 C 
ATOM     10  O   UNL     1       2.422  -5.040  -1.274  0.00  0.00    -0.272 OA
ATOM     11  N   UNL     1       3.029  -2.974  -0.720  0.00  0.00    -0.280 N 
ATOM     12  H   UNL     1       3.971  -3.203  -0.737  0.00  0.00    +0.155 HD
ENDROOT
BRANCH   3  13
ATOM     13  N   UNL     1       4.011   1.721  -0.073  0.00  0.00    -0.317 N 
ATOM     14  C   UNL     1       4.773   2.061   1.136  0.00  0.00    +0.106 C 
ATOM     15  C   UNL     1       6.265   2.086   0.788  0.00  0.00    +0.019 C 
ATOM     16  C   UNL     1       6.495   3.038  -0.388  0.00  0.00    +0.004 C 
ATOM     17  C   UNL     1       5.722   2.536  -1.610  0.00  0.00    +0.032 C 
ATOM     18  C   UNL     1       4.229   2.513  -1.291  0.00  0.00    +0.159 C 
BRANCH  18  19
ATOM     19  C   UNL     1       3.479   1.889  -2.440  0.00  0.00    +0.231 C 
ATOM     20  O   UNL     1       3.461   0.683  -2.569  0.00  0.00    -0.274 OA
ATOM     21  N   UNL     1       2.828   2.671  -3.324  0.00  0.00    -0.328 N 
ATOM     22  H   UNL     1       2.842   3.635  -3.220  0.00  0.00    +0.145 HD
ATOM     23  H   UNL     1       2.345   2.269  -4.063  0.00  0.00    +0.145 HD
ENDBRANCH  18  19
ENDBRANCH   3  13
BRANCH   2  24
ATOM     24  N   UNL     1       1.338   2.176   0.607  0.00  0.00    -0.356 N 
ATOM     25  H   UNL     1       0.410   2.334   0.842  0.00  0.00    +0.142 HD
ATOM     26  H   UNL     1       1.970   2.912   0.603  0.00  0.00    +0.142 HD
ENDBRANCH   2  24
TORSDOF 3
