REMARK  Name = ZINC41630098
REMARK  12 active torsions:
REMARK  status: ('A' for Active; 'I' for Inactive)
REMARK    1  A    between atoms: C_1  and  C_2
REMARK    2  A    between atoms: C_2  and  C_4
REMARK    3  A    between atoms: C_2  and  S_19
REMARK    4  A    between atoms: N_6  and  C_7
REMARK    5  A    between atoms: C_8  and  C_16
REMARK    6  A    between atoms: C_12  and  C_13
REMARK    7  A    between atoms: C_13  and  C_14
REMARK    8  A    between atoms: C_13  and  C_15
REMARK    9  A    between atoms: C_16  and  C_17
REMARK   10  A    between atoms: C_16  and  C_18
REMARK   11  A    between atoms: S_19  and  C_20
REMARK   12  A    between atoms: C_26  and  N_28
REMARK                            x       y       z     vdW  Elec       q    Type
REMARK                         _______ _______ _______ _____ _____    ______ ____
ROOT
ATOM      1  C   UNL     1      -1.662   0.124  -0.258  0.00  0.00    +0.230 C 
ATOM      2  O   UNL     1      -2.465   0.532   0.554  0.00  0.00    -0.274 OA
ATOM      3  N   UNL     1      -2.038  -0.779  -1.185  0.00  0.00    -0.284 N 
ATOM      4  H   UNL     1      -1.409  -1.069  -1.864  0.00  0.00    +0.155 HD
ENDROOT
BRANCH   3   5
ATOM      5  C   UNL     1      -3.337  -1.299  -1.167  0.00  0.00    +0.040 A 
ATOM      6  C   UNL     1      -3.846  -1.861  -0.003  0.00  0.00    -0.023 A 
ATOM      7  C   UNL     1      -5.128  -2.374   0.011  0.00  0.00    +0.006 A 
ATOM      8  C   UNL     1      -5.905  -2.328  -1.132  0.00  0.00    +0.001 A 
ATOM      9  C   UNL     1      -5.402  -1.770  -2.292  0.00  0.00    +0.006 A 
ATOM     10  C   UNL     1      -4.122  -1.250  -2.311  0.00  0.00    -0.023 A 
BRANCH  10  11
ATOM     11  C   UNL     1      -3.577  -0.635  -3.574  0.00  0.00    +0.015 C 
ATOM     12  C   UNL     1      -3.572  -1.681  -4.690  0.00  0.00    +0.012 C 
ATOM     13  C   UNL     1      -4.456   0.547  -3.987  0.00  0.00    +0.012 C 
ENDBRANCH  10  11
BRANCH   6  14
ATOM     14  C   UNL     1      -2.999  -1.912   1.242  0.00  0.00    +0.015 C 
ATOM     15  C   UNL     1      -3.782  -1.318   2.415  0.00  0.00    +0.012 C 
ATOM     16  C   UNL     1      -2.638  -3.366   1.554  0.00  0.00    +0.012 C 
ENDBRANCH   6  14
ENDBRANCH   3   5
BRANCH   1  18
ATOM     17  C   UNL     1      -0.095   1.792  -1.214  0.00  0.00    +0.029 C 
ATOM     18  C   UNL     1      -0.242   0.629  -0.231  0.00  0.00    +0.137 C 
BRANCH  18  19
ATOM     19  S   UNL     1       0.167   1.195   1.443  0.00  0.00    -0.075 S 
BRANCH  19  20
ATOM     20  C   UNL     1       1.877   1.608   1.347  0.00  0.00    +0.171 A 
ATOM     21  N   UNL     1       2.515   2.072   2.458  0.00  0.00    -0.302 N 
ATOM     22  H   UNL     1       2.026   2.171   3.291  0.00  0.00    +0.171 HD
ATOM     23  C   UNL     1       3.824   2.393   2.404  0.00  0.00    +0.254 A 
ATOM     24  O   UNL     1       4.404   2.809   3.395  0.00  0.00    -0.268 OA
ATOM     25  C   UNL     1       4.507   2.240   1.193  0.00  0.00    +0.113 A 
ATOM     26  C   UNL     1       3.812   1.764   0.090  0.00  0.00    +0.124 A 
ATOM     27  N   UNL     1       2.515   1.456   0.205  0.00  0.00    -0.209 NA
BRANCH  26  28
ATOM     28  N   UNL     1       4.458   1.602  -1.119  0.00  0.00    -0.343 N 
ATOM     29  H   UNL     1       5.399   1.822  -1.199  0.00  0.00    +0.144 HD
ATOM     30  H   UNL     1       3.970   1.269  -1.889  0.00  0.00    +0.144 HD
ENDBRANCH  26  28
ENDBRANCH  19  20
ENDBRANCH  18  19
ENDBRANCH   1  18
TORSDOF 7
