REMARK  Name = ZINC36690330
REMARK  11 active torsions:
REMARK  status: ('A' for Active; 'I' for Inactive)
REMARK    1  A    between atoms: C_1  and  C_2
REMARK    2  A    between atoms: C_2  and  C_3
REMARK    3  A    between atoms: N_9  and  S_10
REMARK    4  A    between atoms: S_10  and  C_13
REMARK    5  A    between atoms: C_16  and  C_19
REMARK    6  A    between atoms: N_21  and  C_22
REMARK    7  A    between atoms: C_22  and  C_23
REMARK    8  A    between atoms: C_23  and  C_24
REMARK    9  A    between atoms: C_24  and  N_25
REMARK   10  A    between atoms: N_25  and  C_26
REMARK   11  A    between atoms: N_25  and  C_27
REMARK                            x       y       z     vdW  Elec       q    Type
REMARK                         _______ _______ _______ _____ _____    ______ ____
ROOT
ATOM      1  C   UNL     1      -6.157  -2.974   1.553  0.00  0.00    +0.252 C 
ATOM      2  O   UNL     1      -6.514  -3.208   0.415  0.00  0.00    -0.270 OA
ATOM      3  N   UNL     1      -6.899  -3.405   2.593  0.00  0.00    -0.246 N 
ATOM      4  C   UNL     1      -7.986  -4.233   2.373  0.00  0.00    +0.168 A 
ATOM      5  N   UNL     1      -8.875  -4.671   3.233  0.00  0.00    -0.224 NA
ATOM      6  C   UNL     1      -9.894  -5.482   2.874  0.00  0.00    +0.080 A 
ATOM      7  C   UNL     1     -10.911  -6.021   3.696  0.00  0.00    +0.029 A 
ATOM      8  C   UNL     1     -11.879  -6.835   3.168  0.00  0.00    +0.002 A 
ATOM      9  C   UNL     1     -11.899  -7.157   1.818  0.00  0.00    +0.001 A 
ATOM     10  C   UNL     1     -10.919  -6.647   0.986  0.00  0.00    +0.017 A 
ATOM     11  C   UNL     1      -9.946  -5.832   1.506  0.00  0.00    +0.041 A 
ATOM     12  S   UNL     1      -8.540  -4.971   0.842  0.00  0.00    -0.052 S 
ENDROOT
BRANCH   1  16
ATOM     13  C   UNL     1      -2.575  -0.802   2.253  0.00  0.00    +0.106 A 
ATOM     14  C   UNL     1      -2.636  -1.714   1.214  0.00  0.00    +0.029 A 
ATOM     15  C   UNL     1      -3.796  -2.423   0.982  0.00  0.00    +0.015 A 
ATOM     16  C   UNL     1      -4.911  -2.219   1.797  0.00  0.00    +0.037 A 
ATOM     17  C   UNL     1      -4.843  -1.297   2.843  0.00  0.00    +0.015 A 
ATOM     18  C   UNL     1      -3.674  -0.599   3.068  0.00  0.00    +0.029 A 
BRANCH  13  19
ATOM     19  S   UNL     1      -1.089   0.099   2.543  0.00  0.00    +0.061 S 
ATOM     20  O   UNL     1      -1.476   1.362   3.067  0.00  0.00    -0.153 OA
ATOM     21  O   UNL     1      -0.300  -0.029   1.369  0.00  0.00    -0.153 OA
BRANCH  19  27
ATOM     22  C   UNL     1       0.539  -1.874   3.458  0.00  0.00    +0.080 C 
ATOM     23  C   UNL     1       0.098  -3.014   4.382  0.00  0.00    +0.021 C 
ATOM     24  C   UNL     1       0.174  -2.545   5.836  0.00  0.00    +0.003 C 
ATOM     25  C   UNL     1      -0.773  -1.361   6.043  0.00  0.00    +0.017 C 
ATOM     26  C   UNL     1      -0.342  -0.202   5.138  0.00  0.00    +0.110 C 
ATOM     27  N   UNL     1      -0.270  -0.683   3.752  0.00  0.00    -0.174 NA
BRANCH  22  29
ATOM     28  C   UNL     1       1.093  -3.587   1.726  0.00  0.00    +0.005 C 
ATOM     29  C   UNL     1       0.334  -2.287   1.999  0.00  0.00    +0.017 C 
ENDBRANCH  22  29
ENDBRANCH  19  27
ENDBRANCH  13  19
ENDBRANCH   1  16
BRANCH   3  30
ATOM     30  C   UNL     1      -6.554  -2.996   3.957  0.00  0.00    +0.114 C 
BRANCH  30  31
ATOM     31  C   UNL     1      -7.455  -1.836   4.385  0.00  0.00    +0.001 C 
BRANCH  31  32
ATOM     32  C   UNL     1      -7.000  -1.312   5.749  0.00  0.00    -0.078 C 
BRANCH  32  33
ATOM     33  N   UNL     1      -7.865  -0.198   6.159  0.00  0.00    +0.376 N 
ATOM     34  C   UNL     1      -7.505   0.226   7.519  0.00  0.00    -0.097 C 
ATOM     35  C   UNL     1      -7.688   0.927   5.232  0.00  0.00    -0.097 C 
ATOM     36  H   UNL     1      -8.829  -0.498   6.144  0.00  0.00    -0.083 HD
ENDBRANCH  32  33
ENDBRANCH  31  32
ENDBRANCH  30  31
ENDBRANCH   3  30
TORSDOF 8
