REMARK  Name = ZINC66931835
REMARK  9 active torsions:
REMARK  status: ('A' for Active; 'I' for Inactive)
REMARK    1  A    between atoms: C_1  and  C_2
REMARK    2  A    between atoms: C_2  and  C_3
REMARK    3  A    between atoms: C_10  and  C_15
REMARK    4  A    between atoms: N_17  and  C_18
REMARK    5  A    between atoms: C_23  and  S_24
REMARK    6  A    between atoms: S_24  and  C_25
REMARK    7  A    between atoms: C_25  and  C_27
REMARK    8  A    between atoms: C_25  and  C_28
REMARK    9  A    between atoms: C_28  and  C_29
REMARK                            x       y       z     vdW  Elec       q    Type
REMARK                         _______ _______ _______ _____ _____    ______ ____
ROOT
ATOM      1  C   UNL     1      -0.898  -3.236  -5.795  0.00  0.00    +0.248 C 
ATOM      2  O   UNL     1      -0.464  -4.360  -5.626  0.00  0.00    -0.270 OA
ATOM      3  N   UNL     1      -0.974  -2.722  -7.038  0.00  0.00    -0.281 N 
ATOM      4  H   UNL     1      -1.374  -1.850  -7.179  0.00  0.00    +0.155 HD
ENDROOT
BRANCH   1  11
ATOM      5  C   UNL     1      -2.000  -0.458  -0.066  0.00  0.00    +0.157 C 
ATOM      6  C   UNL     1      -1.816  -1.945   0.101  0.00  0.00    +0.237 C 
ATOM      7  O   UNL     1      -1.862  -2.436   1.209  0.00  0.00    -0.273 OA
ATOM      8  N   UNL     1      -1.600  -2.733  -0.969  0.00  0.00    -0.282 N 
ATOM      9  C   UNL     1      -1.681  -2.217  -2.268  0.00  0.00    +0.055 A 
ATOM     10  C   UNL     1      -1.263  -2.970  -3.348  0.00  0.00    +0.038 A 
ATOM     11  C   UNL     1      -1.342  -2.436  -4.638  0.00  0.00    +0.039 A 
ATOM     12  C   UNL     1      -1.842  -1.145  -4.832  0.00  0.00    +0.015 A 
ATOM     13  C   UNL     1      -2.260  -0.398  -3.752  0.00  0.00    +0.025 A 
ATOM     14  C   UNL     1      -2.186  -0.929  -2.472  0.00  0.00    +0.049 A 
ATOM     15  N   UNL     1      -2.628  -0.193  -1.368  0.00  0.00    -0.331 N 
ATOM     16  H   UNL     1      -1.386  -3.670  -0.838  0.00  0.00    +0.155 HD
ATOM     17  H   UNL     1      -3.329   0.472  -1.458  0.00  0.00    +0.147 HD
BRANCH   5  19
ATOM     18  C   UNL     1      -0.838   1.754  -0.051  0.00  0.00    +0.006 C 
ATOM     19  C   UNL     1      -0.639   0.237  -0.003  0.00  0.00    +0.028 C 
ENDBRANCH   5  19
ENDBRANCH   1  11
BRANCH   3  20
ATOM     20  C   UNL     1      -0.474  -3.448  -8.127  0.00  0.00    +0.047 A 
ATOM     21  C   UNL     1      -0.527  -4.834  -8.123  0.00  0.00    +0.024 A 
ATOM     22  C   UNL     1      -0.033  -5.548  -9.198  0.00  0.00    +0.002 A 
ATOM     23  C   UNL     1       0.514  -4.885 -10.282  0.00  0.00    +0.001 A 
ATOM     24  C   UNL     1       0.570  -3.504 -10.296  0.00  0.00    +0.016 A 
ATOM     25  C   UNL     1       0.071  -2.779  -9.223  0.00  0.00    +0.029 A 
BRANCH  25  26
ATOM     26  S   UNL     1       0.135  -1.018  -9.241  0.00  0.00    -0.119 S 
BRANCH  26  27
ATOM     27  C   UNL     1       0.769  -0.618 -10.893  0.00  0.00    +0.062 C 
ATOM     28  C   UNL     1      -0.282  -0.983 -11.944  0.00  0.00    +0.020 C 
BRANCH  27  29
ATOM     29  C   UNL     1       1.074   0.879 -10.974  0.00  0.00    +0.132 C 
BRANCH  29  30
ATOM     30  C   UNL     1       2.169   1.208 -10.047  0.00  0.00    +0.064 C 
ATOM     31  N   UNL     1       3.014   1.461  -9.332  0.00  0.00    -0.197 NA
ENDBRANCH  29  30
ENDBRANCH  27  29
ENDBRANCH  26  27
ENDBRANCH  25  26
ENDBRANCH   3  20
TORSDOF 7
