REMARK  Name = ZINC32855735
REMARK  7 active torsions:
REMARK  status: ('A' for Active; 'I' for Inactive)
REMARK    1  A    between atoms: C_1  and  C_2
REMARK    2  A    between atoms: C_2  and  C_4
REMARK    3  A    between atoms: C_2  and  N_11
REMARK    4  A    between atoms: N_11  and  C_12
REMARK    5  A    between atoms: C_12  and  C_14
REMARK    6  A    between atoms: C_12  and  C_15
REMARK    7  A    between atoms: N_21  and  C_22
REMARK                            x       y       z     vdW  Elec       q    Type
REMARK                         _______ _______ _______ _____ _____    ______ ____
ROOT
ATOM      1  C   UNL     1       5.122   1.328  -2.713  0.00  0.00    +0.153 A 
ATOM      2  N   UNL     1       5.870   2.411  -2.590  0.00  0.00    -0.198 NA
ATOM      3  C   UNL     1       6.579   2.853  -3.626  0.00  0.00    +0.217 A 
ATOM      4  N   UNL     1       6.527   2.209  -4.788  0.00  0.00    -0.181 NA
ATOM      5  C   UNL     1       5.771   1.124  -4.908  0.00  0.00    +0.224 A 
ATOM      6  N   UNL     1       5.068   0.685  -3.866  0.00  0.00    -0.198 NA
ATOM      7  N   UNL     1       5.713   0.452  -6.114  0.00  0.00    -0.284 N 
ATOM      8  N   UNL     1       7.364   3.981  -3.496  0.00  0.00    -0.327 N 
ATOM      9  H   UNL     1       5.156  -0.494  -6.190  0.00  0.00    +0.155 HD
ATOM     10  H   UNL     1       7.950   4.345  -4.352  0.00  0.00    +0.145 HD
ATOM     11  H   UNL     1       7.403   4.515  -2.535  0.00  0.00    +0.145 HD
ENDROOT
BRANCH   7  12
ATOM     12  C   UNL     1       6.364   0.972  -7.237  0.00  0.00    +0.034 A 
ATOM     13  C   UNL     1       6.441   2.347  -7.421  0.00  0.00    +0.023 A 
ATOM     14  C   UNL     1       7.090   2.858  -8.528  0.00  0.00    +0.002 A 
ATOM     15  C   UNL     1       7.652   2.003  -9.458  0.00  0.00    +0.000 A 
ATOM     16  C   UNL     1       7.571   0.634  -9.281  0.00  0.00    +0.002 A 
ATOM     17  C   UNL     1       6.929   0.116  -8.173  0.00  0.00    +0.023 A 
ENDBRANCH   7  12
BRANCH   1  18
ATOM     18  C   UNL     1       4.326   0.827  -1.536  0.00  0.00    +0.120 C 
ATOM     19  C   UNL     1       5.264   0.145  -0.538  0.00  0.00    +0.032 C 
BRANCH  18  20
ATOM     20  N   UNL     1       3.655   1.959  -0.882  0.00  0.00    -0.301 NA
ATOM     21  H   UNL     1       3.372   2.693  -1.651  0.00  0.00    +0.123 HD
BRANCH  20  23
ATOM     22  C   UNL     1       2.132   2.508   0.955  0.00  0.00    +0.029 C 
ATOM     23  C   UNL     1       2.454   1.515  -0.163  0.00  0.00    +0.081 C 
BRANCH  23  24
ATOM     24  C   UNL     1       1.292   1.443  -1.121  0.00  0.00    -0.031 A 
ATOM     25  C   UNL     1       0.390   0.399  -1.036  0.00  0.00    +0.006 A 
ATOM     26  C   UNL     1      -0.672   0.330  -1.918  0.00  0.00    +0.020 A 
ATOM     27  C   UNL     1      -0.838   1.311  -2.878  0.00  0.00    +0.041 A 
ATOM     28  C   UNL     1       0.065   2.356  -2.962  0.00  0.00    +0.020 A 
ATOM     29  C   UNL     1       1.129   2.422  -2.083  0.00  0.00    +0.006 A 
ATOM     30 CL   UNL     1      -2.175   1.228  -3.983  0.00  0.00    -0.084 Cl
ENDBRANCH  23  24
ENDBRANCH  20  23
ENDBRANCH  18  20
ENDBRANCH   1  18
TORSDOF 5
