REMARK  Name = ZINC39534285
REMARK  12 active torsions:
REMARK  status: ('A' for Active; 'I' for Inactive)
REMARK    1  A    between atoms: C_1  and  C_2
REMARK    2  A    between atoms: C_2  and  O_3
REMARK    3  A    between atoms: O_3  and  N_4
REMARK    4  A    between atoms: N_4  and  C_5
REMARK    5  A    between atoms: C_5  and  C_6
REMARK    6  A    between atoms: C_6  and  C_8
REMARK    7  A    between atoms: C_6  and  N_24
REMARK    8  A    between atoms: C_11  and  S_14
REMARK    9  A    between atoms: S_14  and  O_17
REMARK   10  A    between atoms: O_17  and  C_18
REMARK   11  A    between atoms: C_28  and  S_31
REMARK   12  A    between atoms: S_31  and  C_32
REMARK                            x       y       z     vdW  Elec       q    Type
REMARK                         _______ _______ _______ _____ _____    ______ ____
ROOT
ATOM      1  C   UNL     1      -2.897  -3.923   0.009  0.00  0.00    -0.021 C 
ENDROOT
BRANCH   1   2
ATOM      2  N   UNL     1      -2.235  -4.433  -1.200  0.00  0.00    +0.387 N 
ATOM      3  C   UNL     1      -2.398  -5.891  -1.269  0.00  0.00    -0.062 C 
ATOM      4  C   UNL     1      -1.725  -6.420  -2.537  0.00  0.00    +0.063 C 
ATOM      5  N   UNL     1      -0.298  -6.069  -2.514  0.00  0.00    -0.308 NA
ATOM      6  C   UNL     1      -0.119  -4.614  -2.420  0.00  0.00    +0.095 C 
ATOM      7  C   UNL     1      -0.805  -4.099  -1.153  0.00  0.00    -0.048 C 
ATOM      8  H   UNL     1       0.178  -6.542  -1.760  0.00  0.00    +0.123 HD
ATOM      9  H   UNL     1      -2.652  -4.009  -2.015  0.00  0.00    -0.081 HD
BRANCH   6  10
ATOM     10  S   UNL     1       1.651  -4.224  -2.352  0.00  0.00    -0.147 S 
ATOM     11  C   UNL     1       2.459  -5.759  -2.882  0.00  0.00    +0.086 C 
ENDBRANCH   6  10
ENDBRANCH   1   2
BRANCH   1  12
ATOM     12  C   UNL     1      -4.328  -4.394   0.035  0.00  0.00    -0.060 A 
ATOM     13  C   UNL     1      -5.067  -4.423  -1.133  0.00  0.00    +0.004 A 
ATOM     14  C   UNL     1      -6.380  -4.856  -1.109  0.00  0.00    +0.031 A 
ATOM     15  C   UNL     1      -6.953  -5.260   0.082  0.00  0.00    +0.128 A 
ATOM     16  C   UNL     1      -6.213  -5.231   1.250  0.00  0.00    +0.031 A 
ATOM     17  C   UNL     1      -4.899  -4.803   1.225  0.00  0.00    +0.004 A 
BRANCH  15  18
ATOM     18  S   UNL     1      -8.627  -5.810   0.113  0.00  0.00    +0.151 S 
ATOM     19  O   UNL     1      -9.094  -5.616   1.441  0.00  0.00    -0.131 OA
ATOM     20  O   UNL     1      -9.267  -5.225  -1.013  0.00  0.00    -0.131 OA
BRANCH  18  21
ATOM     21  O   UNL     1      -8.611  -7.312  -0.128  0.00  0.00    -0.342 OA
BRANCH  21  22
ATOM     22  C   UNL     1      -8.201  -8.040   0.945  0.00  0.00    +0.157 A 
ATOM     23  C   UNL     1      -6.856  -8.333   1.112  0.00  0.00    +0.048 A 
ATOM     24  C   UNL     1      -6.441  -9.072   2.204  0.00  0.00    +0.004 A 
ATOM     25  C   UNL     1      -7.367  -9.520   3.128  0.00  0.00    +0.000 A 
ATOM     26  C   UNL     1      -8.709  -9.229   2.964  0.00  0.00    +0.004 A 
ATOM     27  C   UNL     1      -9.127  -8.485   1.877  0.00  0.00    +0.048 A 
ENDBRANCH  21  22
ENDBRANCH  18  21
ENDBRANCH  15  18
ENDBRANCH   1  12
BRANCH   1  28
ATOM     28  C   UNL     1      -2.863  -2.393   0.002  0.00  0.00    +0.100 C 
BRANCH  28  29
ATOM     29  N   UNL     1      -1.476  -1.933   0.147  0.00  0.00    -0.202 NA
ATOM     30  H   UNL     1      -1.054  -2.314   0.981  0.00  0.00    +0.154 HD
BRANCH  29  31
ATOM     31  O   UNL     1      -1.406  -0.472   0.145  0.00  0.00    -0.300 OA
BRANCH  31  33
ATOM     32  C   UNL     1      -0.128   1.576   0.268  0.00  0.00    +0.036 C 
ATOM     33  C   UNL     1      -0.081   0.047   0.283  0.00  0.00    +0.182 C 
ENDBRANCH  31  33
ENDBRANCH  29  31
ENDBRANCH  28  29
ENDBRANCH   1  28
TORSDOF 10
