REMARK  Name = ZINC39658534
REMARK  8 active torsions:
REMARK  status: ('A' for Active; 'I' for Inactive)
REMARK    1  A    between atoms: C_1  and  C_2
REMARK    2  A    between atoms: C_7  and  C_10
REMARK    3  A    between atoms: C_14  and  C_23
REMARK    4  A    between atoms: N_25  and  C_26
REMARK    5  A    between atoms: C_26  and  C_27
REMARK    6  A    between atoms: C_27  and  S_28
REMARK    7  A    between atoms: S_28  and  C_29
REMARK    8  A    between atoms: C_29  and  C_30
REMARK                            x       y       z     vdW  Elec       q    Type
REMARK                         _______ _______ _______ _____ _____    ______ ____
ROOT
ATOM      1  C   UNL     1      -4.290  -2.550   2.368  0.00  0.00    +0.219 C 
ATOM      2  O   UNL     1      -4.688  -1.828   3.257  0.00  0.00    -0.275 OA
ATOM      3  N   UNL     1      -4.599  -3.862   2.376  0.00  0.00    -0.300 N 
ATOM      4  C   UNL     1      -4.116  -4.916   1.453  0.00  0.00    +0.121 C 
ATOM      5  C   UNL     1      -3.884  -6.149   2.354  0.00  0.00    +0.100 C 
ATOM      6  C   UNL     1      -4.796  -5.922   3.572  0.00  0.00    -0.004 C 
ATOM      7  C   UNL     1      -5.495  -4.579   3.316  0.00  0.00    +0.115 C 
ATOM      8  C   UNL     1      -3.964  -5.843   4.848  0.00  0.00    -0.010 C 
ATOM      9  C   UNL     1      -4.897  -5.674   6.050  0.00  0.00    -0.082 C 
ATOM     10  N   UNL     1      -5.824  -6.811   6.116  0.00  0.00    +0.379 N 
ATOM     11  C   UNL     1      -6.684  -6.826   4.927  0.00  0.00    -0.082 C 
ATOM     12  C   UNL     1      -5.826  -7.043   3.677  0.00  0.00    -0.010 C 
ATOM     13  H   UNL     1      -5.297  -7.670   6.159  0.00  0.00    -0.086 HD
ATOM     14  H   UNL     1      -6.397  -6.729   6.943  0.00  0.00    -0.086 HD
ENDROOT
BRANCH   1  21
ATOM     15  C   UNL     1      -3.567   1.463  -2.385  0.00  0.00    +0.109 C 
ATOM     16  C   UNL     1      -2.699   1.248  -1.172  0.00  0.00    +0.212 C 
ATOM     17  O   UNL     1      -2.018   2.156  -0.745  0.00  0.00    -0.276 OA
ATOM     18  N   UNL     1      -2.679   0.047  -0.561  0.00  0.00    -0.302 N 
ATOM     19  C   UNL     1      -3.494  -1.065  -1.071  0.00  0.00    +0.108 C 
ATOM     20  C   UNL     1      -4.354  -1.611   0.073  0.00  0.00    +0.032 C 
ATOM     21  C   UNL     1      -3.451  -1.981   1.253  0.00  0.00    +0.078 C 
ATOM     22  C   UNL     1      -2.721  -0.732   1.751  0.00  0.00    +0.032 C 
ATOM     23  C   UNL     1      -1.838  -0.178   0.622  0.00  0.00    +0.108 C 
ENDBRANCH   1  21
BRANCH   5  24
ATOM     24  C   UNL     1      -2.441  -6.222   2.783  0.00  0.00    +0.218 C 
ATOM     25  O   UNL     1      -1.808  -5.202   2.956  0.00  0.00    -0.275 OA
ATOM     26  N   UNL     1      -1.855  -7.420   2.974  0.00  0.00    -0.314 N 
ATOM     27  H   UNL     1      -2.362  -8.236   2.836  0.00  0.00    +0.149 HD
BRANCH  26  28
ATOM     28  C   UNL     1      -0.452  -7.491   3.391  0.00  0.00    +0.115 C 
BRANCH  28  29
ATOM     29  C   UNL     1      -0.037  -8.957   3.536  0.00  0.00    +0.088 C 
BRANCH  29  30
ATOM     30  S   UNL     1       1.700  -9.044   4.052  0.00  0.00    -0.155 S 
BRANCH  30  31
ATOM     31  C   UNL     1       2.032 -10.823   4.176  0.00  0.00    +0.104 C 
BRANCH  31  32
ATOM     32  C   UNL     1       3.461 -11.040   4.603  0.00  0.00    -0.038 A 
ATOM     33  C   UNL     1       4.457 -11.149   3.651  0.00  0.00    +0.004 A 
ATOM     34  C   UNL     1       5.768 -11.348   4.042  0.00  0.00    +0.000 A 
ATOM     35  C   UNL     1       6.082 -11.435   5.386  0.00  0.00    +0.000 A 
ATOM     36  C   UNL     1       5.086 -11.325   6.337  0.00  0.00    +0.000 A 
ATOM     37  C   UNL     1       3.776 -11.122   5.946  0.00  0.00    +0.004 A 
ENDBRANCH  31  32
ENDBRANCH  30  31
ENDBRANCH  29  30
ENDBRANCH  28  29
ENDBRANCH  26  28
ENDBRANCH   5  24
TORSDOF 7
