REMARK  Name = ZINC39557992
REMARK  8 active torsions:
REMARK  status: ('A' for Active; 'I' for Inactive)
REMARK    1  A    between atoms: C_1  and  C_2
REMARK    2  A    between atoms: C_4  and  C_23
REMARK    3  A    between atoms: C_9  and  C_22
REMARK    4  A    between atoms: N_10  and  C_11
REMARK    5  A    between atoms: C_11  and  C_12
REMARK    6  A    between atoms: C_12  and  C_13
REMARK    7  A    between atoms: N_25  and  C_26
REMARK    8  A    between atoms: C_26  and  C_27
REMARK                            x       y       z     vdW  Elec       q    Type
REMARK                         _______ _______ _______ _____ _____    ______ ____
ROOT
ATOM      1  C   UNL     1       0.026   1.489  -0.056  0.00  0.00    +0.029 C 
ATOM      2  C   UNL     1       0.011  -0.041  -0.032  0.00  0.00    +0.089 C 
ATOM      3  C   UNL     1      -1.426  -0.542   0.155  0.00  0.00    +0.165 C 
ATOM      4  C   UNL     1      -1.880  -0.219   1.556  0.00  0.00    +0.171 C 
ATOM      5  O   UNL     1      -3.062  -0.051   1.783  0.00  0.00    -0.292 OA
ATOM      6  C   UNL     1      -0.950  -0.111   2.597  0.00  0.00    +0.065 C 
ATOM      7  C   UNL     1       0.375  -0.273   2.367  0.00  0.00    +0.007 C 
ATOM      8  N   UNL     1       0.817  -0.528   1.099  0.00  0.00    -0.329 N 
ATOM      9  C   UNL     1       1.358  -0.172   3.504  0.00  0.00    +0.060 C 
ENDROOT
BRANCH   3  10
ATOM     10  C   UNL     1      -2.330   0.138  -0.840  0.00  0.00    +0.226 C 
ATOM     11  O   UNL     1      -2.831   1.210  -0.571  0.00  0.00    -0.275 OA
ATOM     12  N   UNL     1      -2.583  -0.444  -2.029  0.00  0.00    -0.311 N 
ATOM     13  H   UNL     1      -2.183  -1.301  -2.244  0.00  0.00    +0.149 HD
BRANCH  12  14
ATOM     14  C   UNL     1      -3.462   0.217  -2.997  0.00  0.00    +0.141 C 
BRANCH  14  15
ATOM     15  C   UNL     1      -3.579  -0.635  -4.234  0.00  0.00    -0.012 A 
ATOM     16  C   UNL     1      -2.825  -0.336  -5.353  0.00  0.00    +0.006 A 
ATOM     17  C   UNL     1      -2.932  -1.118  -6.488  0.00  0.00    +0.000 A 
ATOM     18  C   UNL     1      -3.794  -2.199  -6.505  0.00  0.00    +0.001 A 
ATOM     19  C   UNL     1      -4.549  -2.498  -5.386  0.00  0.00    +0.020 A 
ATOM     20  C   UNL     1      -4.438  -1.720  -4.248  0.00  0.00    +0.046 A 
ATOM     21 CL   UNL     1      -5.380  -2.099  -2.841  0.00  0.00    -0.083 Cl
ENDBRANCH  14  15
ENDBRANCH  12  14
ENDBRANCH   3  10
BRANCH   8  22
ATOM     22  C   UNL     1       2.061  -1.267   0.870  0.00  0.00    +0.110 C 
BRANCH  22  23
ATOM     23  C   UNL     1       3.232  -0.285   0.798  0.00  0.00    +0.056 C 
BRANCH  23  24
ATOM     24  C   UNL     1       4.512  -1.046   0.564  0.00  0.00    -0.021 A 
ATOM     25  C   UNL     1       5.045  -1.476  -0.732  0.00  0.00    +0.003 A 
ATOM     26  C   UNL     1       4.609  -1.347  -2.051  0.00  0.00    +0.010 A 
ATOM     27  C   UNL     1       5.356  -1.873  -3.067  0.00  0.00    +0.001 A 
ATOM     28  C   UNL     1       6.546  -2.535  -2.797  0.00  0.00    +0.002 A 
ATOM     29  C   UNL     1       6.995  -2.674  -1.502  0.00  0.00    +0.026 A 
ATOM     30  C   UNL     1       6.250  -2.145  -0.453  0.00  0.00    +0.047 A 
ATOM     31  N   UNL     1       6.424  -2.118   0.913  0.00  0.00    -0.360 N 
ATOM     32  C   UNL     1       5.382  -1.454   1.501  0.00  0.00    +0.087 A 
ATOM     33  H   UNL     1       7.175  -2.507   1.387  0.00  0.00    +0.165 HD
ENDBRANCH  23  24
ENDBRANCH  22  23
ENDBRANCH   8  22
TORSDOF 6
