REMARK  Name = ZINC17970773
REMARK  8 active torsions:
REMARK  status: ('A' for Active; 'I' for Inactive)
REMARK    1  A    between atoms: C_1  and  C_2
REMARK    2  A    between atoms: C_4  and  C_34
REMARK    3  A    between atoms: N_11  and  N_12
REMARK    4  A    between atoms: C_13  and  C_15
REMARK    5  A    between atoms: C_18  and  S_21
REMARK    6  A    between atoms: S_21  and  N_24
REMARK    7  A    between atoms: C_26  and  C_33
REMARK    8  A    between atoms: C_29  and  C_32
REMARK                            x       y       z     vdW  Elec       q    Type
REMARK                         _______ _______ _______ _____ _____    ______ ____
ROOT
ATOM      1  N   UNL     1       0.106  -6.527   2.905  0.00  0.00    -0.231 N 
ATOM      2  C   UNL     1       0.126  -7.843   3.192  0.00  0.00    +0.260 C 
ATOM      3  O   UNL     1       0.133  -8.661   2.293  0.00  0.00    -0.269 OA
ATOM      4  H   UNL     1       0.100  -5.874   3.623  0.00  0.00    +0.173 HD
ENDROOT
BRANCH   1  15
ATOM      5  C   UNL     1      -0.018   1.503   0.010  0.00  0.00    +0.044 C 
ATOM      6  C   UNL     1       0.002  -0.004   0.002  0.00  0.00    -0.049 A 
ATOM      7  C   UNL     1       0.006  -0.698  -1.199  0.00  0.00    +0.009 A 
ATOM      8  C   UNL     1       0.025  -2.068  -1.234  0.00  0.00    -0.024 A 
ATOM      9  C   UNL     1       0.041  -2.821  -0.038  0.00  0.00    +0.083 A 
ATOM     10  C   UNL     1       0.036  -2.081   1.166  0.00  0.00    +0.041 A 
ATOM     11  C   UNL     1       0.023  -0.709   1.192  0.00  0.00    +0.020 A 
ATOM     12  S   UNL     1       0.060  -3.361   2.398  0.00  0.00    -0.051 S 
ATOM     13  C   UNL     1       0.074  -4.753   1.277  0.00  0.00    +0.176 A 
ATOM     14  N   UNL     1       0.060  -4.165   0.102  0.00  0.00    -0.223 NA
ATOM     15  N   UNL     1       0.094  -6.101   1.571  0.00  0.00    -0.242 N 
ATOM     16  C   UNL     1       0.028  -2.780  -2.563  0.00  0.00    +0.046 C 
ATOM     17  H   UNL     1       0.100  -6.753   0.853  0.00  0.00    +0.172 HD
ENDBRANCH   1  15
BRANCH   2  18
ATOM     18  C   UNL     1       0.138  -8.293   4.601  0.00  0.00    +0.038 A 
ATOM     19  C   UNL     1       0.124  -7.356   5.635  0.00  0.00    +0.015 A 
ATOM     20  C   UNL     1       0.136  -7.782   6.947  0.00  0.00    +0.029 A 
ATOM     21  C   UNL     1       0.162  -9.135   7.239  0.00  0.00    +0.106 A 
ATOM     22  C   UNL     1       0.176 -10.068   6.218  0.00  0.00    +0.029 A 
ATOM     23  C   UNL     1       0.158  -9.656   4.901  0.00  0.00    +0.015 A 
BRANCH  21  24
ATOM     24  S   UNL     1       0.177  -9.671   8.917  0.00  0.00    +0.061 S 
ATOM     25  O   UNL     1       0.752 -10.970   8.923  0.00  0.00    -0.153 OA
ATOM     26  O   UNL     1       0.711  -8.598   9.681  0.00  0.00    -0.153 OA
BRANCH  24  27
ATOM     27  N   UNL     1      -1.400  -9.849   9.389  0.00  0.00    -0.176 NA
ATOM     28  C   UNL     1      -2.136  -8.723   9.981  0.00  0.00    +0.112 C 
ATOM     29  C   UNL     1      -3.435  -8.516   9.196  0.00  0.00    +0.002 C 
ATOM     30  C   UNL     1      -4.219  -9.830   9.159  0.00  0.00    +0.009 C 
ATOM     31  C   UNL     1      -3.390 -10.901   8.447  0.00  0.00    +0.002 C 
ATOM     32  C   UNL     1      -2.092 -11.133   9.217  0.00  0.00    +0.112 C 
ATOM     33  C   UNL     1      -4.188 -12.205   8.381  0.00  0.00    +0.009 C 
ATOM     34  C   UNL     1      -4.278  -7.437   9.879  0.00  0.00    +0.009 C 
ENDBRANCH  24  27
ENDBRANCH  21  24
ENDBRANCH   2  18
TORSDOF 4
