REMARK  Name = ZINC61856660
REMARK  5 active torsions:
REMARK  status: ('A' for Active; 'I' for Inactive)
REMARK    1  A    between atoms: C_3  and  C_18
REMARK    2  A    between atoms: C_6  and  N_7
REMARK    3  A    between atoms: N_7  and  C_8
REMARK    4  A    between atoms: N_7  and  C_14
REMARK    5  A    between atoms: C_8  and  C_9
REMARK                            x       y       z     vdW  Elec       q    Type
REMARK                         _______ _______ _______ _____ _____    ______ ____
ROOT
ATOM      1  C   UNL     1       0.420   1.117  -0.181  0.00  0.00    +0.024 A 
ATOM      2  C   UNL     1       1.719   1.571  -0.214  0.00  0.00    +0.014 A 
ATOM      3  C   UNL     1       2.777   0.667  -0.094  0.00  0.00    +0.030 A 
ATOM      4  C   UNL     1       2.513  -0.698   0.061  0.00  0.00    +0.053 A 
ATOM      5  C   UNL     1       1.210  -1.146   0.094  0.00  0.00    +0.043 A 
ATOM      6  C   UNL     1       0.159  -0.242  -0.026  0.00  0.00    +0.032 A 
ATOM      7 CL   UNL     1       3.824  -1.826   0.210  0.00  0.00    -0.083 Cl
ENDROOT
BRANCH   3   8
ATOM      8  C   UNL     1       4.171   1.151  -0.130  0.00  0.00    +0.096 C 
ATOM      9  N   UNL     1       5.023   0.662  -1.032  0.00  0.00    -0.387 N 
ATOM     10  N   UNL     1       4.578   2.076   0.738  0.00  0.00    -0.345 N 
ATOM     11  H   UNL     1       5.957   0.924  -1.009  0.00  0.00    +0.157 HD
ATOM     12  H   UNL     1       3.959   2.432   1.394  0.00  0.00    +0.144 HD
ATOM     13  H   UNL     1       5.495   2.394   0.714  0.00  0.00    +0.144 HD
ATOM     14  H   UNL     1       4.709   0.044  -1.711  0.00  0.00    +0.157 HD
ENDBRANCH   3   8
BRANCH   6  15
ATOM     15  N   UNL     1      -1.155  -0.697   0.007  0.00  0.00    -0.322 N 
BRANCH  15  16
ATOM     16  C   UNL     1      -1.434  -2.110   0.275  0.00  0.00    +0.074 C 
ATOM     17  C   UNL     1      -2.895  -2.563   0.224  0.00  0.00    +0.024 C 
ATOM     18  C   UNL     1      -2.174  -2.451   1.569  0.00  0.00    +0.024 C 
ENDBRANCH  15  16
BRANCH  15  19
ATOM     19  C   UNL     1      -2.260   0.237  -0.224  0.00  0.00    +0.141 C 
BRANCH  19  20
ATOM     20  C   UNL     1      -2.609   0.248  -1.690  0.00  0.00    -0.023 A 
ATOM     21  C   UNL     1      -1.904   1.046  -2.573  0.00  0.00    +0.013 A 
ATOM     22  C   UNL     1      -2.244   1.033  -3.885  0.00  0.00    +0.045 A 
ATOM     23  S   UNL     1      -3.596  -0.132  -3.905  0.00  0.00    -0.105 S 
ATOM     24  C   UNL     1      -3.614  -0.527  -2.164  0.00  0.00    +0.050 A 
ENDBRANCH  19  20
ENDBRANCH  15  19
ENDBRANCH   6  15
TORSDOF 5
