REMARK  Name = ZINC12885750
REMARK  6 active torsions:
REMARK  status: ('A' for Active; 'I' for Inactive)
REMARK    1  A    between atoms: C_1  and  C_2
REMARK    2  A    between atoms: C_16  and  C_18
REMARK    3  A    between atoms: C_18  and  C_19
REMARK    4  A    between atoms: N_27  and  C_30
REMARK    5  A    between atoms: C_30  and  C_31
REMARK    6  A    between atoms: C_31  and  C_32
REMARK                            x       y       z     vdW  Elec       q    Type
REMARK                         _______ _______ _______ _____ _____    ______ ____
ROOT
ATOM      1  C   UNL     1       4.678  -4.775   2.105  0.00  0.00    +0.045 C 
ATOM      2  C   UNL     1       3.327  -4.301   1.636  0.00  0.00    -0.029 A 
ATOM      3  C   UNL     1       2.392  -5.215   1.195  0.00  0.00    +0.005 A 
ATOM      4  C   UNL     1       1.149  -4.790   0.762  0.00  0.00    +0.001 A 
ATOM      5  C   UNL     1       0.842  -3.440   0.770  0.00  0.00    +0.004 A 
ATOM      6  C   UNL     1       1.772  -2.525   1.209  0.00  0.00    -0.027 A 
ATOM      7  C   UNL     1       3.026  -2.941   1.649  0.00  0.00    +0.039 A 
ATOM      8  N   UNL     1       3.789  -1.841   2.044  0.00  0.00    -0.286 N 
ATOM      9  C   UNL     1       3.121  -0.680   1.898  0.00  0.00    +0.211 C 
ATOM     10  O   UNL     1       3.532   0.430   2.161  0.00  0.00    -0.277 OA
ATOM     11  C   UNL     1       1.767  -1.028   1.345  0.00  0.00    +0.050 C 
ATOM     12  C   UNL     1       1.519  -0.343  -0.005  0.00  0.00    +0.088 C 
ATOM     13  C   UNL     1       0.002  -0.004   0.002  0.00  0.00    +0.073 C 
ATOM     14  C   UNL     1      -0.531  -0.530   1.351  0.00  0.00    -0.053 C 
ATOM     15  C   UNL     1      -0.018   1.507   0.010  0.00  0.00    +0.224 C 
ATOM     16  O   UNL     1      -1.017   2.194   0.019  0.00  0.00    -0.275 OA
ATOM     17  N   UNL     1       1.237   1.969   0.001  0.00  0.00    -0.241 N 
ATOM     18  C   UNL     1       2.178   1.018  -0.011  0.00  0.00    +0.225 C 
ATOM     19  O   UNL     1       3.374   1.218  -0.025  0.00  0.00    -0.275 OA
ATOM     20  H   UNL     1       4.696  -1.905   2.384  0.00  0.00    +0.155 HD
ATOM     21  N   UNL     1       0.682  -0.578   2.200  0.00  0.00    +0.394 N 
ATOM     22  H   UNL     1       0.890   0.355   2.575  0.00  0.00    -0.083 HD
ATOM     23  H   UNL     1       0.546  -1.236   2.976  0.00  0.00    -0.083 HD
ENDROOT
BRANCH  14  24
ATOM     24  C   UNL     1      -1.586   0.424   1.915  0.00  0.00    +0.020 C 
BRANCH  24  25
ATOM     25  C   UNL     1      -2.180  -0.167   3.167  0.00  0.00    -0.049 A 
ATOM     26  C   UNL     1      -3.298  -0.977   3.086  0.00  0.00    +0.003 A 
ATOM     27  C   UNL     1      -3.841  -1.522   4.234  0.00  0.00    +0.000 A 
ATOM     28  C   UNL     1      -3.271  -1.251   5.465  0.00  0.00    +0.000 A 
ATOM     29  C   UNL     1      -2.157  -0.437   5.546  0.00  0.00    +0.000 A 
ATOM     30  C   UNL     1      -1.611   0.105   4.397  0.00  0.00    +0.003 A 
ENDBRANCH  24  25
ENDBRANCH  14  24
BRANCH  17  31
ATOM     31  C   UNL     1       1.555   3.399   0.002  0.00  0.00    +0.121 C 
BRANCH  31  32
ATOM     32  C   UNL     1       1.679   3.893   1.445  0.00  0.00    +0.054 C 
BRANCH  32  33
ATOM     33  C   UNL     1       2.006   5.364   1.446  0.00  0.00    -0.046 A 
ATOM     34  C   UNL     1       3.325   5.778   1.441  0.00  0.00    +0.004 A 
ATOM     35  C   UNL     1       3.625   7.128   1.438  0.00  0.00    +0.000 A 
ATOM     36  C   UNL     1       2.607   8.062   1.449  0.00  0.00    +0.000 A 
ATOM     37  C   UNL     1       1.288   7.647   1.460  0.00  0.00    +0.000 A 
ATOM     38  C   UNL     1       0.988   6.298   1.458  0.00  0.00    +0.004 A 
ENDBRANCH  32  33
ENDBRANCH  31  32
ENDBRANCH  17  31
TORSDOF 5
