REMARK  Name = ZINC06909357
REMARK  5 active torsions:
REMARK  status: ('A' for Active; 'I' for Inactive)
REMARK    1  A    between atoms: C_4  and  N_7
REMARK    2  A    between atoms: N_9  and  C_10
REMARK    3  A    between atoms: C_11  and  C_16
REMARK    4  A    between atoms: C_21  and  C_22
REMARK    5  A    between atoms: C_21  and  O_29
REMARK                            x       y       z     vdW  Elec       q    Type
REMARK                         _______ _______ _______ _____ _____    ______ ____
ROOT
ATOM      1  N   UNL     1       3.654  -0.675   0.052  0.00  0.00    -0.246 N 
ATOM      2  C   UNL     1       4.830   0.028  -0.032  0.00  0.00    +0.166 C 
ATOM      3  N   UNL     1       5.003   1.333   0.064  0.00  0.00    -0.206 NA
ATOM      4  S   UNL     1       6.072  -1.228  -0.301  0.00  0.00    -0.085 S 
ATOM      5  C   UNL     1       5.135  -2.661   0.380  0.00  0.00    +0.137 C 
ATOM      6  C   UNL     1       3.694  -2.105   0.293  0.00  0.00    +0.174 C 
ENDROOT
BRANCH   6   7
ATOM      7  C   UNL     1       2.977  -2.399   1.586  0.00  0.00    +0.004 A 
ATOM      8  C   UNL     1       2.870  -1.420   2.555  0.00  0.00    +0.009 A 
ATOM      9  C   UNL     1       2.212  -1.689   3.741  0.00  0.00    +0.020 A 
ATOM     10  C   UNL     1       1.660  -2.939   3.957  0.00  0.00    +0.041 A 
ATOM     11  C   UNL     1       1.767  -3.919   2.986  0.00  0.00    +0.020 A 
ATOM     12  C   UNL     1       2.421  -3.647   1.799  0.00  0.00    +0.009 A 
ATOM     13 CL   UNL     1       0.834  -3.279   5.445  0.00  0.00    -0.084 Cl
ENDBRANCH   6   7
BRANCH   1  17
ATOM     14  C   UNL     1       0.002   1.283  -0.366  0.00  0.00    +0.000 A 
ATOM     15  C   UNL     1       0.030  -0.070  -0.082  0.00  0.00    +0.002 A 
ATOM     16  C   UNL     1       1.240  -0.722   0.057  0.00  0.00    +0.023 A 
ATOM     17  C   UNL     1       2.428  -0.018  -0.089  0.00  0.00    +0.039 A 
ATOM     18  C   UNL     1       2.395   1.341  -0.374  0.00  0.00    +0.023 A 
ATOM     19  C   UNL     1       1.183   1.987  -0.511  0.00  0.00    +0.002 A 
ENDBRANCH   1  17
BRANCH   3  20
ATOM     20  C   UNL     1       6.214   1.872  -0.184  0.00  0.00    +0.165 A 
ATOM     21  C   UNL     1       6.922   2.756   0.633  0.00  0.00    +0.169 A 
ATOM     22  N   UNL     1       8.090   3.041  -0.002  0.00  0.00    -0.229 NA
ATOM     23  C   UNL     1       8.136   2.399  -1.131  0.00  0.00    +0.198 A 
ATOM     24  N   UNL     1       7.001   1.658  -1.286  0.00  0.00    -0.329 N 
ATOM     25  H   UNL     1       6.789   1.085  -2.039  0.00  0.00    +0.168 HD
BRANCH  21  26
ATOM     26  C   UNL     1       6.489   3.278   1.929  0.00  0.00    +0.264 C 
ATOM     27  O   UNL     1       5.413   2.944   2.391  0.00  0.00    -0.269 OA
ATOM     28  N   UNL     1       7.280   4.130   2.611  0.00  0.00    -0.324 N 
ATOM     29  H   UNL     1       8.136   4.397   2.243  0.00  0.00    +0.145 HD
ATOM     30  H   UNL     1       6.992   4.476   3.470  0.00  0.00    +0.145 HD
ENDBRANCH  21  26
ENDBRANCH   3  20
BRANCH   6  31
ATOM     31  O   UNL     1       3.010  -2.771  -0.770  0.00  0.00    -0.366 OA
ATOM     32  H   UNL     1       2.992  -3.734  -0.683  0.00  0.00    +0.212 HD
ENDBRANCH   6  31
TORSDOF 5
