REMARK  Name = ZINC46077185
REMARK  6 active torsions:
REMARK  status: ('A' for Active; 'I' for Inactive)
REMARK    1  A    between atoms: C_1  and  O_2
REMARK    2  A    between atoms: O_2  and  C_3
REMARK    3  A    between atoms: C_6  and  O_27
REMARK    4  A    between atoms: C_7  and  C_9
REMARK    5  A    between atoms: C_19  and  C_20
REMARK    6  A    between atoms: O_27  and  C_28
REMARK                            x       y       z     vdW  Elec       q    Type
REMARK                         _______ _______ _______ _____ _____    ______ ____
ROOT
ATOM      1  C   UNL     1      -2.535  -4.173   0.016  0.00  0.00    +0.070 C 
ATOM      2  C   UNL     1      -1.811  -4.721   1.253  0.00  0.00    +0.109 C 
ATOM      3  C   UNL     1      -0.322  -4.666   1.062  0.00  0.00    +0.218 C 
ATOM      4  O   UNL     1       0.373  -4.376   2.012  0.00  0.00    -0.275 OA
ATOM      5  N   UNL     1       0.276  -4.924  -0.115  0.00  0.00    -0.284 N 
ATOM      6  C   UNL     1      -0.532  -5.054  -1.280  0.00  0.00    +0.052 A 
ATOM      7  C   UNL     1      -1.849  -4.703  -1.201  0.00  0.00    +0.020 A 
ATOM      8  S   UNL     1      -2.486  -5.020  -2.818  0.00  0.00    -0.098 S 
ATOM      9  C   UNL     1      -0.980  -5.584  -3.593  0.00  0.00    +0.055 A 
ATOM     10  C   UNL     1      -0.074  -5.513  -2.570  0.00  0.00    +0.011 A 
ATOM     11  H   UNL     1       1.239  -5.020  -0.168  0.00  0.00    +0.155 HD
ENDROOT
BRANCH  10  12
ATOM     12  C   UNL     1       1.343  -5.897  -2.781  0.00  0.00    -0.015 A 
ATOM     13  C   UNL     1       2.367  -5.044  -2.372  0.00  0.00    +0.011 A 
ATOM     14  C   UNL     1       3.684  -5.406  -2.570  0.00  0.00    +0.039 A 
ATOM     15  C   UNL     1       3.989  -6.615  -3.173  0.00  0.00    +0.123 A 
ATOM     16  C   UNL     1       2.975  -7.466  -3.581  0.00  0.00    +0.039 A 
ATOM     17  C   UNL     1       1.655  -7.115  -3.382  0.00  0.00    +0.011 A 
ATOM     18  F   UNL     1       5.280  -6.965  -3.365  0.00  0.00    -0.205 F 
ENDBRANCH  10  12
BRANCH   1  23
ATOM     19  C   UNL     1      -1.201  -0.638   0.010  0.00  0.00    +0.121 A 
ATOM     20  C   UNL     1      -2.374   0.102   0.020  0.00  0.00    +0.049 A 
ATOM     21  C   UNL     1      -3.596  -0.542   0.028  0.00  0.00    +0.049 A 
ATOM     22  C   UNL     1      -3.650  -1.928   0.027  0.00  0.00    +0.124 A 
ATOM     23  C   UNL     1      -2.477  -2.667   0.017  0.00  0.00    +0.006 A 
ATOM     24  C   UNL     1      -1.255  -2.023   0.003  0.00  0.00    +0.053 A 
BRANCH  19  26
ATOM     25  C   UNL     1      -0.017   1.425   0.010  0.00  0.00    +0.277 C 
ATOM     26  O   UNL     1       0.002  -0.004   0.002  0.00  0.00    -0.495 OA
ENDBRANCH  19  26
BRANCH  22  27
ATOM     27  O   UNL     1      -4.853  -2.562   0.036  0.00  0.00    -0.495 OA
ATOM     28  C   UNL     1      -6.021  -1.738   0.046  0.00  0.00    +0.277 C 
ENDBRANCH  22  27
ENDBRANCH   1  23
TORSDOF 4
