REMARK  Name = ZINC47540238
REMARK  13 active torsions:
REMARK  status: ('A' for Active; 'I' for Inactive)
REMARK    1  A    between atoms: C_1  and  C_2
REMARK    2  A    between atoms: C_2  and  C_3
REMARK    3  A    between atoms: C_2  and  C_4
REMARK    4  A    between atoms: C_4  and  C_6
REMARK    5  A    between atoms: C_4  and  N_12
REMARK    6  A    between atoms: C_13  and  C_15
REMARK    7  A    between atoms: C_15  and  N_16
REMARK    8  A    between atoms: C_19  and  N_22
REMARK    9  A    between atoms: C_23  and  O_25
REMARK   10  A    between atoms: O_25  and  C_26
REMARK   11  A    between atoms: C_26  and  C_27
REMARK   12  A    between atoms: C_26  and  C_28
REMARK   13  A    between atoms: C_26  and  C_29
REMARK                            x       y       z     vdW  Elec       q    Type
REMARK                         _______ _______ _______ _____ _____    ______ ____
ROOT
ATOM      1  N   UNL     1      -1.131  -4.679   2.530  0.00  0.00    +0.385 N 
ATOM      2  C   UNL     1       0.172  -4.268   3.066  0.00  0.00    -0.076 C 
ATOM      3  C   UNL     1       0.291  -4.712   4.526  0.00  0.00    +0.004 C 
ATOM      4  C   UNL     1       0.164  -6.236   4.603  0.00  0.00    +0.073 C 
ATOM      5  C   UNL     1      -1.166  -6.660   3.973  0.00  0.00    +0.004 C 
ATOM      6  C   UNL     1      -1.231  -6.144   2.534  0.00  0.00    -0.076 C 
ATOM      7  H   UNL     1      -1.865  -4.292   3.103  0.00  0.00    -0.081 HD
ENDROOT
BRANCH   4   8
ATOM      8  N   UNL     1       0.201  -6.660   6.004  0.00  0.00    -0.278 N 
ATOM      9  C   UNL     1       0.606  -7.906   6.320  0.00  0.00    +0.401 C 
ATOM     10  O   UNL     1       0.941  -8.677   5.443  0.00  0.00    -0.226 OA
ATOM     11  H   UNL     1      -0.067  -6.045   6.705  0.00  0.00    +0.152 HD
BRANCH   9  12
ATOM     12  O   UNL     1       0.639  -8.297   7.608  0.00  0.00    -0.445 OA
BRANCH  12  13
ATOM     13  C   UNL     1       1.079  -9.631   7.871  0.00  0.00    +0.107 C 
ATOM     14  C   UNL     1       2.506  -9.809   7.350  0.00  0.00    +0.055 C 
ATOM     15  C   UNL     1       1.050  -9.890   9.378  0.00  0.00    +0.055 C 
ATOM     16  C   UNL     1       0.151 -10.622   7.165  0.00  0.00    +0.055 C 
ENDBRANCH  12  13
ENDBRANCH   9  12
ENDBRANCH   4   8
BRANCH   1  17
ATOM     17  C   UNL     1      -1.271  -4.184   1.155  0.00  0.00    +0.019 C 
BRANCH  17  19
ATOM     18  N   UNL     1      -1.413  -1.998   0.005  0.00  0.00    -0.310 N 
ATOM     19  C   UNL     1      -1.292  -2.677   1.163  0.00  0.00    +0.197 C 
ATOM     20  O   UNL     1      -1.198  -2.075   2.212  0.00  0.00    -0.278 OA
ATOM     21  H   UNL     1      -1.488  -2.480  -0.834  0.00  0.00    +0.149 HD
BRANCH  18  22
ATOM     22  C   UNL     1      -1.433  -0.534   0.013  0.00  0.00    +0.106 C 
BRANCH  22  23
ATOM     23  C   UNL     1      -2.162  -0.034  -1.208  0.00  0.00    -0.027 A 
ATOM     24  C   UNL     1      -1.982  -0.663  -2.426  0.00  0.00    +0.005 A 
ATOM     25  C   UNL     1      -2.650  -0.205  -3.546  0.00  0.00    +0.000 A 
ATOM     26  C   UNL     1      -3.500   0.881  -3.448  0.00  0.00    +0.000 A 
ATOM     27  C   UNL     1      -3.681   1.509  -2.230  0.00  0.00    +0.000 A 
ATOM     28  C   UNL     1      -3.015   1.049  -1.109  0.00  0.00    +0.005 A 
ENDBRANCH  22  23
BRANCH  22  30
ATOM     29  C   UNL     1      -0.019   1.526   0.010  0.00  0.00    +0.009 C 
ATOM     30  C   UNL     1       0.002  -0.004   0.002  0.00  0.00    +0.008 C 
ATOM     31  C   UNL     1       0.742  -0.511   1.242  0.00  0.00    +0.009 C 
ENDBRANCH  22  30
ENDBRANCH  18  22
ENDBRANCH  17  19
ENDBRANCH   1  17
TORSDOF 8
