REMARK  Name = ZINC36531862
REMARK  14 active torsions:
REMARK  status: ('A' for Active; 'I' for Inactive)
REMARK    1  A    between atoms: C_1  and  C_2
REMARK    2  A    between atoms: C_5  and  S_8
REMARK    3  A    between atoms: S_8  and  C_11
REMARK    4  A    between atoms: C_11  and  N_12
REMARK    5  A    between atoms: C_13  and  C_15
REMARK    6  A    between atoms: C_15  and  C_17
REMARK    7  A    between atoms: C_15  and  N_24
REMARK    8  A    between atoms: C_22  and  O_23
REMARK    9  A    between atoms: N_24  and  C_25
REMARK   10  A    between atoms: C_26  and  C_28
REMARK   11  A    between atoms: C_28  and  C_29
REMARK   12  A    between atoms: C_29  and  C_30
REMARK   13  A    between atoms: C_33  and  O_36
REMARK   14  A    between atoms: O_36  and  C_37
REMARK                            x       y       z     vdW  Elec       q    Type
REMARK                         _______ _______ _______ _____ _____    ______ ____
ROOT
ATOM      1  C   UNL     1       3.300  -5.003   3.484  0.00  0.00    +0.195 C 
ENDROOT
BRANCH   1   2
ATOM      2  C   UNL     1       2.520  -3.903   4.158  0.00  0.00    +0.023 A 
ATOM      3  C   UNL     1       1.181  -3.727   3.867  0.00  0.00    +0.009 A 
ATOM      4  C   UNL     1       0.465  -2.718   4.485  0.00  0.00    +0.001 A 
ATOM      5  C   UNL     1       1.087  -1.883   5.395  0.00  0.00    +0.004 A 
ATOM      6  C   UNL     1       2.426  -2.056   5.689  0.00  0.00    +0.046 A 
ATOM      7  C   UNL     1       3.145  -3.071   5.075  0.00  0.00    +0.122 A 
BRANCH   7   8
ATOM      8  O   UNL     1       4.460  -3.246   5.367  0.00  0.00    -0.506 OA
ATOM      9  H   UNL     1       5.056  -2.685   4.852  0.00  0.00    +0.292 HD
ENDBRANCH   7   8
ENDBRANCH   1   2
BRANCH   1  11
ATOM     10  N   UNL     1       2.656  -4.829   1.102  0.00  0.00    -0.294 N 
ATOM     11  C   UNL     1       2.543  -5.486   2.274  0.00  0.00    +0.239 C 
ATOM     12  O   UNL     1       1.832  -6.465   2.354  0.00  0.00    -0.273 OA
ATOM     13  H   UNL     1       3.172  -4.009   1.054  0.00  0.00    +0.150 HD
BRANCH  10  14
ATOM     14  C   UNL     1       2.001  -5.355  -0.098  0.00  0.00    +0.278 C 
BRANCH  14  15
ATOM     15  S   UNL     1       0.385  -4.556  -0.304  0.00  0.00    +0.013 S 
ATOM     16  O   UNL     1      -0.323  -4.561   0.928  0.00  0.00    -0.168 OA
ATOM     17  O   UNL     1      -0.236  -5.009  -1.499  0.00  0.00    -0.168 OA
BRANCH  15  22
ATOM     18  C   UNL     1       1.644   1.255  -1.330  0.00  0.00    +0.044 C 
ATOM     19  C   UNL     1       1.329  -0.196  -1.074  0.00  0.00    -0.050 A 
ATOM     20  C   UNL     1       1.229  -1.079  -2.133  0.00  0.00    +0.005 A 
ATOM     21  C   UNL     1       0.941  -2.411  -1.898  0.00  0.00    +0.027 A 
ATOM     22  C   UNL     1       0.754  -2.859  -0.603  0.00  0.00    +0.090 A 
ATOM     23  C   UNL     1       0.856  -1.977   0.456  0.00  0.00    +0.027 A 
ATOM     24  C   UNL     1       1.148  -0.646   0.221  0.00  0.00    +0.005 A 
ENDBRANCH  15  22
ENDBRANCH  14  15
ENDBRANCH  10  14
ENDBRANCH   1  11
BRANCH   1  25
ATOM     25  N   UNL     1       3.484  -6.115   4.420  0.00  0.00    -0.289 N 
ATOM     26  C   UNL     1       2.323  -6.722   5.074  0.00  0.00    +0.133 C 
ATOM     27  C   UNL     1       4.723  -6.579   4.679  0.00  0.00    +0.216 C 
ATOM     28  O   UNL     1       5.684  -6.076   4.137  0.00  0.00    -0.276 OA
BRANCH  27  29
ATOM     29  C   UNL     1       4.913  -7.723   5.642  0.00  0.00    +0.100 C 
BRANCH  29  30
ATOM     30  C   UNL     1       6.403  -8.051   5.756  0.00  0.00    +0.044 C 
BRANCH  30  31
ATOM     31  C   UNL     1       6.593  -9.195   6.718  0.00  0.00    -0.047 A 
ATOM     32  C   UNL     1       6.777  -8.940   8.065  0.00  0.00    +0.007 A 
ATOM     33  C   UNL     1       6.952  -9.987   8.950  0.00  0.00    +0.046 A 
ATOM     34  C   UNL     1       6.942 -11.294   8.486  0.00  0.00    +0.120 A 
ATOM     35  C   UNL     1       6.757 -11.547   7.134  0.00  0.00    +0.046 A 
ATOM     36  C   UNL     1       6.577 -10.497   6.255  0.00  0.00    +0.007 A 
BRANCH  34  37
ATOM     37  O   UNL     1       7.115 -12.325   9.354  0.00  0.00    -0.495 OA
ATOM     38  C   UNL     1       7.093 -13.645   8.806  0.00  0.00    +0.277 C 
ENDBRANCH  34  37
ENDBRANCH  30  31
ENDBRANCH  29  30
ENDBRANCH  27  29
ENDBRANCH   1  25
TORSDOF 11
