REMARK  Name = ZINC09087675
REMARK  9 active torsions:
REMARK  status: ('A' for Active; 'I' for Inactive)
REMARK    1  A    between atoms: C_1  and  C_2
REMARK    2  A    between atoms: C_4  and  C_29
REMARK    3  A    between atoms: C_6  and  N_8
REMARK    4  A    between atoms: C_9  and  C_11
REMARK    5  A    between atoms: C_12  and  C_28
REMARK    6  A    between atoms: C_16  and  C_18
REMARK    7  A    between atoms: C_21  and  O_26
REMARK    8  A    between atoms: C_22  and  O_24
REMARK    9  A    between atoms: O_24  and  C_25
REMARK                            x       y       z     vdW  Elec       q    Type
REMARK                         _______ _______ _______ _____ _____    ______ ____
ROOT
ATOM      1  C   UNL     1       0.201  -2.399   5.028  0.00  0.00    +0.056 C 
ATOM      2  C   UNL     1       0.108  -1.821   6.245  0.00  0.00    +0.017 C 
ATOM      3  N   UNL     1       0.024  -2.576   7.379  0.00  0.00    -0.300 N 
ATOM      4  C   UNL     1       0.026  -3.915   7.382  0.00  0.00    +0.135 C 
ATOM      5  N   UNL     1       0.114  -4.634   6.246  0.00  0.00    -0.315 N 
ATOM      6  C   UNL     1       0.203  -3.913   4.965  0.00  0.00    +0.139 C 
ATOM      7  S   UNL     1      -0.085  -4.740   8.878  0.00  0.00    -0.019 S 
ATOM      8  C   UNL     1       0.097  -0.318   6.352  0.00  0.00    +0.061 C 
ATOM      9  H   UNL     1      -0.042  -2.117   8.231  0.00  0.00    +0.154 HD
ATOM     10  H   UNL     1       0.114  -5.604   6.271  0.00  0.00    +0.149 HD
ENDROOT
BRANCH   6  11
ATOM     11  C   UNL     1       1.473  -4.348   4.280  0.00  0.00    -0.019 A 
ATOM     12  C   UNL     1       2.664  -4.363   4.981  0.00  0.00    +0.009 A 
ATOM     13  C   UNL     1       3.832  -4.761   4.357  0.00  0.00    +0.049 A 
ATOM     14  C   UNL     1       3.810  -5.146   3.027  0.00  0.00    +0.158 A 
ATOM     15  C   UNL     1       2.610  -5.132   2.321  0.00  0.00    +0.162 A 
ATOM     16  C   UNL     1       1.443  -4.736   2.954  0.00  0.00    +0.055 A 
BRANCH  15  17
ATOM     17  O   UNL     1       2.583  -5.509   1.015  0.00  0.00    -0.491 OA
ATOM     18  C   UNL     1       1.336  -5.385   0.329  0.00  0.00    +0.277 C 
ENDBRANCH  15  17
BRANCH  14  19
ATOM     19  O   UNL     1       4.957  -5.538   2.411  0.00  0.00    -0.503 OA
ATOM     20  H   UNL     1       5.136  -6.486   2.478  0.00  0.00    +0.292 HD
ENDBRANCH  14  19
ENDBRANCH   6  11
BRANCH   1  22
ATOM     21  N   UNL     1       1.439  -0.985   3.545  0.00  0.00    -0.282 N 
ATOM     22  C   UNL     1       0.288  -1.617   3.851  0.00  0.00    +0.248 C 
ATOM     23  O   UNL     1      -0.676  -1.515   3.115  0.00  0.00    -0.270 OA
ATOM     24  H   UNL     1       2.243  -1.168   4.056  0.00  0.00    +0.155 HD
BRANCH  21  30
ATOM     25  C   UNL     1      -0.406   0.648  -0.709  0.00  0.00    +0.044 C 
ATOM     26  C   UNL     1       0.591   0.750   0.417  0.00  0.00    -0.048 A 
ATOM     27  C   UNL     1       1.543   1.753   0.408  0.00  0.00    +0.006 A 
ATOM     28  C   UNL     1       2.460   1.850   1.439  0.00  0.00    -0.048 A 
ATOM     29  C   UNL     1       2.428   0.943   2.480  0.00  0.00    +0.026 A 
ATOM     30  C   UNL     1       1.474  -0.066   2.492  0.00  0.00    +0.034 A 
ATOM     31  C   UNL     1       0.550  -0.156   1.458  0.00  0.00    +0.026 A 
ATOM     32  C   UNL     1       3.495   2.945   1.425  0.00  0.00    +0.044 C 
ENDBRANCH  21  30
ENDBRANCH   1  22
TORSDOF 5
