REMARK  Name = ZINC17948696
REMARK  11 active torsions:
REMARK  status: ('A' for Active; 'I' for Inactive)
REMARK    1  A    between atoms: C_1  and  C_2
REMARK    2  A    between atoms: C_3  and  C_33
REMARK    3  A    between atoms: C_4  and  N_11
REMARK    4  A    between atoms: C_6  and  C_7
REMARK    5  A    between atoms: C_7  and  O_9
REMARK    6  A    between atoms: O_9  and  C_10
REMARK    7  A    between atoms: C_12  and  C_14
REMARK    8  A    between atoms: C_17  and  S_20
REMARK    9  A    between atoms: S_20  and  N_23
REMARK   10  A    between atoms: C_25  and  C_32
REMARK   11  A    between atoms: C_28  and  C_31
REMARK                            x       y       z     vdW  Elec       q    Type
REMARK                         _______ _______ _______ _____ _____    ______ ____
ROOT
ATOM      1  N   UNL     1      -1.998   4.817   8.603  0.00  0.00    -0.275 N 
ATOM      2  C   UNL     1      -2.778   4.367   7.599  0.00  0.00    +0.249 C 
ATOM      3  O   UNL     1      -3.917   4.775   7.486  0.00  0.00    -0.270 OA
ATOM      4  H   UNL     1      -1.089   4.492   8.694  0.00  0.00    +0.156 HD
ENDROOT
BRANCH   1   8
ATOM      5  C   UNL     1      -1.946   7.904  12.557  0.00  0.00    +0.046 C 
ATOM      6  C   UNL     1      -2.565   7.232  11.359  0.00  0.00    -0.015 A 
ATOM      7  C   UNL     1      -1.850   6.321  10.598  0.00  0.00    +0.069 A 
ATOM      8  C   UNL     1      -2.494   5.740   9.501  0.00  0.00    +0.085 A 
ATOM      9  S   UNL     1      -4.066   6.469   9.544  0.00  0.00    -0.066 S 
ATOM     10  C   UNL     1      -3.855   7.499  10.984  0.00  0.00    +0.102 A 
BRANCH   7  11
ATOM     11  C   UNL     1      -0.461   5.978  10.932  0.00  0.00    +0.244 C 
ATOM     12  O   UNL     1       0.456   6.619  10.455  0.00  0.00    -0.270 OA
ATOM     13  N   UNL     1      -0.203   4.953  11.768  0.00  0.00    -0.325 N 
ATOM     14  H   UNL     1      -0.934   4.441  12.149  0.00  0.00    +0.145 HD
ATOM     15  H   UNL     1       0.714   4.726  11.989  0.00  0.00    +0.145 HD
ENDBRANCH   7  11
BRANCH  10  16
ATOM     16  C   UNL     1      -4.817   8.408  11.605  0.00  0.00    +0.346 C 
ATOM     17  O   UNL     1      -4.501   9.046  12.592  0.00  0.00    -0.244 OA
BRANCH  16  18
ATOM     18  O   UNL     1      -6.055   8.539  11.085  0.00  0.00    -0.464 OA
ATOM     19  C   UNL     1      -6.943   9.444  11.744  0.00  0.00    +0.280 C 
ENDBRANCH  16  18
ENDBRANCH  10  16
ENDBRANCH   1   8
BRANCH   2  20
ATOM     20  C   UNL     1      -2.247   3.379   6.637  0.00  0.00    +0.037 A 
ATOM     21  C   UNL     1      -3.052   2.912   5.597  0.00  0.00    +0.015 A 
ATOM     22  C   UNL     1      -2.551   1.989   4.702  0.00  0.00    +0.029 A 
ATOM     23  C   UNL     1      -1.253   1.526   4.835  0.00  0.00    +0.106 A 
ATOM     24  C   UNL     1      -0.452   1.981   5.867  0.00  0.00    +0.029 A 
ATOM     25  C   UNL     1      -0.939   2.909   6.765  0.00  0.00    +0.015 A 
BRANCH  23  26
ATOM     26  S   UNL     1      -0.621   0.347   3.688  0.00  0.00    +0.061 S 
ATOM     27  O   UNL     1      -1.744  -0.332   3.144  0.00  0.00    -0.153 OA
ATOM     28  O   UNL     1       0.435  -0.336   4.349  0.00  0.00    -0.153 OA
BRANCH  26  29
ATOM     29  N   UNL     1       0.069   1.195   2.444  0.00  0.00    -0.176 NA
ATOM     30  C   UNL     1      -0.726   1.581   1.270  0.00  0.00    +0.112 C 
ATOM     31  C   UNL     1      -0.013   1.086   0.008  0.00  0.00    +0.002 C 
ATOM     32  C   UNL     1       1.423   1.616  -0.003  0.00  0.00    +0.009 C 
ATOM     33  C   UNL     1       2.175   1.082   1.218  0.00  0.00    +0.002 C 
ATOM     34  C   UNL     1       1.486   1.577   2.494  0.00  0.00    +0.112 C 
ATOM     35  C   UNL     1       3.619   1.586   1.189  0.00  0.00    +0.009 C 
ATOM     36  C   UNL     1      -0.754   1.593  -1.230  0.00  0.00    +0.009 C 
ENDBRANCH  26  29
ENDBRANCH  23  26
ENDBRANCH   2  20
TORSDOF 7
