REMARK  Name = ZINC49413378
REMARK  6 active torsions:
REMARK  status: ('A' for Active; 'I' for Inactive)
REMARK    1  A    between atoms: C_7  and  C_11
REMARK    2  A    between atoms: C_11  and  C_12
REMARK    3  A    between atoms: C_12  and  N_13
REMARK    4  A    between atoms: C_14  and  C_16
REMARK    5  A    between atoms: C_16  and  N_17
REMARK    6  A    between atoms: C_18  and  C_20
REMARK                            x       y       z     vdW  Elec       q    Type
REMARK                         _______ _______ _______ _____ _____    ______ ____
ROOT
ATOM      1  N   UNL     1      -0.675  -4.736  -1.452  0.00  0.00    -0.314 N 
ATOM      2  C   UNL     1      -1.186  -5.195  -2.612  0.00  0.00    +0.230 C 
ATOM      3  O   UNL     1      -0.891  -4.657  -3.659  0.00  0.00    -0.274 OA
ATOM      4  H   UNL     1      -0.911  -5.166  -0.615  0.00  0.00    +0.149 HD
ENDROOT
BRANCH   1   5
ATOM      5  C   UNL     1       0.236  -3.589  -1.455  0.00  0.00    +0.109 C 
BRANCH   5   6
ATOM      6  C   UNL     1       0.666  -3.275  -0.021  0.00  0.00    +0.056 C 
BRANCH   6  13
ATOM      7  C   UNL     1      -0.017   1.362   0.009  0.00  0.00    +0.001 A 
ATOM      8  C   UNL     1       1.170   2.083   0.002  0.00  0.00    +0.002 A 
ATOM      9  C   UNL     1       2.386   1.436  -0.013  0.00  0.00    +0.026 A 
ATOM     10  C   UNL     1       2.428   0.046  -0.021  0.00  0.00    +0.047 A 
ATOM     11  C   UNL     1       1.223  -0.681  -0.013  0.00  0.00    +0.003 A 
ATOM     12  C   UNL     1       0.002  -0.004   0.002  0.00  0.00    +0.010 A 
ATOM     13  C   UNL     1       1.604  -2.095  -0.025  0.00  0.00    -0.021 A 
ATOM     14  C   UNL     1       2.945  -2.141  -0.038  0.00  0.00    +0.087 A 
ATOM     15  N   UNL     1       3.455  -0.871  -0.036  0.00  0.00    -0.360 N 
ATOM     16  H   UNL     1       4.399  -0.650  -0.044  0.00  0.00    +0.165 HD
ENDBRANCH   6  13
ENDBRANCH   5   6
ENDBRANCH   1   5
BRANCH   2  17
ATOM     17  C   UNL     1      -2.123  -6.375  -2.609  0.00  0.00    +0.200 C 
BRANCH  17  18
ATOM     18  N   UNL     1      -2.535  -6.675  -3.982  0.00  0.00    -0.303 N 
ATOM     19  C   UNL     1      -3.378  -7.698  -4.224  0.00  0.00    +0.246 C 
ATOM     20  O   UNL     1      -3.797  -8.372  -3.302  0.00  0.00    -0.270 OA
ATOM     21  H   UNL     1      -2.201  -6.138  -4.717  0.00  0.00    +0.150 HD
BRANCH  19  22
ATOM     22  C   UNL     1      -3.791  -8.000  -5.601  0.00  0.00    +0.062 A 
ATOM     23  C   UNL     1      -3.404  -7.342  -6.732  0.00  0.00    +0.096 A 
ATOM     24  N   UNL     1      -3.992  -7.907  -7.814  0.00  0.00    -0.360 N 
ATOM     25  H   UNL     1      -3.868  -7.610  -8.729  0.00  0.00    +0.165 HD
ATOM     26  C   UNL     1      -4.793  -8.963  -7.431  0.00  0.00    +0.047 A 
ATOM     27  C   UNL     1      -4.701  -9.076  -6.034  0.00  0.00    +0.012 A 
ATOM     28  C   UNL     1      -5.408 -10.072  -5.366  0.00  0.00    +0.011 A 
ATOM     29  C   UNL     1      -6.195 -10.948  -6.083  0.00  0.00    +0.001 A 
ATOM     30  C   UNL     1      -6.283 -10.840  -7.463  0.00  0.00    +0.002 A 
ATOM     31  C   UNL     1      -5.596  -9.853  -8.136  0.00  0.00    +0.026 A 
ENDBRANCH  19  22
ENDBRANCH  17  18
ENDBRANCH   2  17
TORSDOF 6
