REMARK  Name = ZINC38656138
REMARK  7 active torsions:
REMARK  status: ('A' for Active; 'I' for Inactive)
REMARK    1  A    between atoms: C_1  and  C_2
REMARK    2  A    between atoms: C_6  and  C_8
REMARK    3  A    between atoms: C_8  and  O_10
REMARK    4  A    between atoms: O_10  and  C_11
REMARK    5  A    between atoms: C_18  and  N_29
REMARK    6  A    between atoms: C_19  and  C_27
REMARK    7  A    between atoms: C_20  and  C_22
REMARK                            x       y       z     vdW  Elec       q    Type
REMARK                         _______ _______ _______ _____ _____    ______ ____
ROOT
ATOM      1  C   UNL     1       0.117  -4.926   3.586  0.00  0.00    +0.135 A 
ATOM      2  C   UNL     1       0.071  -4.294   4.821  0.00  0.00    +0.047 A 
ATOM      3  C   UNL     1       0.120  -5.041   5.981  0.00  0.00    +0.012 A 
ATOM      4  C   UNL     1       0.215  -6.420   5.919  0.00  0.00    +0.008 A 
ATOM      5  C   UNL     1       0.261  -7.057   4.689  0.00  0.00    +0.138 A 
ATOM      6  C   UNL     1       0.206  -6.307   3.521  0.00  0.00    +0.093 A 
ATOM      7  O   UNL     1       0.353  -8.407   4.608  0.00  0.00    -0.441 OA
ATOM      8  C   UNL     1       0.783  -9.114   5.666  0.00  0.00    +0.199 C 
ATOM      9  C   UNL     1       0.768  -8.606   6.921  0.00  0.00    +0.098 C 
ATOM     10  C   UNL     1       0.267  -7.217   7.196  0.00  0.00    +0.105 C 
ENDROOT
BRANCH  10  11
ATOM     11  C   UNL     1      -1.115  -7.294   7.793  0.00  0.00    +0.002 A 
ATOM     12  C   UNL     1      -1.550  -6.854   8.999  0.00  0.00    +0.012 A 
ATOM     13  C   UNL     1      -2.877  -7.033   9.339  0.00  0.00    +0.008 A 
ATOM     14  C   UNL     1      -3.705  -7.644   8.457  0.00  0.00    +0.045 A 
ATOM     15  S   UNL     1      -2.606  -7.981   7.091  0.00  0.00    -0.101 S 
ENDBRANCH  10  11
BRANCH   8  16
ATOM     16  N   UNL     1       1.250 -10.390   5.469  0.00  0.00    -0.328 N 
ATOM     17  H   UNL     1       1.266 -10.768   4.576  0.00  0.00    +0.145 HD
ATOM     18  H   UNL     1       1.563 -10.913   6.223  0.00  0.00    +0.145 HD
ENDBRANCH   8  16
BRANCH   9  19
ATOM     19  C   UNL     1       1.240  -9.410   8.009  0.00  0.00    +0.101 C 
ATOM     20  N   UNL     1       1.614 -10.047   8.871  0.00  0.00    -0.191 NA
ENDBRANCH   9  19
BRANCH   1  21
ATOM     21  O   UNL     1       0.068  -4.192   2.443  0.00  0.00    -0.422 OA
BRANCH  21  22
ATOM     22  C   UNL     1       1.188  -3.550   2.057  0.00  0.00    +0.344 C 
ATOM     23  O   UNL     1       2.172  -3.563   2.768  0.00  0.00    -0.245 OA
BRANCH  22  29
ATOM     24  C   UNL     1       3.646  -0.770  -1.279  0.00  0.00    +0.044 C 
ATOM     25  C   UNL     1       2.397  -1.491  -0.841  0.00  0.00    -0.050 A 
ATOM     26  C   UNL     1       1.273  -1.478  -1.649  0.00  0.00    +0.003 A 
ATOM     27  C   UNL     1       0.122  -2.138  -1.256  0.00  0.00    +0.001 A 
ATOM     28  C   UNL     1       0.088  -2.813  -0.053  0.00  0.00    +0.015 A 
ATOM     29  C   UNL     1       1.218  -2.830   0.767  0.00  0.00    +0.060 A 
ATOM     30  C   UNL     1       2.378  -2.167   0.361  0.00  0.00    +0.018 A 
ENDBRANCH  22  29
ENDBRANCH  21  22
ENDBRANCH   1  21
TORSDOF 6
