REMARK  Name = ZINC03972872
REMARK  7 active torsions:
REMARK  status: ('A' for Active; 'I' for Inactive)
REMARK    1  A    between atoms: C_4  and  O_31
REMARK    2  A    between atoms: C_5  and  C_7
REMARK    3  A    between atoms: N_11  and  C_24
REMARK    4  A    between atoms: N_13  and  N_14
REMARK    5  A    between atoms: C_15  and  C_16
REMARK    6  A    between atoms: C_21  and  O_22
REMARK    7  A    between atoms: C_27  and  O_30
REMARK                            x       y       z     vdW  Elec       q    Type
REMARK                         _______ _______ _______ _____ _____    ______ ____
ROOT
ATOM      1  C   UNL     1      -2.034  -3.071   0.187  0.00  0.00    +0.032 C 
ATOM      2  C   UNL     1      -1.043  -2.143   0.188  0.00  0.00    +0.079 C 
ATOM      3  C   UNL     1      -1.128  -0.684  -0.012  0.00  0.00    +0.263 C 
ATOM      4  O   UNL     1      -2.193  -0.130  -0.213  0.00  0.00    -0.269 OA
ATOM      5  N   UNL     1       0.005  -0.004   0.038  0.00  0.00    -0.213 N 
ATOM      6  C   UNL     1       1.202  -0.651   0.263  0.00  0.00    +0.194 C 
ATOM      7  N   UNL     1       2.412  -0.133   0.337  0.00  0.00    -0.126 NA
ATOM      8  S   UNL     1       0.714  -2.360   0.430  0.00  0.00    -0.047 S 
ENDROOT
BRANCH   1  13
ATOM      9  C   UNL     1      -0.190  -6.311  -0.197  0.00  0.00    +0.001 A 
ATOM     10  C   UNL     1      -1.073  -7.198   0.397  0.00  0.00    +0.004 A 
ATOM     11  C   UNL     1      -2.269  -6.748   0.924  0.00  0.00    +0.046 A 
ATOM     12  C   UNL     1      -2.591  -5.402   0.866  0.00  0.00    +0.124 A 
ATOM     13  C   UNL     1      -1.702  -4.499   0.260  0.00  0.00    +0.018 A 
ATOM     14  C   UNL     1      -0.494  -4.970  -0.269  0.00  0.00    +0.011 A 
BRANCH  12  15
ATOM     15  O   UNL     1      -3.763  -4.958   1.389  0.00  0.00    -0.506 OA
ATOM     16  H   UNL     1      -4.499  -4.961   0.762  0.00  0.00    +0.292 HD
ENDBRANCH  12  15
ENDBRANCH   1  13
BRANCH   5  17
ATOM     17  C   UNL     1      -0.010   1.386  -0.143  0.00  0.00    +0.044 A 
ATOM     18  C   UNL     1      -0.327   1.921  -1.385  0.00  0.00    +0.027 A 
ATOM     19  C   UNL     1      -0.347   3.290  -1.562  0.00  0.00    +0.047 A 
ATOM     20  C   UNL     1      -0.040   4.131  -0.503  0.00  0.00    +0.117 A 
ATOM     21  C   UNL     1       0.282   3.598   0.737  0.00  0.00    +0.047 A 
ATOM     22  C   UNL     1       0.297   2.229   0.916  0.00  0.00    +0.027 A 
BRANCH  20  23
ATOM     23  O   UNL     1      -0.055   5.479  -0.679  0.00  0.00    -0.507 OA
ATOM     24  H   UNL     1       0.793   5.848  -0.961  0.00  0.00    +0.292 HD
ENDBRANCH  20  23
ENDBRANCH   5  17
BRANCH   7  25
ATOM     25  N   UNL     1       3.429  -0.897   0.555  0.00  0.00    -0.155 NA
ATOM     26  C   UNL     1       4.628  -0.384   0.630  0.00  0.00    +0.146 C 
BRANCH  26  27
ATOM     27  C   UNL     1       5.786  -1.255   0.878  0.00  0.00    +0.036 A 
ATOM     28  C   UNL     1       7.072  -0.710   0.958  0.00  0.00    +0.013 A 
ATOM     29  C   UNL     1       8.153  -1.533   1.192  0.00  0.00    +0.001 A 
ATOM     30  C   UNL     1       7.972  -2.897   1.347  0.00  0.00    +0.004 A 
ATOM     31  C   UNL     1       6.706  -3.448   1.270  0.00  0.00    +0.046 A 
ATOM     32  C   UNL     1       5.608  -2.637   1.042  0.00  0.00    +0.125 A 
BRANCH  32  33
ATOM     33  O   UNL     1       4.364  -3.177   0.972  0.00  0.00    -0.506 OA
ATOM     34  H   UNL     1       4.103  -3.450   0.082  0.00  0.00    +0.292 HD
ENDBRANCH  32  33
ENDBRANCH  26  27
ENDBRANCH   7  25
TORSDOF 7
