REMARK  Name = ZINC63266648
REMARK  11 active torsions:
REMARK  status: ('A' for Active; 'I' for Inactive)
REMARK    1  A    between atoms: C_1  and  C_2
REMARK    2  A    between atoms: C_2  and  N_3
REMARK    3  A    between atoms: N_3  and  C_4
REMARK    4  A    between atoms: N_3  and  S_6
REMARK    5  A    between atoms: C_4  and  C_5
REMARK    6  A    between atoms: S_6  and  C_9
REMARK    7  A    between atoms: C_13  and  C_15
REMARK    8  A    between atoms: N_17  and  C_18
REMARK    9  A    between atoms: C_18  and  C_20
REMARK   10  A    between atoms: C_18  and  C_30
REMARK   11  A    between atoms: C_20  and  C_21
REMARK                            x       y       z     vdW  Elec       q    Type
REMARK                         _______ _______ _______ _____ _____    ______ ____
ROOT
ATOM      1  C   UNL     1       2.391   3.777  -8.046  0.00  0.00    +0.145 C 
ENDROOT
BRANCH   1   2
ATOM      2  C   UNL     1       2.046   3.063  -9.328  0.00  0.00    +0.154 A 
ATOM      3  N   UNL     1       0.866   2.993  -9.881  0.00  0.00    -0.132 NA
ATOM      4  N   UNL     1       0.935   2.304 -10.964  0.00  0.00    -0.134 NA
ATOM      5  C   UNL     1       2.164   1.901 -11.149  0.00  0.00    +0.134 A 
ATOM      6  N   UNL     1       2.904   2.377 -10.123  0.00  0.00    -0.313 N 
ATOM      7  C   UNL     1       4.311   1.983 -10.256  0.00  0.00    +0.125 C 
ATOM      8  C   UNL     1       4.322   0.825 -11.278  0.00  0.00    +0.029 C 
ATOM      9  C   UNL     1       3.042   1.106 -12.092  0.00  0.00    +0.078 C 
ENDBRANCH   1   2
BRANCH   1  12
ATOM     10  C   UNL     1       1.506   2.347  -6.284  0.00  0.00    +0.245 C 
ATOM     11  O   UNL     1       2.447   1.597  -6.460  0.00  0.00    -0.270 OA
ATOM     12  N   UNL     1       1.387   3.465  -7.027  0.00  0.00    -0.301 N 
ATOM     13  H   UNL     1       0.636   4.063  -6.886  0.00  0.00    +0.150 HD
BRANCH  10  18
ATOM     14  C   UNL     1      -0.337   0.586  -3.526  0.00  0.00    +0.106 A 
ATOM     15  C   UNL     1      -1.407   1.441  -3.328  0.00  0.00    +0.028 A 
ATOM     16  C   UNL     1      -1.532   2.590  -4.088  0.00  0.00    +0.003 A 
ATOM     17  C   UNL     1      -0.589   2.890  -5.050  0.00  0.00    +0.013 A 
ATOM     18  C   UNL     1       0.492   2.032  -5.255  0.00  0.00    +0.039 A 
ATOM     19  C   UNL     1       0.615   0.877  -4.480  0.00  0.00    +0.041 A 
BRANCH  14  20
ATOM     20  S   UNL     1      -0.188  -0.875  -2.551  0.00  0.00    +0.061 S 
ATOM     21  O   UNL     1       0.610  -1.782  -3.300  0.00  0.00    -0.153 OA
ATOM     22  O   UNL     1      -1.496  -1.201  -2.104  0.00  0.00    -0.153 OA
BRANCH  20  23
ATOM     23  N   UNL     1       0.688  -0.476  -1.203  0.00  0.00    -0.177 NA
BRANCH  23  25
ATOM     24  C   UNL     1      -0.019   1.526   0.010  0.00  0.00    +0.022 C 
ATOM     25  C   UNL     1       0.002  -0.004   0.002  0.00  0.00    +0.106 C 
ENDBRANCH  23  25
BRANCH  23  26
ATOM     26  C   UNL     1       2.148  -0.597  -1.216  0.00  0.00    +0.106 C 
ATOM     27  C   UNL     1       2.553  -1.951  -0.632  0.00  0.00    +0.022 C 
ENDBRANCH  23  26
ENDBRANCH  20  23
ENDBRANCH  14  20
ENDBRANCH  10  18
ENDBRANCH   1  12
BRANCH   1  28
ATOM     28  C   UNL     1       2.414   5.287  -8.295  0.00  0.00    +0.063 C 
BRANCH  28  29
ATOM     29  C   UNL     1       2.879   5.994  -7.048  0.00  0.00    -0.039 C 
ATOM     30  C   UNL     1       4.139   6.392  -6.761  0.00  0.00    -0.001 A 
ATOM     31  C   UNL     1       5.406   6.289  -7.495  0.00  0.00    +0.010 A 
ATOM     32  C   UNL     1       6.530   6.792  -6.936  0.00  0.00    +0.001 A 
ATOM     33  C   UNL     1       6.516   7.408  -5.677  0.00  0.00    +0.002 A 
ATOM     34  C   UNL     1       5.391   7.540  -4.942  0.00  0.00    +0.026 A 
ATOM     35  C   UNL     1       4.151   7.047  -5.433  0.00  0.00    +0.043 A 
ATOM     36  N   UNL     1       2.944   7.053  -4.919  0.00  0.00    -0.380 N 
ATOM     37  C   UNL     1       2.029   6.408  -5.867  0.00  0.00    +0.144 C 
ATOM     38  H   UNL     1       2.698   7.426  -4.059  0.00  0.00    +0.160 HD
ENDBRANCH  28  29
ENDBRANCH   1  28
TORSDOF 9
