REMARK  Name = ZINC39919899
REMARK  6 active torsions:
REMARK  status: ('A' for Active; 'I' for Inactive)
REMARK    1  A    between atoms: C_1  and  C_2
REMARK    2  A    between atoms: C_6  and  O_8
REMARK    3  A    between atoms: O_8  and  C_9
REMARK    4  A    between atoms: C_9  and  C_10
REMARK    5  A    between atoms: N_12  and  N_13
REMARK    6  A    between atoms: C_14  and  C_25
REMARK                            x       y       z     vdW  Elec       q    Type
REMARK                         _______ _______ _______ _____ _____    ______ ____
ROOT
ATOM      1  N   UNL     1       0.114  -6.669   5.120  0.00  0.00    -0.188 N 
ATOM      2  C   UNL     1       1.357  -7.230   5.651  0.00  0.00    +0.247 C 
ATOM      3  N   UNL     1       1.066  -8.357   6.545  0.00  0.00    -0.318 N 
ATOM      4  C   UNL     1       0.025  -8.235   7.459  0.00  0.00    +0.041 A 
ATOM      5  C   UNL     1       0.031  -8.913   8.666  0.00  0.00    +0.024 A 
ATOM      6  C   UNL     1      -1.031  -8.769   9.537  0.00  0.00    +0.002 A 
ATOM      7  C   UNL     1      -2.102  -7.952   9.213  0.00  0.00    +0.001 A 
ATOM      8  C   UNL     1      -2.123  -7.265   8.016  0.00  0.00    +0.015 A 
ATOM      9  C   UNL     1      -1.055  -7.397   7.131  0.00  0.00    +0.059 A 
ATOM     10  C   UNL     1      -1.017  -6.661   5.854  0.00  0.00    +0.267 C 
ATOM     11  O   UNL     1      -1.997  -6.057   5.463  0.00  0.00    -0.268 OA
ATOM     12  H   UNL     1       1.590  -9.172   6.500  0.00  0.00    +0.148 HD
ENDROOT
BRANCH   2  13
ATOM     13  C   UNL     1       2.097  -6.166   6.420  0.00  0.00    +0.146 A 
ATOM     14  C   UNL     1       2.914  -6.377   7.467  0.00  0.00    +0.049 A 
ATOM     15  C   UNL     1       3.389  -5.110   7.877  0.00  0.00    +0.057 A 
ATOM     16  C   UNL     1       2.834  -4.200   7.055  0.00  0.00    +0.170 A 
ATOM     17  O   UNL     1       2.057  -4.846   6.171  0.00  0.00    -0.449 OA
ATOM     18 BR   UNL     1       3.108  -2.331   7.128  0.00  0.00    -0.008 Br
ENDBRANCH   2  13
BRANCH   1  21
ATOM     19  C   UNL     1       0.083  -4.787   3.662  0.00  0.00    +0.267 C 
ATOM     20  O   UNL     1       0.077  -4.055   4.629  0.00  0.00    -0.271 OA
ATOM     21  N   UNL     1       0.101  -6.125   3.830  0.00  0.00    -0.227 N 
ATOM     22  H   UNL     1       0.105  -6.710   3.056  0.00  0.00    +0.173 HD
BRANCH  19  23
ATOM     23  C   UNL     1       0.069  -4.202   2.274  0.00  0.00    +0.326 C 
BRANCH  23  24
ATOM     24  O   UNL     1       0.050  -2.776   2.358  0.00  0.00    -0.483 OA
BRANCH  24  30
ATOM     25  C   UNL     1      -0.018   1.503   0.010  0.00  0.00    +0.044 C 
ATOM     26  C   UNL     1       0.002  -0.004   0.002  0.00  0.00    -0.047 A 
ATOM     27  C   UNL     1       0.006  -0.688  -1.200  0.00  0.00    +0.003 A 
ATOM     28  C   UNL     1       0.024  -2.071  -1.211  0.00  0.00    +0.004 A 
ATOM     29  C   UNL     1       0.039  -2.772  -0.020  0.00  0.00    +0.045 A 
ATOM     30  C   UNL     1       0.035  -2.088   1.186  0.00  0.00    +0.121 A 
ATOM     31  C   UNL     1       0.023  -0.700   1.195  0.00  0.00    +0.049 A 
ENDBRANCH  24  30
ENDBRANCH  23  24
ENDBRANCH  19  23
ENDBRANCH   1  21
TORSDOF 5
