REMARK  Name = ZINC12446734
REMARK  7 active torsions:
REMARK  status: ('A' for Active; 'I' for Inactive)
REMARK    1  A    between atoms: C_1  and  C_2
REMARK    2  A    between atoms: N_8  and  C_9
REMARK    3  A    between atoms: C_9  and  C_10
REMARK    4  A    between atoms: C_26  and  C_30
REMARK    5  A    between atoms: C_27  and  N_29
REMARK    6  A    between atoms: C_30  and  O_32
REMARK    7  A    between atoms: O_32  and  C_33
REMARK                            x       y       z     vdW  Elec       q    Type
REMARK                         _______ _______ _______ _____ _____    ______ ____
ROOT
ATOM      1  C   UNL     1      -2.279   1.028  -0.268  0.00  0.00    +0.064 C 
ATOM      2  C   UNL     1      -1.036   1.867  -0.120  0.00  0.00    +0.023 A 
ATOM      3  C   UNL     1       0.167   1.262  -0.015  0.00  0.00    +0.068 A 
ATOM      4  C   UNL     1       1.334   2.042   0.117  0.00  0.00    +0.142 A 
ATOM      5  C   UNL     1       1.220   3.416   0.141  0.00  0.00    +0.083 A 
ATOM      6  C   UNL     1      -0.049   3.999   0.035  0.00  0.00    +0.260 A 
ATOM      7  O   UNL     1      -0.166   5.214   0.057  0.00  0.00    -0.267 OA
ATOM      8  N   UNL     1      -1.141   3.221  -0.089  0.00  0.00    -0.306 N 
ATOM      9  C   UNL     1       2.441   4.281   0.275  0.00  0.00    +0.143 C 
ATOM     10  C   UNL     1       2.512   4.903   1.635  0.00  0.00    -0.002 A 
ATOM     11  C   UNL     1       2.608   4.344   2.891  0.00  0.00    +0.007 A 
ATOM     12  C   UNL     1       2.657   5.221   3.970  0.00  0.00    +0.000 A 
ATOM     13  C   UNL     1       2.612   6.588   3.787  0.00  0.00    +0.002 A 
ATOM     14  C   UNL     1       2.515   7.157   2.527  0.00  0.00    +0.023 A 
ATOM     15  C   UNL     1       2.464   6.288   1.436  0.00  0.00    +0.038 A 
ATOM     16  N   UNL     1       2.367   6.578   0.087  0.00  0.00    -0.284 N 
ATOM     17  C   UNL     1       2.345   5.461  -0.670  0.00  0.00    +0.237 C 
ATOM     18  O   UNL     1       2.264   5.411  -1.879  0.00  0.00    -0.274 OA
ATOM     19  C   UNL     1       3.684   3.491  -0.018  0.00  0.00    +0.117 C 
ATOM     20  C   UNL     1       3.662   2.133  -0.029  0.00  0.00    +0.196 C 
ATOM     21  O   UNL     1       2.538   1.440   0.220  0.00  0.00    -0.441 OA
ATOM     22  H   UNL     1       2.320   7.477  -0.273  0.00  0.00    +0.155 HD
ENDROOT
BRANCH  20  23
ATOM     23  N   UNL     1       4.817   1.451  -0.302  0.00  0.00    -0.329 N 
ATOM     24  H   UNL     1       5.654   1.933  -0.395  0.00  0.00    +0.145 HD
ATOM     25  H   UNL     1       4.799   0.486  -0.402  0.00  0.00    +0.145 HD
ENDBRANCH  20  23
BRANCH  19  26
ATOM     26  C   UNL     1       4.885   4.165  -0.282  0.00  0.00    +0.341 C 
ATOM     27  O   UNL     1       5.540   4.625   0.636  0.00  0.00    -0.245 OA
BRANCH  26  28
ATOM     28  O   UNL     1       5.315   4.304  -1.555  0.00  0.00    -0.465 OA
ATOM     29  C   UNL     1       6.547   5.002  -1.751  0.00  0.00    +0.280 C 
ENDBRANCH  26  28
ENDBRANCH  19  26
BRANCH   8  30
ATOM     30  C   UNL     1      -2.462   3.845  -0.200  0.00  0.00    +0.180 C 
BRANCH  30  31
ATOM     31  C   UNL     1      -3.000   4.129   1.179  0.00  0.00    +0.061 A 
ATOM     32  C   UNL     1      -2.818   5.380   1.739  0.00  0.00    +0.025 A 
ATOM     33  C   UNL     1      -3.322   5.633   3.005  0.00  0.00    +0.003 A 
ATOM     34  C   UNL     1      -3.983   4.610   3.669  0.00  0.00    +0.020 A 
ATOM     35  C   UNL     1      -4.121   3.383   3.048  0.00  0.00    +0.111 A 
ATOM     36  N   UNL     1      -3.633   3.180   1.840  0.00  0.00    -0.258 NA
ENDBRANCH  30  31
ENDBRANCH   8  30
TORSDOF 5
