REMARK  Name = ZINC25530533
REMARK  9 active torsions:
REMARK  status: ('A' for Active; 'I' for Inactive)
REMARK    1  A    between atoms: C_1  and  C_2
REMARK    2  A    between atoms: C_2  and  C_4
REMARK    3  A    between atoms: C_2  and  N_18
REMARK    4  A    between atoms: N_6  and  C_7
REMARK    5  A    between atoms: C_8  and  C_15
REMARK    6  A    between atoms: C_24  and  C_26
REMARK    7  A    between atoms: C_26  and  C_27
REMARK    8  A    between atoms: C_27  and  C_28
REMARK    9  A    between atoms: C_27  and  C_29
REMARK                            x       y       z     vdW  Elec       q    Type
REMARK                         _______ _______ _______ _____ _____    ______ ____
ROOT
ATOM      1  C   UNL     1       0.163   1.494  -0.027  0.00  0.00    +0.235 C 
ATOM      2  O   UNL     1       0.713   2.063   0.892  0.00  0.00    -0.274 OA
ATOM      3  N   UNL     1      -0.303   2.202  -1.075  0.00  0.00    -0.278 N 
ATOM      4  H   UNL     1      -0.743   1.747  -1.810  0.00  0.00    +0.155 HD
ENDROOT
BRANCH   3   5
ATOM      5  C   UNL     1      -0.155   3.580  -1.102  0.00  0.00    +0.084 A 
ATOM      6  C   UNL     1      -0.572   4.461  -2.082  0.00  0.00    +0.068 A 
ATOM      7  C   UNL     1      -0.293   5.881  -1.870  0.00  0.00    -0.023 A 
ATOM      8  C   UNL     1       0.350   6.147  -0.719  0.00  0.00    -0.004 A 
ATOM      9  S   UNL     1       0.565   4.563   0.051  0.00  0.00    -0.077 S 
ATOM     10  C   UNL     1       0.616   7.619  -0.553  0.00  0.00    +0.043 C 
ATOM     11  C   UNL     1       0.429   8.211  -1.967  0.00  0.00    +0.010 C 
ATOM     12  C   UNL     1      -0.536   7.194  -2.610  0.00  0.00    +0.037 C 
BRANCH   6  13
ATOM     13  C   UNL     1      -1.266   3.991  -3.285  0.00  0.00    +0.244 C 
ATOM     14  O   UNL     1      -2.480   3.905  -3.294  0.00  0.00    -0.270 OA
ATOM     15  N   UNL     1      -0.559   3.655  -4.383  0.00  0.00    -0.325 N 
ATOM     16  H   UNL     1       0.409   3.724  -4.376  0.00  0.00    +0.145 HD
ATOM     17  H   UNL     1      -1.017   3.344  -5.179  0.00  0.00    +0.145 HD
ENDBRANCH   6  13
ENDBRANCH   3   5
BRANCH   1  19
ATOM     18  C   UNL     1      -1.454  -0.354   0.317  0.00  0.00    +0.034 C 
ATOM     19  C   UNL     1       0.002  -0.004   0.002  0.00  0.00    +0.140 C 
BRANCH  19  20
ATOM     20  N   UNL     1       0.877  -0.571   1.037  0.00  0.00    -0.289 NA
ATOM     21  C   UNL     1       1.052  -2.017   0.845  0.00  0.00    +0.104 C 
ATOM     22  C   UNL     1       2.108  -2.535   1.827  0.00  0.00    +0.123 C 
ATOM     23  N   UNL     1       1.720  -2.131   3.187  0.00  0.00    -0.299 N 
ATOM     24  C   UNL     1       1.395  -0.716   3.426  0.00  0.00    +0.123 C 
ATOM     25  C   UNL     1       0.367  -0.269   2.381  0.00  0.00    +0.104 C 
ATOM     26  C   UNL     1       1.663  -3.032   4.187  0.00  0.00    +0.216 C 
ATOM     27  O   UNL     1       1.935  -4.194   3.972  0.00  0.00    -0.276 OA
BRANCH  26  28
ATOM     28  C   UNL     1       1.263  -2.596   5.573  0.00  0.00    +0.099 C 
BRANCH  28  29
ATOM     29  C   UNL     1       1.280  -3.803   6.513  0.00  0.00    -0.008 C 
ATOM     30  C   UNL     1       0.996  -3.340   7.943  0.00  0.00    +0.008 C 
ATOM     31  C   UNL     1       0.206  -4.803   6.077  0.00  0.00    +0.008 C 
ENDBRANCH  28  29
ENDBRANCH  26  28
ENDBRANCH  19  20
ENDBRANCH   1  19
TORSDOF 6
