REMARK  Name = ZINC40779785
REMARK  4 active torsions:
REMARK  status: ('A' for Active; 'I' for Inactive)
REMARK    1  A    between atoms: C_6  and  C_7
REMARK    2  A    between atoms: C_7  and  N_8
REMARK    3  A    between atoms: C_10  and  N_23
REMARK    4  A    between atoms: C_11  and  N_15
REMARK                            x       y       z     vdW  Elec       q    Type
REMARK                         _______ _______ _______ _____ _____    ______ ____
ROOT
ATOM      1  N   UNL     1      -1.716  -1.032  -1.369  0.00  0.00    -0.323 N 
ATOM      2  C   UNL     1      -2.896  -1.725  -1.614  0.00  0.00    +0.145 A 
ATOM      3  C   UNL     1      -3.318  -1.965  -2.924  0.00  0.00    +0.105 A 
ATOM      4  C   UNL     1      -4.509  -2.666  -3.114  0.00  0.00    +0.150 A 
ATOM      5  N   UNL     1      -5.193  -3.077  -2.049  0.00  0.00    -0.219 NA
ATOM      6  C   UNL     1      -4.759  -2.830  -0.829  0.00  0.00    +0.225 A 
ATOM      7  N   UNL     1      -3.637  -2.176  -0.606  0.00  0.00    -0.219 NA
ATOM      8  H   UNL     1      -1.182  -0.707  -2.110  0.00  0.00    +0.148 HD
ENDROOT
BRANCH   4   9
ATOM      9  N   UNL     1      -4.976  -2.931  -4.398  0.00  0.00    -0.283 N 
ATOM     10  C   UNL     1      -6.105  -3.724  -4.578  0.00  0.00    +0.124 A 
ATOM     11  C   UNL     1      -6.503  -4.074  -5.864  0.00  0.00    +0.045 A 
ATOM     12  C   UNL     1      -7.627  -4.862  -6.029  0.00  0.00    +0.020 A 
ATOM     13  C   UNL     1      -8.319  -5.276  -4.897  0.00  0.00    +0.036 A 
ATOM     14  C   UNL     1      -7.867  -4.891  -3.650  0.00  0.00    +0.128 A 
ATOM     15  N   UNL     1      -6.788  -4.142  -3.524  0.00  0.00    -0.239 NA
ATOM     16 BR   UNL     1      -9.863  -6.355  -5.062  0.00  0.00    -0.049 Br
ATOM     17  H   UNL     1      -4.513  -2.563  -5.167  0.00  0.00    +0.155 HD
ENDBRANCH   4   9
BRANCH   3  18
ATOM     18  N   UNL     1      -2.564  -1.512  -4.019  0.00  0.00    -0.353 N 
ATOM     19  H   UNL     1      -1.738  -1.025  -3.871  0.00  0.00    +0.143 HD
ATOM     20  H   UNL     1      -2.870  -1.685  -4.923  0.00  0.00    +0.143 HD
ENDBRANCH   3  18
BRANCH   1  21
ATOM     21  C   UNL     1      -1.281  -0.793   0.009  0.00  0.00    +0.138 C 
BRANCH  21  27
ATOM     22  C   UNL     1       0.003   1.356   0.010  0.00  0.00    +0.006 A 
ATOM     23  C   UNL     1       1.193   2.059   0.002  0.00  0.00    +0.020 A 
ATOM     24  C   UNL     1       2.398   1.379  -0.015  0.00  0.00    +0.041 A 
ATOM     25  C   UNL     1       2.411  -0.004  -0.024  0.00  0.00    +0.020 A 
ATOM     26  C   UNL     1       1.220  -0.706  -0.016  0.00  0.00    +0.006 A 
ATOM     27  C   UNL     1       0.017  -0.027   0.001  0.00  0.00    -0.030 A 
ATOM     28 CL   UNL     1       3.893   2.262  -0.026  0.00  0.00    -0.084 Cl
ENDBRANCH  21  27
ENDBRANCH   1  21
TORSDOF 4
