REMARK  Name = ZINC14281198
REMARK  9 active torsions:
REMARK  status: ('A' for Active; 'I' for Inactive)
REMARK    1  A    between atoms: C_1  and  C_2
REMARK    2  A    between atoms: C_2  and  C_4
REMARK    3  A    between atoms: C_2  and  N_12
REMARK    4  A    between atoms: C_9  and  O_10
REMARK    5  A    between atoms: O_10  and  C_11
REMARK    6  A    between atoms: C_13  and  C_15
REMARK    7  A    between atoms: C_15  and  N_16
REMARK    8  A    between atoms: C_19  and  C_24
REMARK    9  A    between atoms: C_24  and  C_25
REMARK                            x       y       z     vdW  Elec       q    Type
REMARK                         _______ _______ _______ _____ _____    ______ ____
ROOT
ATOM      1  N   UNL     1      -3.643   6.413   5.795  0.00  0.00    -0.216 N 
ATOM      2  C   UNL     1      -3.119   7.590   5.397  0.00  0.00    +0.244 C 
ATOM      3  O   UNL     1      -1.951   7.836   5.184  0.00  0.00    -0.273 OA
ATOM      4  C   UNL     1      -4.293   8.540   5.271  0.00  0.00    +0.165 C 
ATOM      5  N   UNL     1      -5.450   7.713   5.655  0.00  0.00    -0.287 N 
ATOM      6  C   UNL     1      -4.970   6.490   5.943  0.00  0.00    +0.310 C 
ATOM      7  O   UNL     1      -5.665   5.558   6.298  0.00  0.00    -0.252 OA
ATOM      8  H   UNL     1      -6.378   7.995   5.693  0.00  0.00    +0.151 HD
ENDROOT
BRANCH   1   9
ATOM      9  C   UNL     1      -2.856   5.203   6.041  0.00  0.00    +0.213 C 
BRANCH   9  11
ATOM     10  N   UNL     1      -2.076   3.238   4.756  0.00  0.00    -0.307 N 
ATOM     11  C   UNL     1      -2.758   4.400   4.769  0.00  0.00    +0.231 C 
ATOM     12  O   UNL     1      -3.294   4.800   3.757  0.00  0.00    -0.274 OA
ATOM     13  H   UNL     1      -1.648   2.918   5.566  0.00  0.00    +0.149 HD
BRANCH  10  15
ATOM     14  C   UNL     1      -3.217   1.564   3.385  0.00  0.00    +0.033 C 
ATOM     15  C   UNL     1      -1.982   2.457   3.520  0.00  0.00    +0.104 C 
BRANCH  15  16
ATOM     16  C   UNL     1      -0.744   1.599   3.561  0.00  0.00    +0.014 A 
ATOM     17  C   UNL     1      -0.203   1.222   4.776  0.00  0.00    +0.009 A 
ATOM     18  C   UNL     1       0.936   0.440   4.814  0.00  0.00    +0.001 A 
ATOM     19  C   UNL     1       1.534   0.028   3.637  0.00  0.00    +0.004 A 
ATOM     20  C   UNL     1       0.994   0.397   2.421  0.00  0.00    +0.046 A 
ATOM     21  C   UNL     1      -0.149   1.182   2.380  0.00  0.00    +0.125 A 
BRANCH  21  22
ATOM     22  O   UNL     1      -0.682   1.547   1.184  0.00  0.00    -0.495 OA
ATOM     23  C   UNL     1      -0.013   1.086   0.008  0.00  0.00    +0.277 C 
ENDBRANCH  21  22
ENDBRANCH  15  16
ENDBRANCH  10  15
ENDBRANCH   9  11
ENDBRANCH   1   9
BRANCH   4  24
ATOM     24  C   UNL     1      -4.132   9.719   6.232  0.00  0.00    +0.069 C 
BRANCH  24  25
ATOM     25  C   UNL     1      -5.303  10.656   6.080  0.00  0.00    -0.020 A 
ATOM     26  C   UNL     1      -5.353  11.752   5.307  0.00  0.00    +0.087 A 
ATOM     27  N   UNL     1      -6.579  12.349   5.424  0.00  0.00    -0.360 N 
ATOM     28  H   UNL     1      -6.851  13.157   4.960  0.00  0.00    +0.165 HD
ATOM     29  C   UNL     1      -7.367  11.634   6.297  0.00  0.00    +0.047 A 
ATOM     30  C   UNL     1      -6.604  10.538   6.742  0.00  0.00    +0.003 A 
ATOM     31  C   UNL     1      -7.152   9.632   7.652  0.00  0.00    +0.010 A 
ATOM     32  C   UNL     1      -8.431   9.809   8.098  0.00  0.00    +0.001 A 
ATOM     33  C   UNL     1      -9.190  10.885   7.658  0.00  0.00    +0.002 A 
ATOM     34  C   UNL     1      -8.667  11.794   6.764  0.00  0.00    +0.026 A 
ENDBRANCH  24  25
ENDBRANCH   4  24
TORSDOF 7
