REMARK  Name = ZINC09285352
REMARK  8 active torsions:
REMARK  status: ('A' for Active; 'I' for Inactive)
REMARK    1  A    between atoms: C_1  and  C_2
REMARK    2  A    between atoms: C_2  and  O_3
REMARK    3  A    between atoms: O_3  and  C_4
REMARK    4  A    between atoms: C_4  and  C_6
REMARK    5  A    between atoms: C_6  and  C_7
REMARK    6  A    between atoms: C_7  and  N_8
REMARK    7  A    between atoms: N_17  and  C_18
REMARK    8  A    between atoms: C_18  and  C_20
REMARK                            x       y       z     vdW  Elec       q    Type
REMARK                         _______ _______ _______ _____ _____    ______ ____
ROOT
ATOM      1  N   UNL     1       2.470   1.536  -0.028  0.00  0.00    -0.318 N 
ATOM      2  C   UNL     1       1.184   2.047  -0.038  0.00  0.00    +0.093 A 
ATOM      3  C   UNL     1      -0.025   1.327  -0.043  0.00  0.00    +0.148 A 
ATOM      4  C   UNL     1      -1.236   1.981  -0.058  0.00  0.00    +0.040 A 
ATOM      5  C   UNL     1      -1.305   3.364  -0.057  0.00  0.00    +0.004 A 
ATOM      6  C   UNL     1      -0.132   4.097  -0.052  0.00  0.00    +0.017 A 
ATOM      7  C   UNL     1       1.079   3.445  -0.043  0.00  0.00    +0.042 A 
ATOM      8  S   UNL     1       2.771   3.985  -0.033  0.00  0.00    -0.052 S 
ATOM      9  C   UNL     1       3.543   2.375  -0.023  0.00  0.00    +0.167 A 
ATOM     10  N   UNL     1       4.836   2.073  -0.013  0.00  0.00    -0.152 NA
ATOM     11  F   UNL     1       0.003  -0.024  -0.039  0.00  0.00    -0.203 F 
ENDROOT
BRANCH  10  12
ATOM     12  C   UNL     1       5.752   3.049  -0.009  0.00  0.00    +0.276 C 
ATOM     13  O   UNL     1       5.399   4.216  -0.016  0.00  0.00    -0.268 OA
BRANCH  12  14
ATOM     14  C   UNL     1       7.189   2.713   0.002  0.00  0.00    +0.124 A 
ATOM     15  C   UNL     1       7.607   1.390   0.009  0.00  0.00    +0.032 A 
ATOM     16  C   UNL     1       8.989   1.117   0.020  0.00  0.00    +0.026 A 
ATOM     17  C   UNL     1       9.475  -0.266   0.027  0.00  0.00    -0.007 A 
ATOM     18  C   UNL     1       8.595  -1.350   0.026  0.00  0.00    +0.009 A 
ATOM     19  C   UNL     1       9.090  -2.622   0.034  0.00  0.00    +0.001 A 
ATOM     20  C   UNL     1      10.462  -2.853   0.043  0.00  0.00    +0.001 A 
ATOM     21  C   UNL     1      11.347  -1.816   0.045  0.00  0.00    +0.008 A 
ATOM     22  C   UNL     1      10.870  -0.496   0.038  0.00  0.00    -0.017 A 
ATOM     23  C   UNL     1      11.754   0.601   0.040  0.00  0.00    +0.012 A 
ATOM     24  C   UNL     1      11.290   1.875   0.033  0.00  0.00    +0.047 A 
ATOM     25  C   UNL     1       9.920   2.163   0.023  0.00  0.00    +0.140 A 
ATOM     26  O   UNL     1       9.509   3.449   0.016  0.00  0.00    -0.422 OA
ATOM     27  C   UNL     1       8.204   3.769  -0.001  0.00  0.00    +0.350 A 
ATOM     28  O   UNL     1       7.865   4.938  -0.012  0.00  0.00    -0.244 OA
ENDBRANCH  12  14
ENDBRANCH  10  12
BRANCH   1  29
ATOM     29  C   UNL     1       2.678   0.086  -0.021  0.00  0.00    +0.135 C 
BRANCH  29  30
ATOM     30  C   UNL     1       3.910  -0.256  -0.862  0.00  0.00    +0.142 C 
BRANCH  30  31
ATOM     31  C   UNL     1       4.043  -1.754  -0.972  0.00  0.00    +0.309 C 
ATOM     32  O   UNL     1       3.235  -2.473  -0.434  0.00  0.00    -0.251 OA
BRANCH  31  33
ATOM     33  O   UNL     1       5.059  -2.288  -1.669  0.00  0.00    -0.465 OA
BRANCH  33  35
ATOM     34  C   UNL     1       6.339  -4.156  -2.563  0.00  0.00    +0.048 C 
ATOM     35  C   UNL     1       5.124  -3.737  -1.733  0.00  0.00    +0.229 C 
ENDBRANCH  33  35
ENDBRANCH  31  33
ENDBRANCH  30  31
ENDBRANCH  29  30
ENDBRANCH   1  29
TORSDOF 7
