REMARK  Name = ZINC23057004
REMARK  6 active torsions:
REMARK  status: ('A' for Active; 'I' for Inactive)
REMARK    1  A    between atoms: C_1  and  C_2
REMARK    2  A    between atoms: C_9  and  C_11
REMARK    3  A    between atoms: N_13  and  C_14
REMARK    4  A    between atoms: N_13  and  C_24
REMARK    5  A    between atoms: C_14  and  C_15
REMARK    6  A    between atoms: C_18  and  C_21
REMARK                            x       y       z     vdW  Elec       q    Type
REMARK                         _______ _______ _______ _____ _____    ______ ____
ROOT
ATOM      1  C   UNL     1      -5.037   5.048   2.055  0.00  0.00    +0.254 C 
ATOM      2  O   UNL     1      -5.284   5.042   3.246  0.00  0.00    -0.269 OA
ATOM      3  N   UNL     1      -5.411   4.007   1.284  0.00  0.00    -0.290 N 
ENDROOT
BRANCH   1  11
ATOM      4  C   UNL     1      -0.836  11.305   1.298  0.00  0.00    +0.008 C 
ATOM      5  C   UNL     1      -1.445   9.996   0.792  0.00  0.00    -0.009 C 
ATOM      6  C   UNL     1      -2.249  10.269  -0.482  0.00  0.00    +0.009 C 
ATOM      7  C   UNL     1      -2.624   8.926  -1.126  0.00  0.00    +0.043 C 
ATOM      8  C   UNL     1      -3.183   8.032  -0.062  0.00  0.00    -0.006 A 
ATOM      9  C   UNL     1      -3.092   8.205   1.290  0.00  0.00    -0.036 A 
ATOM     10  C   UNL     1      -3.698   7.244   2.083  0.00  0.00    +0.024 A 
ATOM     11  C   UNL     1      -4.332   6.186   1.458  0.00  0.00    +0.075 A 
ATOM     12  S   UNL     1      -4.075   6.573  -0.265  0.00  0.00    -0.088 S 
ATOM     13  C   UNL     1      -2.358   9.411   1.869  0.00  0.00    +0.039 C 
ENDBRANCH   1  11
BRANCH   3  14
ATOM     14  C   UNL     1      -6.275   2.961   1.835  0.00  0.00    +0.077 C 
ATOM     15  C   UNL     1      -7.017   3.270   3.137  0.00  0.00    +0.024 C 
ATOM     16  C   UNL     1      -5.835   2.296   3.141  0.00  0.00    +0.024 C 
ENDBRANCH   3  14
BRANCH   3  17
ATOM     17  C   UNL     1      -4.953   3.923  -0.105  0.00  0.00    +0.143 C 
BRANCH  17  18
ATOM     18  C   UNL     1      -3.576   3.311  -0.144  0.00  0.00    -0.030 A 
ATOM     19  C   UNL     1      -3.436   1.937  -0.231  0.00  0.00    +0.006 A 
ATOM     20  C   UNL     1      -2.178   1.370  -0.267  0.00  0.00    +0.013 A 
ATOM     21  C   UNL     1      -1.047   2.186  -0.216  0.00  0.00    +0.037 A 
ATOM     22  C   UNL     1      -1.196   3.570  -0.123  0.00  0.00    +0.013 A 
ATOM     23  C   UNL     1      -2.459   4.125  -0.094  0.00  0.00    +0.006 A 
BRANCH  21  24
ATOM     24  C   UNL     1       0.304   1.585  -0.255  0.00  0.00    +0.242 C 
ATOM     25  O   UNL     1       0.430   0.379  -0.331  0.00  0.00    -0.270 OA
ATOM     26  N   UNL     1       1.394   2.376  -0.211  0.00  0.00    -0.325 N 
ATOM     27  H   UNL     1       2.399   1.929  -0.240  0.00  0.00    +0.145 HD
ATOM     28  H   UNL     1       1.280   3.468  -0.147  0.00  0.00    +0.145 HD
ENDBRANCH  21  24
ENDBRANCH  17  18
ENDBRANCH   3  17
TORSDOF 5
