REMARK  Name = ZINC32889164
REMARK  10 active torsions:
REMARK  status: ('A' for Active; 'I' for Inactive)
REMARK    1  A    between atoms: C_1  and  C_2
REMARK    2  A    between atoms: C_2  and  C_4
REMARK    3  A    between atoms: C_2  and  N_13
REMARK    4  A    between atoms: C_14  and  C_16
REMARK    5  A    between atoms: C_16  and  C_18
REMARK    6  A    between atoms: C_16  and  N_19
REMARK    7  A    between atoms: N_19  and  S_20
REMARK    8  A    between atoms: S_20  and  C_23
REMARK    9  A    between atoms: C_26  and  N_29
REMARK   10  A    between atoms: C_30  and  C_32
REMARK                            x       y       z     vdW  Elec       q    Type
REMARK                         _______ _______ _______ _____ _____    ______ ____
ROOT
ATOM      1  C   UNL     1       2.691  -2.603  -2.306  0.00  0.00    +0.159 C 
ATOM      2  C   UNL     1       3.645  -3.794  -2.196  0.00  0.00    +0.035 C 
ENDROOT
BRANCH   1   4
ATOM      3  N   UNL     1       3.417  -2.004  -4.593  0.00  0.00    -0.307 N 
ATOM      4  C   UNL     1       2.407  -2.318  -3.758  0.00  0.00    +0.232 C 
ATOM      5  O   UNL     1       1.270  -2.372  -4.176  0.00  0.00    -0.274 OA
ATOM      6  H   UNL     1       4.449  -1.955  -4.215  0.00  0.00    +0.149 HD
BRANCH   3   8
ATOM      7  C   UNL     1       2.744  -0.259  -6.169  0.00  0.00    +0.033 C 
ATOM      8  C   UNL     1       3.141  -1.728  -6.005  0.00  0.00    +0.100 C 
BRANCH   8   9
ATOM      9  C   UNL     1       4.375  -2.008  -6.823  0.00  0.00    -0.024 A 
ATOM     10  C   UNL     1       5.620  -1.647  -6.340  0.00  0.00    +0.009 A 
ATOM     11  C   UNL     1       6.755  -1.907  -7.084  0.00  0.00    +0.050 A 
ATOM     12  C   UNL     1       6.648  -2.521  -8.321  0.00  0.00    +0.166 A 
ATOM     13  C   UNL     1       5.394  -2.880  -8.810  0.00  0.00    +0.167 A 
ATOM     14  C   UNL     1       4.261  -2.621  -8.057  0.00  0.00    +0.055 A 
ATOM     15  O   UNL     1       5.554  -3.461 -10.035  0.00  0.00    -0.453 OA
ATOM     16  C   UNL     1       6.945  -3.824 -10.110  0.00  0.00    +0.466 C 
ATOM     17  O   UNL     1       7.593  -2.877  -9.240  0.00  0.00    -0.453 OA
ENDBRANCH   8   9
ENDBRANCH   3   8
ENDBRANCH   1   4
BRANCH   1  18
ATOM     18  N   UNL     1       1.438  -2.916  -1.615  0.00  0.00    -0.178 NA
ATOM     19  H   UNL     1       0.583  -3.317  -2.181  0.00  0.00    +0.149 HD
BRANCH  18  20
ATOM     20  S   UNL     1       1.217  -2.442  -0.044  0.00  0.00    +0.059 S 
ATOM     21  O   UNL     1       2.379  -2.844   0.668  0.00  0.00    -0.153 OA
ATOM     22  O   UNL     1      -0.088  -2.864   0.328  0.00  0.00    -0.153 OA
BRANCH  20  23
ATOM     23  C   UNL     1       1.201  -0.681  -0.028  0.00  0.00    +0.105 A 
ATOM     24  C   UNL     1       0.007  -0.000  -0.186  0.00  0.00    +0.030 A 
ATOM     25  C   UNL     1      -0.009   1.381  -0.174  0.00  0.00    +0.025 A 
ATOM     26  C   UNL     1       1.175   2.086  -0.003  0.00  0.00    +0.033 A 
ATOM     27  C   UNL     1       2.372   1.400   0.154  0.00  0.00    +0.025 A 
ATOM     28  C   UNL     1       2.381   0.019   0.141  0.00  0.00    +0.030 A 
BRANCH  26  29
ATOM     29  N   UNL     1       1.162   3.485   0.009  0.00  0.00    -0.286 N 
ATOM     30  C   UNL     1       0.101   4.145   0.516  0.00  0.00    +0.214 C 
ATOM     31  O   UNL     1      -0.799   3.529   1.047  0.00  0.00    -0.276 OA
ATOM     32  C   UNL     1       0.033   5.647   0.422  0.00  0.00    +0.109 C 
ATOM     33  H   UNL     1       2.017   4.047  -0.395  0.00  0.00    +0.155 HD
ENDBRANCH  26  29
ENDBRANCH  20  23
ENDBRANCH  18  20
ENDBRANCH   1  18
TORSDOF 7
