REMARK  Name = ZINC41585531
REMARK  8 active torsions:
REMARK  status: ('A' for Active; 'I' for Inactive)
REMARK    1  A    between atoms: C_1  and  C_2
REMARK    2  A    between atoms: C_4  and  O_35
REMARK    3  A    between atoms: C_5  and  C_21
REMARK    4  A    between atoms: C_11  and  C_12
REMARK    5  A    between atoms: C_17  and  O_18
REMARK    6  A    between atoms: O_18  and  C_19
REMARK    7  A    between atoms: C_21  and  N_22
REMARK    8  A    between atoms: N_25  and  C_28
REMARK                            x       y       z     vdW  Elec       q    Type
REMARK                         _______ _______ _______ _____ _____    ______ ____
ROOT
ATOM      1  C   UNL     1       0.186   2.619   1.075  0.00  0.00    +0.045 C 
ATOM      2  C   UNL     1       0.702   1.259   0.681  0.00  0.00    -0.033 A 
ATOM      3  C   UNL     1       1.252   1.067  -0.554  0.00  0.00    +0.050 A 
ATOM      4  C   UNL     1       1.729  -0.189  -0.920  0.00  0.00    +0.122 A 
ATOM      5  C   UNL     1       1.652  -1.256  -0.040  0.00  0.00    +0.020 A 
ATOM      6  C   UNL     1       1.095  -1.078   1.220  0.00  0.00    +0.145 A 
ATOM      7  C   UNL     1       0.623   0.195   1.580  0.00  0.00    +0.071 A 
ATOM      8  C   UNL     1       0.105   0.072   2.955  0.00  0.00    +0.232 C 
ATOM      9  O   UNL     1      -0.399   0.944   3.643  0.00  0.00    -0.283 OA
ATOM     10  C   UNL     1       0.334  -1.335   3.311  0.00  0.00    +0.176 C 
ATOM     11  C   UNL     1       0.017  -1.925   4.492  0.00  0.00    +0.061 C 
ATOM     12  O   UNL     1       0.905  -1.940   2.243  0.00  0.00    -0.451 OA
ENDROOT
BRANCH  11  13
ATOM     13  C   UNL     1       0.225  -3.367   4.671  0.00  0.00    +0.020 A 
ATOM     14  C   UNL     1       0.506  -4.181   3.567  0.00  0.00    +0.011 A 
ATOM     15  C   UNL     1       0.700  -5.533   3.743  0.00  0.00    +0.001 A 
ATOM     16  C   UNL     1       0.618  -6.093   5.009  0.00  0.00    +0.004 A 
ATOM     17  C   UNL     1       0.342  -5.302   6.107  0.00  0.00    +0.046 A 
ATOM     18  C   UNL     1       0.149  -3.939   5.952  0.00  0.00    +0.127 A 
BRANCH  18  19
ATOM     19  O   UNL     1      -0.117  -3.160   7.032  0.00  0.00    -0.495 OA
ATOM     20  C   UNL     1      -0.178  -3.812   8.302  0.00  0.00    +0.277 C 
ENDBRANCH  18  19
ENDBRANCH  11  13
BRANCH   4  21
ATOM     21  O   UNL     1       2.275  -0.369  -2.150  0.00  0.00    -0.506 OA
ATOM     22  H   UNL     1       3.228  -0.213  -2.184  0.00  0.00    +0.292 HD
ENDBRANCH   4  21
BRANCH   5  23
ATOM     23  C   UNL     1       2.171  -2.610  -0.450  0.00  0.00    -0.035 C 
BRANCH  23  24
ATOM     24  N   UNL     1       3.587  -2.724  -0.078  0.00  0.00    +0.385 N 
ATOM     25  C   UNL     1       4.373  -1.748  -0.844  0.00  0.00    -0.059 C 
ATOM     26  C   UNL     1       5.831  -1.787  -0.375  0.00  0.00    +0.086 C 
ATOM     27  N   UNL     1       6.317  -3.171  -0.477  0.00  0.00    -0.333 N 
ATOM     28  C   UNL     1       5.502  -4.239   0.124  0.00  0.00    +0.086 C 
ATOM     29  C   UNL     1       4.060  -4.084  -0.369  0.00  0.00    -0.059 C 
ATOM     30  H   UNL     1       3.691  -2.537   0.908  0.00  0.00    -0.081 HD
BRANCH  27  31
ATOM     31  C   UNL     1       7.520  -3.465  -1.128  0.00  0.00    +0.030 A 
ATOM     32  C   UNL     1       8.210  -2.463  -1.798  0.00  0.00    +0.026 A 
ATOM     33  C   UNL     1       9.398  -2.755  -2.440  0.00  0.00    +0.040 A 
ATOM     34  C   UNL     1       9.901  -4.045  -2.414  0.00  0.00    +0.124 A 
ATOM     35  C   UNL     1       9.215  -5.045  -1.746  0.00  0.00    +0.040 A 
ATOM     36  C   UNL     1       8.029  -4.756  -1.099  0.00  0.00    +0.026 A 
ATOM     37  F   UNL     1      11.063  -4.328  -3.042  0.00  0.00    -0.205 F 
ENDBRANCH  27  31
ENDBRANCH  23  24
ENDBRANCH   5  23
TORSDOF 6
