REMARK  Name = ZINC27602974
REMARK  13 active torsions:
REMARK  status: ('A' for Active; 'I' for Inactive)
REMARK    1  A    between atoms: C_1  and  C_2
REMARK    2  A    between atoms: C_5  and  S_8
REMARK    3  A    between atoms: S_8  and  N_11
REMARK    4  A    between atoms: N_11  and  C_12
REMARK    5  A    between atoms: C_12  and  C_14
REMARK    6  A    between atoms: C_12  and  C_18
REMARK    7  A    between atoms: C_14  and  C_15
REMARK    8  A    between atoms: C_15  and  C_16
REMARK    9  A    between atoms: C_15  and  C_17
REMARK   10  A    between atoms: N_20  and  C_21
REMARK   11  A    between atoms: C_21  and  C_22
REMARK   12  A    between atoms: C_22  and  C_24
REMARK   13  A    between atoms: C_22  and  N_29
REMARK                            x       y       z     vdW  Elec       q    Type
REMARK                         _______ _______ _______ _____ _____    ______ ____
ROOT
ATOM      1  C   UNL     1      -5.127   2.039  -3.580  0.00  0.00    +0.162 C 
ENDROOT
BRANCH   1   2
ATOM      2  C   UNL     1      -3.716   2.410  -3.954  0.00  0.00    +0.232 C 
ATOM      3  O   UNL     1      -3.498   2.991  -4.997  0.00  0.00    -0.274 OA
ATOM      4  N   UNL     1      -2.696   2.097  -3.131  0.00  0.00    -0.315 N 
ATOM      5  H   UNL     1      -2.893   1.571  -2.186  0.00  0.00    +0.149 HD
BRANCH   4   6
ATOM      6  C   UNL     1      -1.323   2.458  -3.495  0.00  0.00    +0.094 C 
BRANCH   6   7
ATOM      7  C   UNL     1      -0.353   1.880  -2.463  0.00  0.00    -0.013 C 
BRANCH   7   8
ATOM      8  N   UNL     1       1.013   2.325  -2.772  0.00  0.00    +0.386 N 
ATOM      9  C   UNL     1       1.973   1.853  -1.741  0.00  0.00    -0.078 C 
ATOM     10  C   UNL     1       3.187   2.797  -1.875  0.00  0.00    -0.020 C 
ATOM     11  C   UNL     1       2.622   4.084  -2.518  0.00  0.00    -0.020 C 
ATOM     12  C   UNL     1       1.116   3.806  -2.717  0.00  0.00    -0.078 C 
ATOM     13  H   UNL     1       1.230   1.921  -3.772  0.00  0.00    -0.081 HD
ENDBRANCH   7   8
BRANCH   7  14
ATOM     14  C   UNL     1      -0.413   0.375  -2.506  0.00  0.00    -0.022 A 
ATOM     15  C   UNL     1      -1.073  -0.476  -1.684  0.00  0.00    +0.009 A 
ATOM     16  C   UNL     1      -0.985  -1.836  -1.915  0.00  0.00    +0.008 A 
ATOM     17  C   UNL     1      -0.240  -2.278  -2.958  0.00  0.00    +0.045 A 
ATOM     18  S   UNL     1       0.362  -0.749  -3.656  0.00  0.00    -0.103 S 
ENDBRANCH   7  14
ENDBRANCH   6   7
ENDBRANCH   4   6
ENDBRANCH   1   2
BRANCH   1  19
ATOM     19  N   UNL     1      -6.045   2.485  -4.631  0.00  0.00    -0.178 NA
ATOM     20  H   UNL     1      -5.891   2.159  -5.670  0.00  0.00    +0.149 HD
BRANCH  19  21
ATOM     21  S   UNL     1      -7.159   3.668  -4.310  0.00  0.00    +0.059 S 
ATOM     22  O   UNL     1      -7.844   3.921  -5.529  0.00  0.00    -0.153 OA
ATOM     23  O   UNL     1      -7.835   3.278  -3.123  0.00  0.00    -0.153 OA
BRANCH  21  28
ATOM     24  C   UNL     1      -4.094   8.692  -2.979  0.00  0.00    +0.044 C 
ATOM     25  C   UNL     1      -4.860   7.437  -3.311  0.00  0.00    -0.050 A 
ATOM     26  C   UNL     1      -5.215   7.170  -4.620  0.00  0.00    +0.005 A 
ATOM     27  C   UNL     1      -5.917   6.019  -4.925  0.00  0.00    +0.029 A 
ATOM     28  C   UNL     1      -6.264   5.135  -3.921  0.00  0.00    +0.105 A 
ATOM     29  C   UNL     1      -5.913   5.404  -2.612  0.00  0.00    +0.029 A 
ATOM     30  C   UNL     1      -5.207   6.553  -2.307  0.00  0.00    +0.005 A 
ENDBRANCH  21  28
ENDBRANCH  19  21
ENDBRANCH   1  19
BRANCH   1  31
ATOM     31  C   UNL     1      -5.231   0.520  -3.424  0.00  0.00    +0.032 C 
BRANCH  31  32
ATOM     32  C   UNL     1      -6.649   0.148  -2.985  0.00  0.00    -0.015 C 
ATOM     33  C   UNL     1      -6.795  -1.375  -2.971  0.00  0.00    +0.007 C 
ATOM     34  C   UNL     1      -6.909   0.698  -1.581  0.00  0.00    +0.007 C 
ENDBRANCH  31  32
ENDBRANCH   1  31
TORSDOF 10
