REMARK  Name = ZINC36298963
REMARK  9 active torsions:
REMARK  status: ('A' for Active; 'I' for Inactive)
REMARK    1  A    between atoms: C_1  and  C_2
REMARK    2  A    between atoms: C_2  and  C_3
REMARK    3  A    between atoms: C_2  and  C_4
REMARK    4  A    between atoms: C_4  and  C_5
REMARK    5  A    between atoms: C_5  and  C_7
REMARK    6  A    between atoms: C_5  and  N_19
REMARK    7  A    between atoms: C_7  and  N_8
REMARK    8  A    between atoms: N_8  and  S_9
REMARK    9  A    between atoms: S_9  and  C_12
REMARK                            x       y       z     vdW  Elec       q    Type
REMARK                         _______ _______ _______ _____ _____    ______ ____
ROOT
ATOM      1  N   UNL     1      -2.865  -4.020  -0.126  0.00  0.00    -0.191 NA
ATOM      2  H   UNL     1      -2.033  -4.518  -0.146  0.00  0.00    +0.148 HD
ENDROOT
BRANCH   1   3
ATOM      3  S   UNL     1      -4.306  -4.822   0.033  0.00  0.00    +0.060 S 
ATOM      4  O   UNL     1      -3.995  -6.207   0.088  0.00  0.00    -0.153 OA
ATOM      5  O   UNL     1      -5.027  -4.161   1.064  0.00  0.00    -0.153 OA
BRANCH   3   6
ATOM      6  C   UNL     1      -5.210  -4.568  -1.457  0.00  0.00    +0.127 A 
ATOM      7  C   UNL     1      -5.507  -5.632  -2.289  0.00  0.00    +0.052 A 
ATOM      8  C   UNL     1      -6.205  -5.401  -3.429  0.00  0.00    +0.058 A 
ATOM      9  S   UNL     1      -6.465  -3.637  -3.351  0.00  0.00    -0.073 S 
ATOM     10  C   UNL     1      -5.632  -3.326  -1.804  0.00  0.00    +0.082 A 
ATOM     11 BR   UNL     1      -5.396  -1.690  -0.886  0.00  0.00    -0.041 Br
ATOM     12 BR   UNL     1      -6.758  -6.630  -4.755  0.00  0.00    -0.042 Br
ENDBRANCH   3   6
ENDBRANCH   1   3
BRANCH   1  13
ATOM     13  C   UNL     1      -2.848  -2.559  -0.236  0.00  0.00    +0.090 C 
BRANCH  13  14
ATOM     14  C   UNL     1      -1.427  -2.046   0.003  0.00  0.00    -0.059 C 
BRANCH  14  15
ATOM     15  N   UNL     1      -0.939  -2.542   1.297  0.00  0.00    +0.381 N 
ATOM     16  H   UNL     1      -1.494  -2.144   2.040  0.00  0.00    -0.090 HD
ATOM     17  H   UNL     1      -1.014  -3.547   1.322  0.00  0.00    -0.090 HD
ATOM     18  H   UNL     1       0.026  -2.273   1.418  0.00  0.00    -0.090 HD
ENDBRANCH  14  15
BRANCH  14  19
ATOM     19  C   UNL     1      -1.432  -0.516   0.011  0.00  0.00    -0.012 C 
BRANCH  19  21
ATOM     20  C   UNL     1       0.790  -0.385  -1.123  0.00  0.00    +0.007 C 
ATOM     21  C   UNL     1       0.004  -0.003   0.133  0.00  0.00    -0.019 C 
ATOM     22  C   UNL     1      -0.010   1.520   0.282  0.00  0.00    +0.007 C 
ENDBRANCH  19  21
ENDBRANCH  14  19
ENDBRANCH  13  14
ENDBRANCH   1  13
TORSDOF 7
