REMARK  Name = ZINC61511774
REMARK  6 active torsions:
REMARK  status: ('A' for Active; 'I' for Inactive)
REMARK    1  A    between atoms: C_1  and  C_2
REMARK    2  A    between atoms: C_2  and  C_3
REMARK    3  A    between atoms: C_3  and  C_5
REMARK    4  A    between atoms: C_3  and  N_17
REMARK    5  A    between atoms: C_8  and  C_10
REMARK    6  A    between atoms: N_17  and  C_18
REMARK                            x       y       z     vdW  Elec       q    Type
REMARK                         _______ _______ _______ _____ _____    ______ ____
ROOT
ATOM      1  C   UNL     1      -1.405  -1.801  -0.182  0.00  0.00    +0.204 A 
ATOM      2  N   UNL     1      -0.894  -2.667   0.649  0.00  0.00    -0.114 NA
ATOM      3  N   UNL     1      -0.961  -3.846   0.136  0.00  0.00    -0.107 NA
ATOM      4  C   UNL     1      -1.520  -3.771  -1.049  0.00  0.00    +0.248 A 
ATOM      5  O   UNL     1      -1.817  -2.475  -1.269  0.00  0.00    -0.422 OA
ENDROOT
BRANCH   4   6
ATOM      6  C   UNL     1      -1.782  -4.899  -1.968  0.00  0.00    +0.039 A 
ATOM      7  C   UNL     1      -2.382  -4.669  -3.207  0.00  0.00    +0.013 A 
ATOM      8  C   UNL     1      -2.623  -5.726  -4.060  0.00  0.00    +0.002 A 
ATOM      9  C   UNL     1      -2.271  -7.012  -3.691  0.00  0.00    +0.014 A 
ATOM     10  C   UNL     1      -1.675  -7.247  -2.463  0.00  0.00    +0.014 A 
ATOM     11  C   UNL     1      -1.424  -6.197  -1.603  0.00  0.00    +0.027 A 
ATOM     12  I   UNL     1      -1.148  -9.199  -1.914  0.00  0.00    -0.044 I 
ENDBRANCH   4   6
BRANCH   1  13
ATOM     13  C   UNL     1      -1.517  -0.315   0.041  0.00  0.00    +0.017 C 
BRANCH  13  14
ATOM     14  N   UNL     1      -2.006  -0.059   1.402  0.00  0.00    +0.385 N 
ATOM     15  C   UNL     1      -3.378  -0.568   1.533  0.00  0.00    -0.099 C 
ATOM     16  H   UNL     1      -1.409  -0.527   2.067  0.00  0.00    -0.085 HD
ATOM     17  H   UNL     1      -1.998   0.933   1.581  0.00  0.00    -0.085 HD
ENDBRANCH  13  14
BRANCH  13  19
ATOM     18  C   UNL     1      -0.280   1.854  -0.042  0.00  0.00    +0.002 C 
ATOM     19  C   UNL     1      -0.143   0.333  -0.138  0.00  0.00    -0.010 C 
ENDBRANCH  13  19
ENDBRANCH   1  13
TORSDOF 4
