REMARK  Name = ZINC13636720
REMARK  3 active torsions:
REMARK  status: ('A' for Active; 'I' for Inactive)
REMARK    1  A    between atoms: C_3  and  O_26
REMARK    2  A    between atoms: C_6  and  C_7
REMARK    3  A    between atoms: C_18  and  C_23
REMARK                            x       y       z     vdW  Elec       q    Type
REMARK                         _______ _______ _______ _____ _____    ______ ____
ROOT
ATOM      1  C   UNL     1       0.002  -0.004   0.002  0.00  0.00    +0.105 C 
ATOM      2  C   UNL     1      -0.018   1.514   0.010  0.00  0.00    +0.029 C 
ATOM      3  C   UNL     1      -0.417   2.202   1.322  0.00  0.00    +0.033 C 
ATOM      4  C   UNL     1       0.357   3.519   1.226  0.00  0.00    -0.030 C 
ATOM      5  C   UNL     1       1.425   3.362   0.452  0.00  0.00    -0.023 C 
ATOM      6  C   UNL     1       1.478   1.948  -0.002  0.00  0.00    +0.049 C 
ATOM      7  C   UNL     1       2.048   1.569  -1.313  0.00  0.00    -0.019 A 
ATOM      8  C   UNL     1       3.010   2.321  -1.941  0.00  0.00    +0.019 A 
ATOM      9  C   UNL     1       3.542   1.902  -3.164  0.00  0.00    +0.037 A 
ATOM     10  C   UNL     1       3.090   0.714  -3.745  0.00  0.00    +0.015 A 
ATOM     11  C   UNL     1       2.121  -0.033  -3.118  0.00  0.00    +0.024 A 
ATOM     12  C   UNL     1       1.583   0.384  -1.901  0.00  0.00    +0.031 A 
ATOM     13  N   UNL     1       0.591  -0.388  -1.299  0.00  0.00    -0.336 N 
ATOM     14  H   UNL     1       0.280  -1.193  -1.742  0.00  0.00    +0.147 HD
ENDROOT
BRANCH   1  20
ATOM     15  C   UNL     1      -2.218  -0.587  -0.995  0.00  0.00    +0.009 A 
ATOM     16  C   UNL     1      -3.502  -1.087  -0.891  0.00  0.00    +0.046 A 
ATOM     17  C   UNL     1      -3.974  -1.536   0.334  0.00  0.00    +0.117 A 
ATOM     18  C   UNL     1      -3.153  -1.486   1.451  0.00  0.00    +0.046 A 
ATOM     19  C   UNL     1      -1.868  -0.991   1.341  0.00  0.00    +0.009 A 
ATOM     20  C   UNL     1      -1.400  -0.544   0.119  0.00  0.00    -0.027 A 
BRANCH  17  21
ATOM     21  O   UNL     1      -5.238  -2.022   0.439  0.00  0.00    -0.507 OA
ATOM     22  H   UNL     1      -5.901  -1.351   0.652  0.00  0.00    +0.292 HD
ENDBRANCH  17  21
ENDBRANCH   1  20
BRANCH   9  23
ATOM     23  C   UNL     1       4.577   2.710  -3.838  0.00  0.00    +0.242 C 
ATOM     24  O   UNL     1       4.968   3.743  -3.330  0.00  0.00    -0.270 OA
ATOM     25  N   UNL     1       5.087   2.303  -5.017  0.00  0.00    -0.325 N 
ATOM     26  H   UNL     1       4.774   1.478  -5.423  0.00  0.00    +0.145 HD
ATOM     27  H   UNL     1       5.767   2.834  -5.461  0.00  0.00    +0.145 HD
ENDBRANCH   9  23
TORSDOF 3
