REMARK  Name = ZINC08744859
REMARK  5 active torsions:
REMARK  status: ('A' for Active; 'I' for Inactive)
REMARK    1  A    between atoms: C_4  and  N_7
REMARK    2  A    between atoms: C_10  and  S_17
REMARK    3  A    between atoms: S_17  and  C_18
REMARK    4  A    between atoms: C_18  and  C_20
REMARK    5  A    between atoms: C_18  and  C_27
REMARK                            x       y       z     vdW  Elec       q    Type
REMARK                         _______ _______ _______ _____ _____    ______ ____
ROOT
ATOM      1  N   UNL     1       2.826  -1.080  -0.572  0.00  0.00    -0.214 N 
ATOM      2  C   UNL     1       3.258  -2.140   0.174  0.00  0.00    +0.171 A 
ATOM      3  N   UNL     1       2.659  -3.048   0.941  0.00  0.00    -0.202 NA
ATOM      4  C   UNL     1       3.367  -3.982   1.556  0.00  0.00    +0.195 A 
ATOM      5  N   UNL     1       4.689  -4.063   1.443  0.00  0.00    -0.183 NA
ATOM      6  C   UNL     1       5.368  -3.201   0.701  0.00  0.00    +0.285 A 
ATOM      7  O   UNL     1       6.714  -3.292   0.592  0.00  0.00    -0.265 OA
ATOM      8  C   UNL     1       4.659  -2.189   0.027  0.00  0.00    +0.105 A 
ATOM      9  C   UNL     1       5.022  -1.125  -0.827  0.00  0.00    +0.150 A 
ATOM     10  N   UNL     1       3.941  -0.486  -1.176  0.00  0.00    -0.172 NA
ENDROOT
BRANCH   1  14
ATOM     11  C   UNL     1      -1.130   0.159  -0.994  0.00  0.00    +0.000 A 
ATOM     12  C   UNL     1      -0.113   1.095  -0.974  0.00  0.00    +0.002 A 
ATOM     13  C   UNL     1       1.200   0.688  -0.835  0.00  0.00    +0.028 A 
ATOM     14  C   UNL     1       1.496  -0.664  -0.713  0.00  0.00    +0.068 A 
ATOM     15  C   UNL     1       0.472  -1.601  -0.733  0.00  0.00    +0.028 A 
ATOM     16  C   UNL     1      -0.838  -1.187  -0.873  0.00  0.00    +0.002 A 
ENDBRANCH   1  14
BRANCH   4  17
ATOM     17  S   UNL     1       2.526  -5.160   2.560  0.00  0.00    -0.068 S 
BRANCH  17  18
ATOM     18  C   UNL     1       3.853  -6.224   3.192  0.00  0.00    +0.169 C 
BRANCH  18  19
ATOM     19  C   UNL     1       3.253  -7.362   3.977  0.00  0.00    -0.025 A 
ATOM     20  C   UNL     1       2.291  -7.107   4.937  0.00  0.00    +0.008 A 
ATOM     21  C   UNL     1       1.740  -8.150   5.658  0.00  0.00    +0.038 A 
ATOM     22  C   UNL     1       2.152  -9.450   5.418  0.00  0.00    +0.123 A 
ATOM     23  C   UNL     1       3.115  -9.704   4.457  0.00  0.00    +0.038 A 
ATOM     24  C   UNL     1       3.661  -8.660   3.733  0.00  0.00    +0.008 A 
ATOM     25  F   UNL     1       1.614 -10.470   6.122  0.00  0.00    -0.205 F 
ENDBRANCH  18  19
BRANCH  18  26
ATOM     26  C   UNL     1       4.760  -5.419   4.086  0.00  0.00    +0.228 C 
ATOM     27  O   UNL     1       5.889  -5.160   3.730  0.00  0.00    -0.274 OA
ATOM     28  N   UNL     1       4.315  -4.986   5.283  0.00  0.00    -0.328 N 
ATOM     29  H   UNL     1       3.441  -5.260   5.603  0.00  0.00    +0.145 HD
ATOM     30  H   UNL     1       4.869  -4.402   5.824  0.00  0.00    +0.145 HD
ENDBRANCH  18  26
ENDBRANCH  17  18
ENDBRANCH   4  17
TORSDOF 5
