REMARK  Name = ZINC38320265
REMARK  14 active torsions:
REMARK  status: ('A' for Active; 'I' for Inactive)
REMARK    1  A    between atoms: C_4  and  S_8
REMARK    2  A    between atoms: S_8  and  N_11
REMARK    3  A    between atoms: N_11  and  C_12
REMARK    4  A    between atoms: C_12  and  C_13
REMARK    5  A    between atoms: C_13  and  C_14
REMARK    6  A    between atoms: C_14  and  C_15
REMARK    7  A    between atoms: C_15  and  C_16
REMARK    8  A    between atoms: C_16  and  C_18
REMARK    9  A    between atoms: C_16  and  N_40
REMARK   10  A    between atoms: C_18  and  N_19
REMARK   11  A    between atoms: N_19  and  C_20
REMARK   12  A    between atoms: C_26  and  O_39
REMARK   13  A    between atoms: C_30  and  C_32
REMARK   14  A    between atoms: C_32  and  C_33
REMARK                            x       y       z     vdW  Elec       q    Type
REMARK                         _______ _______ _______ _____ _____    ______ ____
ROOT
ATOM      1  C   UNL     1       2.813  -7.581   5.714  0.00  0.00    -0.099 C 
ENDROOT
BRANCH   1   2
ATOM      2  N   UNL     1       1.824  -8.598   6.096  0.00  0.00    +0.380 N 
ATOM      3  H   UNL     1       0.996  -8.145   6.452  0.00  0.00    -0.086 HD
ATOM      4  H   UNL     1       1.582  -9.152   5.288  0.00  0.00    -0.086 HD
BRANCH   2   5
ATOM      5  C   UNL     1       2.392  -9.468   7.135  0.00  0.00    -0.064 C 
ATOM      6  C   UNL     1       2.632  -8.656   8.413  0.00  0.00    -0.011 C 
ATOM      7  C   UNL     1       3.437  -9.516   9.385  0.00  0.00    +0.034 C 
ATOM      8  C   UNL     1       2.791 -10.866   9.557  0.00  0.00    -0.041 A 
ATOM      9  C   UNL     1       3.156 -11.620  10.664  0.00  0.00    +0.049 A 
ATOM     10  C   UNL     1       2.603 -12.871  10.877  0.00  0.00    +0.117 A 
ATOM     11  C   UNL     1       1.676 -13.373   9.974  0.00  0.00    +0.046 A 
ATOM     12  C   UNL     1       1.313 -12.621   8.878  0.00  0.00    +0.008 A 
ATOM     13  C   UNL     1       1.866 -11.364   8.667  0.00  0.00    -0.042 A 
ATOM     14  C   UNL     1       1.411 -10.594   7.455  0.00  0.00    +0.010 C 
BRANCH  10  15
ATOM     15  O   UNL     1       2.965 -13.603  11.963  0.00  0.00    -0.507 OA
ATOM     16  H   UNL     1       2.417 -13.447  12.743  0.00  0.00    +0.292 HD
ENDBRANCH  10  15
BRANCH  14  17
ATOM     17  C   UNL     1       0.029  -9.996   7.728  0.00  0.00    +0.043 C 
BRANCH  17  18
ATOM     18  C   UNL     1      -0.970 -11.108   7.924  0.00  0.00    -0.029 A 
ATOM     19  C   UNL     1      -1.662 -11.629   6.841  0.00  0.00    +0.006 A 
ATOM     20  C   UNL     1      -2.571 -12.651   7.069  0.00  0.00    +0.020 A 
ATOM     21  C   UNL     1      -2.755 -13.113   8.358  0.00  0.00    +0.111 A 
ATOM     22  N   UNL     1      -2.079 -12.594   9.364  0.00  0.00    -0.263 NA
ATOM     23  C   UNL     1      -1.202 -11.625   9.184  0.00  0.00    +0.114 A 
ENDBRANCH  17  18
ENDBRANCH  14  17
ENDBRANCH   2   5
ENDBRANCH   1   2
BRANCH   1  24
ATOM     24  C   UNL     1       2.222  -6.675   4.632  0.00  0.00    -0.093 C 
BRANCH  24  25
ATOM     25  N   UNL     1       0.953  -6.108   5.108  0.00  0.00    +0.379 N 
ATOM     26  H   UNL     1       0.306  -6.855   5.311  0.00  0.00    -0.090 HD
ATOM     27  H   UNL     1       1.118  -5.569   5.945  0.00  0.00    -0.090 HD
ATOM     28  H   UNL     1       0.563  -5.511   4.395  0.00  0.00    -0.090 HD
ENDBRANCH  24  25
BRANCH  24  29
ATOM     29  C   UNL     1       3.203  -5.542   4.324  0.00  0.00    -0.018 C 
BRANCH  29  30
ATOM     30  C   UNL     1       2.669  -4.709   3.157  0.00  0.00    -0.000 C 
BRANCH  30  31
ATOM     31  C   UNL     1       3.650  -3.576   2.849  0.00  0.00    +0.017 C 
BRANCH  31  32
ATOM     32  C   UNL     1       3.116  -2.743   1.682  0.00  0.00    +0.106 C 
BRANCH  32  33
ATOM     33  N   UNL     1       4.055  -1.658   1.387  0.00  0.00    -0.190 NA
ATOM     34  H   UNL     1       4.745  -1.426   2.027  0.00  0.00    +0.148 HD
BRANCH  33  35
ATOM     35  S   UNL     1       3.938  -0.827  -0.042  0.00  0.00    +0.061 S 
ATOM     36  O   UNL     1       3.846  -1.802  -1.072  0.00  0.00    -0.153 OA
ATOM     37  O   UNL     1       4.956   0.164  -0.019  0.00  0.00    -0.153 OA
BRANCH  35  41
ATOM     38  C   UNL     1      -0.017   1.377   0.010  0.00  0.00    +0.003 A 
ATOM     39  C   UNL     1       1.171   2.086   0.002  0.00  0.00    +0.002 A 
ATOM     40  C   UNL     1       2.378   1.413  -0.013  0.00  0.00    +0.031 A 
ATOM     41  C   UNL     1       2.399   0.030  -0.021  0.00  0.00    +0.140 A 
ATOM     42  C   UNL     1       1.211  -0.679  -0.013  0.00  0.00    +0.150 A 
ATOM     43  C   UNL     1       0.002  -0.004   0.002  0.00  0.00    +0.040 A 
ATOM     44  F   UNL     1       1.230  -2.030  -0.022  0.00  0.00    -0.203 F 
ENDBRANCH  35  41
ENDBRANCH  33  35
ENDBRANCH  32  33
ENDBRANCH  31  32
ENDBRANCH  30  31
ENDBRANCH  29  30
ENDBRANCH  24  29
ENDBRANCH   1  24
TORSDOF 14
