REMARK  Name = ZINC09465139
REMARK  10 active torsions:
REMARK  status: ('A' for Active; 'I' for Inactive)
REMARK    1  A    between atoms: C_1  and  C_2
REMARK    2  A    between atoms: C_5  and  O_9
REMARK    3  A    between atoms: C_6  and  C_8
REMARK    4  A    between atoms: O_9  and  C_10
REMARK    5  A    between atoms: C_10  and  C_11
REMARK    6  A    between atoms: C_14  and  S_17
REMARK    7  A    between atoms: N_15  and  N_16
REMARK    8  A    between atoms: S_17  and  C_18
REMARK    9  A    between atoms: C_18  and  C_20
REMARK   10  A    between atoms: C_18  and  C_21
REMARK                            x       y       z     vdW  Elec       q    Type
REMARK                         _______ _______ _______ _____ _____    ______ ____
ROOT
ATOM      1  C   UNL     1       8.133   7.424  -1.527  0.00  0.00    +0.189 A 
ATOM      2  N   UNL     1       8.474   6.264  -1.042  0.00  0.00    -0.128 NA
ATOM      3  N   UNL     1       7.424   5.567  -0.787  0.00  0.00    -0.121 NA
ATOM      4  C   UNL     1       6.348   6.252  -1.097  0.00  0.00    +0.209 A 
ATOM      5  N   UNL     1       6.767   7.456  -1.585  0.00  0.00    -0.225 N 
ENDROOT
BRANCH   5   6
ATOM      6  N   UNL     1       5.985   8.481  -2.035  0.00  0.00    -0.295 N 
ATOM      7  H   UNL     1       5.752   9.114  -1.284  0.00  0.00    +0.163 HD
ATOM      8  H   UNL     1       6.432   8.971  -2.795  0.00  0.00    +0.163 HD
ENDBRANCH   5   6
BRANCH   1   9
ATOM      9  C   UNL     1       9.071   8.525  -1.952  0.00  0.00    +0.306 C 
BRANCH   9  10
ATOM     10  O   UNL     1       9.403   8.362  -3.332  0.00  0.00    -0.484 OA
BRANCH  10  15
ATOM     11  C   UNL     1      12.898  12.160  -5.587  0.00  0.00    +0.044 C 
ATOM     12  C   UNL     1      11.963  11.144  -4.984  0.00  0.00    -0.050 A 
ATOM     13  C   UNL     1      11.601  11.243  -3.653  0.00  0.00    +0.007 A 
ATOM     14  C   UNL     1      10.744  10.313  -3.097  0.00  0.00    +0.046 A 
ATOM     15  C   UNL     1      10.246   9.278  -3.876  0.00  0.00    +0.124 A 
ATOM     16  C   UNL     1      10.615   9.177  -5.210  0.00  0.00    -0.009 A 
ATOM     17  C   UNL     1      11.469  10.113  -5.762  0.00  0.00    +0.010 A 
ATOM     18  C   UNL     1      10.081   8.051  -6.056  0.00  0.00    +0.047 C 
ENDBRANCH  10  15
ENDBRANCH   9  10
ENDBRANCH   1   9
BRANCH   4  19
ATOM     19  S   UNL     1       4.679   5.715  -0.924  0.00  0.00    -0.072 S 
BRANCH  19  20
ATOM     20  C   UNL     1       4.950   4.062  -0.239  0.00  0.00    +0.137 C 
ATOM     21  C   UNL     1       5.594   4.182   1.144  0.00  0.00    +0.029 C 
BRANCH  20  22
ATOM     22  C   UNL     1       3.629   3.346  -0.116  0.00  0.00    +0.231 C 
ATOM     23  O   UNL     1       2.595   3.980  -0.103  0.00  0.00    -0.274 OA
ATOM     24  N   UNL     1       3.597   2.002  -0.021  0.00  0.00    -0.269 N 
ATOM     25  C   UNL     1       2.374   1.332  -0.015  0.00  0.00    +0.125 A 
ATOM     26  C   UNL     1       2.350  -0.058  -0.024  0.00  0.00    +0.045 A 
ATOM     27  C   UNL     1       1.130  -0.710  -0.018  0.00  0.00    +0.025 A 
ATOM     28  C   UNL     1      -0.030   0.054  -0.003  0.00  0.00    +0.059 A 
ATOM     29  C   UNL     1       0.069   1.433   0.006  0.00  0.00    +0.132 A 
ATOM     30  N   UNL     1       1.247   2.026  -0.001  0.00  0.00    -0.239 NA
ATOM     31 CL   UNL     1      -1.587  -0.714   0.005  0.00  0.00    -0.082 Cl
ATOM     32  H   UNL     1       4.425   1.501   0.042  0.00  0.00    +0.156 HD
ENDBRANCH  20  22
ENDBRANCH  19  20
ENDBRANCH   4  19
TORSDOF 7
