REMARK  Name = ZINC11072123
REMARK  6 active torsions:
REMARK  status: ('A' for Active; 'I' for Inactive)
REMARK    1  A    between atoms: C_4  and  C_7
REMARK    2  A    between atoms: C_7  and  C_8
REMARK    3  A    between atoms: C_8  and  C_10
REMARK    4  A    between atoms: C_8  and  N_28
REMARK    5  A    between atoms: C_15  and  C_18
REMARK    6  A    between atoms: C_29  and  C_31
REMARK                            x       y       z     vdW  Elec       q    Type
REMARK                         _______ _______ _______ _____ _____    ______ ____
ROOT
ATOM      1  C   UNL     1       2.879   4.199  -1.461  0.00  0.00    +0.164 C 
ENDROOT
BRANCH   1   2
ATOM      2  C   UNL     1       4.170   4.976  -1.454  0.00  0.00    +0.237 C 
ATOM      3  O   UNL     1       4.197   6.111  -1.880  0.00  0.00    -0.274 OA
ATOM      4  N   UNL     1       5.295   4.410  -0.974  0.00  0.00    -0.296 N 
ATOM      5  C   UNL     1       5.316   3.005  -0.530  0.00  0.00    +0.113 C 
ATOM      6  C   UNL     1       6.304   2.246  -1.429  0.00  0.00    +0.054 C 
ATOM      7  C   UNL     1       7.575   3.028  -1.584  0.00  0.00    -0.039 C 
ATOM      8  C   UNL     1       7.688   4.314  -1.347  0.00  0.00    -0.004 C 
ATOM      9  C   UNL     1       6.548   5.170  -0.867  0.00  0.00    +0.135 C 
BRANCH   7  10
ATOM     10  C   UNL     1       8.779   2.302  -2.034  0.00  0.00    +0.003 A 
ATOM     11  C   UNL     1       9.545   1.462  -1.292  0.00  0.00    +0.091 A 
ATOM     12  N   UNL     1      10.569   0.979  -2.052  0.00  0.00    -0.360 N 
ATOM     13  H   UNL     1      11.247   0.359  -1.741  0.00  0.00    +0.165 HD
ATOM     14  C   UNL     1      10.506   1.504  -3.325  0.00  0.00    +0.047 A 
ATOM     15  C   UNL     1       9.387   2.353  -3.375  0.00  0.00    +0.007 A 
ATOM     16  C   UNL     1       9.074   3.027  -4.554  0.00  0.00    +0.010 A 
ATOM     17  C   UNL     1       9.866   2.857  -5.667  0.00  0.00    +0.001 A 
ATOM     18  C   UNL     1      10.971   2.019  -5.620  0.00  0.00    +0.002 A 
ATOM     19  C   UNL     1      11.293   1.345  -4.461  0.00  0.00    +0.026 A 
ENDBRANCH   7  10
ENDBRANCH   1   2
BRANCH   1  20
ATOM     20  N   UNL     1       1.925   4.845  -2.366  0.00  0.00    -0.300 N 
ATOM     21  C   UNL     1       0.936   4.124  -2.930  0.00  0.00    +0.245 C 
ATOM     22  O   UNL     1       0.836   2.937  -2.688  0.00  0.00    -0.270 OA
ATOM     23  H   UNL     1       2.005   5.793  -2.559  0.00  0.00    +0.150 HD
BRANCH  21  24
ATOM     24  C   UNL     1      -0.026   4.776  -3.843  0.00  0.00    +0.037 A 
ATOM     25  C   UNL     1       0.083   6.140  -4.118  0.00  0.00    +0.013 A 
ATOM     26  C   UNL     1      -0.816   6.742  -4.975  0.00  0.00    +0.001 A 
ATOM     27  C   UNL     1      -1.830   5.998  -5.553  0.00  0.00    +0.000 A 
ATOM     28  C   UNL     1      -1.947   4.647  -5.280  0.00  0.00    +0.001 A 
ATOM     29  C   UNL     1      -1.051   4.032  -4.429  0.00  0.00    +0.013 A 
ENDBRANCH  21  24
ENDBRANCH   1  20
BRANCH   1  30
ATOM     30  C   UNL     1       2.297   4.163  -0.047  0.00  0.00    +0.067 C 
BRANCH  30  34
ATOM     31  C   UNL     1      -1.209   1.724  -0.016  0.00  0.00    +0.000 A 
ATOM     32  C   UNL     1       0.028   1.160   0.235  0.00  0.00    +0.000 A 
ATOM     33  C   UNL     1       1.163   1.949   0.224  0.00  0.00    +0.004 A 
ATOM     34  C   UNL     1       1.060   3.303  -0.034  0.00  0.00    -0.045 A 
ATOM     35  C   UNL     1      -0.177   3.868  -0.280  0.00  0.00    +0.004 A 
ATOM     36  C   UNL     1      -1.312   3.079  -0.268  0.00  0.00    +0.000 A 
ENDBRANCH  30  34
ENDBRANCH   1  30
TORSDOF 6
