REMARK  Name = ZINC10068156
REMARK  9 active torsions:
REMARK  status: ('A' for Active; 'I' for Inactive)
REMARK    1  A    between atoms: C_1  and  N_59
REMARK    2  A    between atoms: C_2  and  N_59
REMARK    3  A    between atoms: C_3  and  C_4
REMARK    4  A    between atoms: C_3  and  N_59
REMARK    5  A    between atoms: C_4  and  C_5
REMARK    6  A    between atoms: C_5  and  N_6
REMARK    7  A    between atoms: C_19  and  C_21
REMARK    8  A    between atoms: C_24  and  O_27
REMARK    9  A    between atoms: O_27  and  C_28
REMARK                            x       y       z     vdW  Elec       q    Type
REMARK                         _______ _______ _______ _____ _____    ______ ____
ROOT
ATOM      1  N   UNL     1      -0.060   0.065  -0.436  0.00  0.00    -0.246 N 
ATOM      2  C   UNL     1      -1.263  -0.550  -0.742  0.00  0.00    +0.168 A 
ATOM      3  N   UNL     1      -1.491  -1.806  -1.046  0.00  0.00    -0.224 NA
ATOM      4  C   UNL     1      -2.730  -2.273  -1.321  0.00  0.00    +0.084 A 
ATOM      5  C   UNL     1      -3.108  -3.595  -1.655  0.00  0.00    +0.078 A 
ATOM      6  C   UNL     1      -4.421  -3.911  -1.914  0.00  0.00    +0.168 A 
ATOM      7  C   UNL     1      -5.419  -2.934  -1.856  0.00  0.00    +0.167 A 
ATOM      8  C   UNL     1      -5.080  -1.632  -1.531  0.00  0.00    +0.066 A 
ATOM      9  C   UNL     1      -3.769  -1.317  -1.272  0.00  0.00    +0.044 A 
ATOM     10  S   UNL     1      -2.897   0.167  -0.831  0.00  0.00    -0.052 S 
ATOM     11  O   UNL     1      -6.618  -3.512  -2.156  0.00  0.00    -0.453 OA
ATOM     12  C   UNL     1      -6.293  -4.759  -2.798  0.00  0.00    +0.466 C 
ATOM     13  O   UNL     1      -5.006  -5.101  -2.251  0.00  0.00    -0.453 OA
ATOM     14  C   UNL     1       0.072   0.752   0.716  0.00  0.00    +0.252 C 
ATOM     15  O   UNL     1       1.157   1.197   1.037  0.00  0.00    -0.270 OA
ENDROOT
BRANCH  14  16
ATOM     16  C   UNL     1      -1.099   0.958   1.589  0.00  0.00    +0.038 A 
ATOM     17  C   UNL     1      -2.180   0.074   1.534  0.00  0.00    +0.016 A 
ATOM     18  C   UNL     1      -3.268   0.267   2.355  0.00  0.00    +0.047 A 
ATOM     19  C   UNL     1      -3.297   1.346   3.231  0.00  0.00    +0.128 A 
ATOM     20  C   UNL     1      -2.226   2.231   3.285  0.00  0.00    +0.047 A 
ATOM     21  C   UNL     1      -1.132   2.042   2.472  0.00  0.00    +0.016 A 
BRANCH  19  22
ATOM     22  O   UNL     1      -4.374   1.536   4.035  0.00  0.00    -0.456 OA
BRANCH  22  23
ATOM     23  C   UNL     1      -5.261   2.506   3.694  0.00  0.00    +0.128 A 
ATOM     24  C   UNL     1      -5.111   3.197   2.500  0.00  0.00    +0.046 A 
ATOM     25  C   UNL     1      -6.017   4.181   2.153  0.00  0.00    +0.004 A 
ATOM     26  C   UNL     1      -7.068   4.483   2.999  0.00  0.00    +0.000 A 
ATOM     27  C   UNL     1      -7.217   3.800   4.192  0.00  0.00    +0.004 A 
ATOM     28  C   UNL     1      -6.317   2.812   4.541  0.00  0.00    +0.046 A 
ENDBRANCH  22  23
ENDBRANCH  19  22
ENDBRANCH  14  16
BRANCH   1  29
ATOM     29  C   UNL     1       1.069  -0.032  -1.365  0.00  0.00    +0.114 C 
BRANCH  29  30
ATOM     30  C   UNL     1       1.972  -1.195  -0.951  0.00  0.00    +0.001 C 
BRANCH  30  31
ATOM     31  C   UNL     1       3.151  -1.296  -1.920  0.00  0.00    -0.078 C 
BRANCH  31  34
ATOM     32  C   UNL     1       3.326  -3.699  -1.679  0.00  0.00    -0.097 C 
ATOM     33  C   UNL     1       5.277  -2.398  -2.279  0.00  0.00    -0.097 C 
ATOM     34  N   UNL     1       4.025  -2.410  -1.494  0.00  0.00    +0.376 N 
ATOM     35  H   UNL     1       4.253  -2.294  -0.500  0.00  0.00    -0.083 HD
ENDBRANCH  31  34
ENDBRANCH  30  31
ENDBRANCH  29  30
ENDBRANCH   1  29
TORSDOF 7
