REMARK  Name = ZINC06194600
REMARK  11 active torsions:
REMARK  status: ('A' for Active; 'I' for Inactive)
REMARK    1  A    between atoms: C_1  and  C_2
REMARK    2  A    between atoms: C_2  and  O_3
REMARK    3  A    between atoms: O_3  and  C_4
REMARK    4  A    between atoms: C_4  and  C_6
REMARK    5  A    between atoms: C_11  and  C_13
REMARK    6  A    between atoms: C_11  and  C_27
REMARK    7  A    between atoms: C_11  and  N_70
REMARK    8  A    between atoms: C_16  and  C_26
REMARK    9  A    between atoms: C_18  and  C_25
REMARK   10  A    between atoms: N_31  and  C_32
REMARK   11  A    between atoms: C_32  and  C_33
REMARK                            x       y       z     vdW  Elec       q    Type
REMARK                         _______ _______ _______ _____ _____    ______ ____
ROOT
ATOM      1  C   UNL     1      -0.351   1.695  -1.013  0.00  0.00    +0.039 C 
ENDROOT
BRANCH   1   2
ATOM      2  C   UNL     1       1.114   1.765  -0.666  0.00  0.00    +0.011 A 
ATOM      3  C   UNL     1       1.841   0.624  -0.572  0.00  0.00    +0.018 A 
ATOM      4  C   UNL     1       3.262   0.726  -0.234  0.00  0.00    +0.002 A 
ATOM      5  C   UNL     1       4.063  -0.415  -0.123  0.00  0.00    -0.041 A 
ATOM      6  C   UNL     1       5.386  -0.286   0.193  0.00  0.00    +0.007 A 
ATOM      7  C   UNL     1       5.942   0.968   0.406  0.00  0.00    -0.048 A 
ATOM      8  C   UNL     1       5.172   2.106   0.302  0.00  0.00    +0.029 A 
ATOM      9  C   UNL     1       3.823   1.999  -0.020  0.00  0.00    +0.050 A 
ATOM     10  N   UNL     1       3.029   3.121  -0.131  0.00  0.00    -0.322 N 
ATOM     11  H   UNL     1       3.428   4.024   0.025  0.00  0.00    +0.169 HD
ATOM     12  C   UNL     1       1.726   3.018  -0.447  0.00  0.00    +0.251 A 
ATOM     13  O   UNL     1       1.056   4.031  -0.542  0.00  0.00    -0.268 OA
ATOM     14  C   UNL     1       7.404   1.086   0.753  0.00  0.00    +0.044 C 
ATOM     15  C   UNL     1       3.469  -1.782  -0.351  0.00  0.00    +0.044 C 
ENDBRANCH   1   2
BRANCH   1  21
ATOM     16  C   UNL     1      -1.349   3.181  -4.896  0.00  0.00    +0.094 C 
ATOM     17  C   UNL     1      -2.301   3.436  -3.723  0.00  0.00    -0.004 C 
ATOM     18  C   UNL     1      -2.016   2.422  -2.612  0.00  0.00    -0.077 C 
ATOM     19  C   UNL     1       0.311   2.269  -3.269  0.00  0.00    -0.077 C 
ATOM     20  C   UNL     1       0.096   3.278  -4.400  0.00  0.00    -0.004 C 
ATOM     21  N   UNL     1      -0.617   2.584  -2.163  0.00  0.00    +0.389 N 
ATOM     22  H   UNL     1      -0.471   3.558  -1.872  0.00  0.00    -0.080 HD
BRANCH  16  23
ATOM     23  C   UNL     1      -1.584   4.213  -5.968  0.00  0.00    +0.310 C 
ATOM     24  O   UNL     1      -2.426   5.066  -5.812  0.00  0.00    -0.251 OA
BRANCH  23  25
ATOM     25  O   UNL     1      -0.858   4.185  -7.097  0.00  0.00    -0.465 OA
BRANCH  25  27
ATOM     26  C   UNL     1      -0.220   5.018  -9.294  0.00  0.00    +0.048 C 
ATOM     27  C   UNL     1      -1.139   5.210  -8.086  0.00  0.00    +0.229 C 
ENDBRANCH  25  27
ENDBRANCH  23  25
ENDBRANCH  16  23
ENDBRANCH   1  21
BRANCH   1  28
ATOM     28  C   UNL     1      -1.168   2.165   0.164  0.00  0.00    +0.143 A 
ATOM     29  N   UNL     1      -1.131   3.352   0.717  0.00  0.00    -0.115 NA
ATOM     30  N   UNL     1      -1.974   3.363   1.692  0.00  0.00    -0.023 NA
ATOM     31  N   UNL     1      -2.547   2.213   1.774  0.00  0.00    -0.044 NA
ATOM     32  N   UNL     1      -2.081   1.448   0.845  0.00  0.00    -0.228 N 
BRANCH  32  33
ATOM     33  C   UNL     1      -2.469   0.060   0.584  0.00  0.00    +0.178 C 
BRANCH  33  34
ATOM     34  C   UNL     1      -1.695  -0.871   1.520  0.00  0.00    +0.140 C 
ATOM     35  C   UNL     1      -2.133  -2.341   1.299  0.00  0.00    +0.035 C 
ATOM     36  C   UNL     1      -0.872  -3.101   1.792  0.00  0.00    +0.031 C 
ATOM     37  C   UNL     1       0.270  -2.150   1.371  0.00  0.00    +0.160 C 
ATOM     38  O   UNL     1      -0.295  -0.845   1.203  0.00  0.00    -0.375 OA
ENDBRANCH  33  34
ENDBRANCH  32  33
ENDBRANCH   1  28
TORSDOF 8
