REMARK  Name = ZINC40155638
REMARK  7 active torsions:
REMARK  status: ('A' for Active; 'I' for Inactive)
REMARK    1  A    between atoms: C_1  and  N_2
REMARK    2  A    between atoms: C_5  and  C_13
REMARK    3  A    between atoms: C_6  and  N_12
REMARK    4  A    between atoms: N_14  and  O_15
REMARK    5  A    between atoms: O_15  and  C_16
REMARK    6  A    between atoms: C_16  and  C_17
REMARK    7  A    between atoms: C_20  and  C_22
REMARK                            x       y       z     vdW  Elec       q    Type
REMARK                         _______ _______ _______ _____ _____    ______ ____
ROOT
ATOM      1  C   UNL     1       0.048  -3.372  -1.588  0.00  0.00    +0.169 C 
ATOM      2  N   UNL     1      -0.058  -3.194  -2.875  0.00  0.00    -0.068 NA
ATOM      3  N   UNL     1       0.174  -4.651  -1.074  0.00  0.00    -0.340 N 
ATOM      4  H   UNL     1       0.179  -4.790  -0.114  0.00  0.00    +0.144 HD
ATOM      5  H   UNL     1       0.257  -5.409  -1.674  0.00  0.00    +0.144 HD
ENDROOT
BRANCH   1  10
ATOM      6  C   UNL     1       0.015  -0.695   2.733  0.00  0.00    +0.133 C 
ATOM      7  N   UNL     1       0.019  -1.034   1.308  0.00  0.00    -0.289 N 
ATOM      8  C   UNL     1       0.035  -2.277   0.784  0.00  0.00    +0.252 C 
ATOM      9  O   UNL     1       0.048  -3.306   1.433  0.00  0.00    -0.270 OA
ATOM     10  C   UNL     1       0.033  -2.210  -0.679  0.00  0.00    +0.098 C 
ATOM     11  C   UNL     1       0.017  -0.897  -1.069  0.00  0.00    +0.041 C 
ATOM     12  C   UNL     1       0.001  -0.091   0.198  0.00  0.00    +0.076 C 
ATOM     13  C   UNL     1      -1.227   0.834   0.261  0.00  0.00    +0.032 C 
ATOM     14  C   UNL     1      -0.802   1.958   1.232  0.00  0.00    +0.003 C 
ATOM     15  C   UNL     1       0.737   1.984   1.230  0.00  0.00    +0.003 C 
ATOM     16  C   UNL     1       1.197   0.876   0.258  0.00  0.00    +0.032 C 
BRANCH  11  17
ATOM     17  N   UNL     1       0.010  -0.422  -2.343  0.00  0.00    -0.359 N 
ATOM     18  H   UNL     1      -0.057  -1.037  -3.090  0.00  0.00    +0.142 HD
ATOM     19  H   UNL     1       0.073   0.532  -2.505  0.00  0.00    +0.142 HD
ENDBRANCH  11  17
ENDBRANCH   1  10
BRANCH   2  20
ATOM     20  O   UNL     1      -0.045  -4.309  -3.747  0.00  0.00    -0.386 OA
BRANCH  20  21
ATOM     21  C   UNL     1      -0.169  -3.967  -5.129  0.00  0.00    +0.321 C 
BRANCH  21  22
ATOM     22  C   UNL     1      -0.143  -5.223  -5.961  0.00  0.00    +0.120 A 
ATOM     23  C   UNL     1      -0.027  -6.480  -5.496  0.00  0.00    +0.224 A 
ATOM     24  O   UNL     1      -0.045  -7.305  -6.561  0.00  0.00    -0.443 OA
ATOM     25  C   UNL     1      -0.172  -6.546  -7.664  0.00  0.00    +0.227 A 
ATOM     26  N   UNL     1      -0.236  -5.287  -7.298  0.00  0.00    -0.210 NA
BRANCH  25  27
ATOM     27  C   UNL     1      -0.234  -7.046  -9.053  0.00  0.00    +0.037 A 
ATOM     28  C   UNL     1      -0.360  -6.149 -10.115  0.00  0.00    +0.016 A 
ATOM     29  C   UNL     1      -0.417  -6.621 -11.410  0.00  0.00    +0.039 A 
ATOM     30  C   UNL     1      -0.349  -7.983 -11.657  0.00  0.00    +0.123 A 
ATOM     31  C   UNL     1      -0.224  -8.878 -10.607  0.00  0.00    +0.039 A 
ATOM     32  C   UNL     1      -0.161  -8.416  -9.309  0.00  0.00    +0.016 A 
ATOM     33  F   UNL     1      -0.406  -8.440 -12.928  0.00  0.00    -0.205 F 
ENDBRANCH  25  27
ENDBRANCH  21  22
ENDBRANCH  20  21
ENDBRANCH   2  20
TORSDOF 6
