REMARK  Name = ZINC16811261
REMARK  8 active torsions:
REMARK  status: ('A' for Active; 'I' for Inactive)
REMARK    1  A    between atoms: C_1  and  C_2
REMARK    2  A    between atoms: C_2  and  C_4
REMARK    3  A    between atoms: C_2  and  S_18
REMARK    4  A    between atoms: C_4  and  C_6
REMARK    5  A    between atoms: C_15  and  C_17
REMARK    6  A    between atoms: S_18  and  C_19
REMARK    7  A    between atoms: N_25  and  C_26
REMARK    8  A    between atoms: C_26  and  C_27
REMARK                            x       y       z     vdW  Elec       q    Type
REMARK                         _______ _______ _______ _____ _____    ______ ____
ROOT
ATOM      1  C   UNL     1      -6.423   2.528   3.420  0.00  0.00    +0.028 C 
ATOM      2  C   UNL     1      -5.305   3.539   3.160  0.00  0.00    +0.122 C 
ENDROOT
BRANCH   2   3
ATOM      3  C   UNL     1      -5.900   4.913   2.992  0.00  0.00    +0.176 C 
ATOM      4  O   UNL     1      -6.146   5.336   1.882  0.00  0.00    -0.291 OA
BRANCH   3   5
ATOM      5  C   UNL     1      -6.182   5.741   4.172  0.00  0.00    +0.019 A 
ATOM      6  C   UNL     1      -5.906   5.256   5.456  0.00  0.00    +0.013 A 
ATOM      7  C   UNL     1      -6.163   6.027   6.550  0.00  0.00    +0.024 A 
ATOM      8  C   UNL     1      -6.716   7.306   6.407  0.00  0.00    +0.040 A 
ATOM      9  C   UNL     1      -6.996   7.787   5.134  0.00  0.00    -0.024 A 
ATOM     10  C   UNL     1      -6.735   7.019   4.022  0.00  0.00    +0.017 A 
ATOM     11  C   UNL     1      -7.579   9.176   5.263  0.00  0.00    +0.056 C 
ATOM     12  C   UNL     1      -7.603   9.444   6.777  0.00  0.00    +0.118 C 
ATOM     13  N   UNL     1      -7.052   8.233   7.391  0.00  0.00    -0.271 N 
ATOM     14  C   UNL     1      -6.893   8.044   8.716  0.00  0.00    +0.217 C 
ATOM     15  O   UNL     1      -6.514   6.971   9.133  0.00  0.00    -0.276 OA
ATOM     16  C   UNL     1      -7.188   9.166   9.678  0.00  0.00    +0.109 C 
ENDBRANCH   3   5
ENDBRANCH   2   3
BRANCH   2  17
ATOM     17  S   UNL     1      -4.414   3.079   1.653  0.00  0.00    -0.075 S 
BRANCH  17  18
ATOM     18  C   UNL     1      -3.714   1.546   2.168  0.00  0.00    +0.193 A 
ATOM     19  N   UNL     1      -3.867   0.996   3.338  0.00  0.00    -0.145 NA
ATOM     20  N   UNL     1      -3.154  -0.210   3.347  0.00  0.00    -0.226 N 
ATOM     21  H   UNL     1      -3.088  -0.833   4.089  0.00  0.00    +0.194 HD
ATOM     22  C   UNL     1      -2.580  -0.350   2.134  0.00  0.00    +0.345 A 
ATOM     23  O   UNL     1      -1.885  -1.281   1.769  0.00  0.00    -0.245 OA
ATOM     24  N   UNL     1      -2.915   0.730   1.400  0.00  0.00    -0.266 N 
BRANCH  24  25
ATOM     25  C   UNL     1      -2.503   0.988   0.018  0.00  0.00    +0.164 C 
BRANCH  25  26
ATOM     26  C   UNL     1      -1.209   1.762   0.016  0.00  0.00    -0.028 A 
ATOM     27  C   UNL     1      -0.002   1.089   0.006  0.00  0.00    +0.005 A 
ATOM     28  C   UNL     1       1.185   1.799  -0.002  0.00  0.00    +0.000 A 
ATOM     29  C   UNL     1       1.163   3.181   0.005  0.00  0.00    +0.000 A 
ATOM     30  C   UNL     1      -0.044   3.854   0.020  0.00  0.00    +0.000 A 
ATOM     31  C   UNL     1      -1.231   3.144   0.028  0.00  0.00    +0.005 A 
ENDBRANCH  25  26
ENDBRANCH  24  25
ENDBRANCH  17  18
ENDBRANCH   2  17
TORSDOF 6
