REMARK  Name = ZINC05618881
REMARK  11 active torsions:
REMARK  status: ('A' for Active; 'I' for Inactive)
REMARK    1  A    between atoms: C_1  and  C_2
REMARK    2  A    between atoms: C_2  and  O_3
REMARK    3  A    between atoms: O_3  and  C_4
REMARK    4  A    between atoms: N_6  and  C_7
REMARK    5  A    between atoms: C_13  and  O_31
REMARK    6  A    between atoms: C_14  and  O_29
REMARK    7  A    between atoms: C_15  and  O_27
REMARK    8  A    between atoms: C_22  and  S_25
REMARK    9  A    between atoms: S_25  and  C_26
REMARK   10  A    between atoms: O_27  and  C_28
REMARK   11  A    between atoms: O_29  and  C_30
REMARK                            x       y       z     vdW  Elec       q    Type
REMARK                         _______ _______ _______ _____ _____    ______ ____
ROOT
ATOM      1  C   UNL     1       3.321  -2.110   0.038  0.00  0.00    +0.107 C 
ATOM      2  C   UNL     1       3.616  -2.985   1.239  0.00  0.00    +0.032 C 
ATOM      3  C   UNL     1       2.339  -3.312   2.008  0.00  0.00    +0.038 C 
ATOM      4  C   UNL     1       1.244  -3.685   1.042  0.00  0.00    -0.032 A 
ATOM      5  C   UNL     1       0.878  -5.006   0.886  0.00  0.00    +0.053 A 
ATOM      6  C   UNL     1      -0.139  -5.346   0.004  0.00  0.00    +0.162 A 
ATOM      7  C   UNL     1      -0.794  -4.361  -0.727  0.00  0.00    +0.204 A 
ATOM      8  C   UNL     1      -0.427  -3.030  -0.580  0.00  0.00    +0.173 A 
ATOM      9  C   UNL     1       0.601  -2.694   0.307  0.00  0.00    +0.031 A 
ATOM     10  C   UNL     1       1.006  -1.264   0.460  0.00  0.00    -0.009 A 
ATOM     11  C   UNL     1       2.369  -0.984   0.388  0.00  0.00    -0.016 A 
ATOM     12  C   UNL     1       2.927   0.223   0.603  0.00  0.00    +0.058 A 
ATOM     13  C   UNL     1       2.404   1.447   0.899  0.00  0.00    +0.193 A 
ATOM     14  O   UNL     1       3.219   2.341   1.089  0.00  0.00    -0.287 OA
ATOM     15  C   UNL     1       1.065   1.815   1.014  0.00  0.00    +0.054 A 
ATOM     16  C   UNL     1       0.001   0.969   0.902  0.00  0.00    +0.019 A 
ATOM     17  C   UNL     1       0.000  -0.356   0.673  0.00  0.00    +0.010 A 
ENDROOT
BRANCH   1  20
ATOM     18  C   UNL     1       4.695  -1.201  -1.757  0.00  0.00    +0.401 C 
ATOM     19  O   UNL     1       3.761  -1.369  -2.517  0.00  0.00    -0.226 OA
ATOM     20  N   UNL     1       4.575  -1.539  -0.458  0.00  0.00    -0.274 N 
ATOM     21  H   UNL     1       5.320  -1.404   0.149  0.00  0.00    +0.153 HD
BRANCH  18  22
ATOM     22  O   UNL     1       5.848  -0.676  -2.213  0.00  0.00    -0.451 OA
BRANCH  22  24
ATOM     23  C   UNL     1       7.282   0.243  -3.953  0.00  0.00    +0.048 C 
ATOM     24  C   UNL     1       5.905  -0.336  -3.623  0.00  0.00    +0.230 C 
ENDBRANCH  22  24
ENDBRANCH  18  22
ENDBRANCH   1  20
BRANCH  15  25
ATOM     25  S   UNL     1       0.717   3.513   1.330  0.00  0.00    -0.125 S 
ATOM     26  C   UNL     1      -1.091   3.458   1.386  0.00  0.00    +0.090 C 
ENDBRANCH  15  25
BRANCH   8  27
ATOM     27  O   UNL     1      -1.061  -2.061  -1.291  0.00  0.00    -0.491 OA
ATOM     28  C   UNL     1      -0.578  -1.803  -2.611  0.00  0.00    +0.277 C 
ENDBRANCH   8  27
BRANCH   7  29
ATOM     29  O   UNL     1      -1.793  -4.701  -1.587  0.00  0.00    -0.488 OA
ATOM     30  C   UNL     1      -3.122  -4.716  -1.063  0.00  0.00    +0.277 C 
ENDBRANCH   7  29
BRANCH   6  31
ATOM     31  O   UNL     1      -0.497  -6.649  -0.146  0.00  0.00    -0.503 OA
ATOM     32  H   UNL     1      -1.193  -6.938   0.460  0.00  0.00    +0.292 HD
ENDBRANCH   6  31
TORSDOF 7
