REMARK  Name = ZINC63624909
REMARK  7 active torsions:
REMARK  status: ('A' for Active; 'I' for Inactive)
REMARK    1  A    between atoms: C_6  and  S_10
REMARK    2  A    between atoms: S_10  and  C_11
REMARK    3  A    between atoms: C_14  and  C_16
REMARK    4  A    between atoms: N_17  and  N_18
REMARK    5  A    between atoms: C_19  and  C_21
REMARK    6  A    between atoms: C_21  and  O_22
REMARK    7  A    between atoms: O_22  and  C_23
REMARK                            x       y       z     vdW  Elec       q    Type
REMARK                         _______ _______ _______ _____ _____    ______ ____
ROOT
ATOM      1  C   UNL     1       2.879  -1.885  -2.748  0.00  0.00    +0.166 A 
ATOM      2  C   UNL     1       2.896  -2.096  -4.093  0.00  0.00    +0.057 A 
ATOM      3  C   UNL     1       2.189  -1.038  -4.684  0.00  0.00    +0.052 A 
ATOM      4  C   UNL     1       1.770  -0.225  -3.669  0.00  0.00    +0.149 A 
ATOM      5  O   UNL     1       2.192  -0.757  -2.501  0.00  0.00    -0.448 OA
ENDROOT
BRANCH   4   6
ATOM      6  C   UNL     1       0.994   1.005  -3.820  0.00  0.00    +0.176 C 
ATOM      7  N   UNL     1       0.738   1.746  -2.779  0.00  0.00    -0.185 NA
BRANCH   7   8
ATOM      8  N   UNL     1       0.086   2.975  -2.938  0.00  0.00    -0.204 N 
ATOM      9  C   UNL     1      -0.089   3.787  -1.876  0.00  0.00    +0.270 C 
ATOM     10  O   UNL     1       0.397   3.496  -0.803  0.00  0.00    -0.270 OA
ATOM     11  H   UNL     1      -0.240   3.243  -3.811  0.00  0.00    +0.177 HD
BRANCH   9  12
ATOM     12  C   UNL     1      -0.889   5.056  -2.022  0.00  0.00    +0.326 C 
BRANCH  12  13
ATOM     13  O   UNL     1      -0.931   5.740  -0.767  0.00  0.00    -0.481 OA
BRANCH  13  14
ATOM     14  C   UNL     1      -1.618   6.912  -0.726  0.00  0.00    +0.142 A 
ATOM     15  C   UNL     1      -2.243   7.391  -1.867  0.00  0.00    +0.067 A 
ATOM     16  C   UNL     1      -2.941   8.584  -1.823  0.00  0.00    +0.046 A 
ATOM     17  C   UNL     1      -3.017   9.300  -0.641  0.00  0.00    +0.041 A 
ATOM     18  C   UNL     1      -2.394   8.824   0.499  0.00  0.00    +0.064 A 
ATOM     19  C   UNL     1      -1.699   7.628   0.461  0.00  0.00    +0.101 A 
ATOM     20 CL   UNL     1      -0.924   7.027   1.893  0.00  0.00    -0.078 Cl
ATOM     21 CL   UNL     1      -2.490   9.725   1.980  0.00  0.00    -0.082 Cl
ATOM     22 CL   UNL     1      -3.724   9.184  -3.252  0.00  0.00    -0.083 Cl
ENDBRANCH  13  14
ENDBRANCH  12  13
ENDBRANCH   9  12
ENDBRANCH   7   8
ENDBRANCH   4   6
BRANCH   1  23
ATOM     23  S   UNL     1       3.626  -2.922  -1.536  0.00  0.00    -0.042 S 
BRANCH  23  29
ATOM     24  C   UNL     1       6.658   1.769  -3.167  0.00  0.00    +0.002 A 
ATOM     25  C   UNL     1       7.242   0.866  -4.074  0.00  0.00    +0.002 A 
ATOM     26  C   UNL     1       7.118  -0.471  -3.950  0.00  0.00    +0.027 A 
ATOM     27  C   UNL     1       6.347  -1.026  -2.829  0.00  0.00    +0.061 A 
ATOM     28  N   UNL     1       6.065  -2.244  -2.466  0.00  0.00    -0.355 N 
ATOM     29  C   UNL     1       5.249  -2.163  -1.248  0.00  0.00    +0.243 C 
ATOM     30  N   UNL     1       5.091  -0.735  -0.950  0.00  0.00    -0.355 N 
ATOM     31  C   UNL     1       5.730  -0.070  -1.869  0.00  0.00    +0.061 A 
ATOM     32  C   UNL     1       5.932   1.366  -2.106  0.00  0.00    +0.027 A 
ATOM     33  H   UNL     1       6.344  -3.056  -2.917  0.00  0.00    +0.162 HD
ATOM     34  H   UNL     1       4.600  -0.355  -0.204  0.00  0.00    +0.162 HD
ENDBRANCH  23  29
ENDBRANCH   1  23
TORSDOF 7
