REMARK  Name = ZINC24023126
REMARK  14 active torsions:
REMARK  status: ('A' for Active; 'I' for Inactive)
REMARK    1  A    between atoms: C_1  and  C_2
REMARK    2  A    between atoms: C_2  and  C_4
REMARK    3  A    between atoms: C_2  and  O_25
REMARK    4  A    between atoms: N_6  and  C_7
REMARK    5  A    between atoms: N_6  and  C_11
REMARK    6  A    between atoms: C_7  and  C_8
REMARK    7  A    between atoms: C_8  and  C_9
REMARK    8  A    between atoms: C_8  and  C_10
REMARK    9  A    between atoms: C_12  and  N_24
REMARK   10  A    between atoms: N_13  and  C_20
REMARK   11  A    between atoms: C_20  and  C_21
REMARK   12  A    between atoms: C_21  and  C_22
REMARK   13  A    between atoms: C_21  and  C_23
REMARK   14  A    between atoms: O_25  and  C_26
REMARK                            x       y       z     vdW  Elec       q    Type
REMARK                         _______ _______ _______ _____ _____    ______ ____
ROOT
ATOM      1  C   UNL     1      -1.139  -1.027  -0.038  0.00  0.00    +0.260 C 
ATOM      2  O   UNL     1       0.057  -0.840  -0.124  0.00  0.00    -0.271 OA
ATOM      3  N   UNL     1      -1.984  -0.392  -0.878  0.00  0.00    -0.261 N 
ENDROOT
BRANCH   3   4
ATOM      4  C   UNL     1      -3.364  -0.682  -0.842  0.00  0.00    +0.140 A 
ATOM      5  C   UNL     1      -4.178  -0.102   0.110  0.00  0.00    +0.127 A 
ATOM      6  N   UNL     1      -5.520  -0.404   0.118  0.00  0.00    -0.280 N 
ATOM      7  C   UNL     1      -6.033  -1.254  -0.790  0.00  0.00    +0.331 A 
ATOM      8  O   UNL     1      -7.222  -1.508  -0.765  0.00  0.00    -0.246 OA
ATOM      9  N   UNL     1      -5.255  -1.827  -1.725  0.00  0.00    -0.273 N 
ATOM     10  H   UNL     1      -5.649  -2.436  -2.369  0.00  0.00    +0.173 HD
ATOM     11  C   UNL     1      -3.935  -1.562  -1.780  0.00  0.00    +0.277 A 
ATOM     12  O   UNL     1      -3.240  -2.084  -2.635  0.00  0.00    -0.266 OA
BRANCH   5  13
ATOM     13  N   UNL     1      -3.655   0.765   1.038  0.00  0.00    -0.343 N 
ATOM     14  H   UNL     1      -2.730   1.049   0.969  0.00  0.00    +0.144 HD
ATOM     15  H   UNL     1      -4.210   1.094   1.762  0.00  0.00    +0.144 HD
ENDBRANCH   5  13
BRANCH   6  16
ATOM     16  C   UNL     1      -6.396   0.203   1.123  0.00  0.00    +0.131 C 
BRANCH  16  17
ATOM     17  C   UNL     1      -6.956   1.521   0.583  0.00  0.00    +0.003 C 
ATOM     18  C   UNL     1      -7.966   2.092   1.579  0.00  0.00    +0.009 C 
ATOM     19  C   UNL     1      -5.813   2.518   0.387  0.00  0.00    +0.009 C 
ENDBRANCH  16  17
ENDBRANCH   6  16
ENDBRANCH   3   4
BRANCH   1  21
ATOM     20  C   UNL     1      -2.151  -3.260   0.334  0.00  0.00    +0.062 C 
ATOM     21  C   UNL     1      -1.681  -1.968   1.006  0.00  0.00    +0.256 C 
BRANCH  21  22
ATOM     22  O   UNL     1      -0.655  -2.271   1.954  0.00  0.00    -0.480 OA
BRANCH  22  23
ATOM     23  C   UNL     1      -1.054  -2.649   3.196  0.00  0.00    +0.122 A 
ATOM     24  C   UNL     1      -0.114  -2.864   4.193  0.00  0.00    +0.047 A 
ATOM     25  C   UNL     1      -0.522  -3.248   5.456  0.00  0.00    +0.019 A 
ATOM     26  C   UNL     1      -1.868  -3.418   5.727  0.00  0.00    +0.018 A 
ATOM     27  C   UNL     1      -2.807  -3.204   4.734  0.00  0.00    +0.019 A 
ATOM     28  C   UNL     1      -2.404  -2.814   3.472  0.00  0.00    +0.047 A 
ATOM     29 BR   UNL     1      -2.423  -3.944   7.456  0.00  0.00    -0.050 Br
ENDBRANCH  22  23
ENDBRANCH  21  22
ENDBRANCH   1  21
BRANCH   3  30
ATOM     30  C   UNL     1      -1.467   0.598  -1.826  0.00  0.00    +0.117 C 
BRANCH  30  31
ATOM     31  C   UNL     1      -1.226  -0.071  -3.181  0.00  0.00    +0.001 C 
ATOM     32  C   UNL     1      -0.805   0.986  -4.204  0.00  0.00    +0.009 C 
ATOM     33  C   UNL     1      -0.118  -1.117  -3.043  0.00  0.00    +0.009 C 
ENDBRANCH  30  31
ENDBRANCH   3  30
TORSDOF 9
