REMARK  Name = ZINC39676423
REMARK  5 active torsions:
REMARK  status: ('A' for Active; 'I' for Inactive)
REMARK    1  A    between atoms: C_6  and  C_11
REMARK    2  A    between atoms: C_11  and  C_12
REMARK    3  A    between atoms: C_12  and  N_13
REMARK    4  A    between atoms: C_14  and  C_16
REMARK    5  A    between atoms: C_27  and  C_29
REMARK                            x       y       z     vdW  Elec       q    Type
REMARK                         _______ _______ _______ _____ _____    ______ ____
ROOT
ATOM      1  C   UNL     1      -9.038   0.162  -2.510  0.00  0.00    +0.100 C 
ATOM      2  C   UNL     1      -9.367   1.387  -1.628  0.00  0.00    +0.121 C 
ATOM      3  N   UNL     1      -9.436   2.524  -2.576  0.00  0.00    -0.300 N 
ATOM      4  C   UNL     1     -10.111   1.965  -3.772  0.00  0.00    +0.115 C 
ATOM      5  C   UNL     1      -9.531   0.544  -3.916  0.00  0.00    -0.004 C 
ATOM      6  C   UNL     1     -10.616  -0.425  -4.377  0.00  0.00    -0.010 C 
ATOM      7  C   UNL     1     -11.049  -0.060  -5.800  0.00  0.00    -0.082 C 
ATOM      8  N   UNL     1      -9.890  -0.128  -6.698  0.00  0.00    +0.379 N 
ATOM      9  C   UNL     1      -8.891   0.872  -6.303  0.00  0.00    -0.082 C 
ATOM     10  C   UNL     1      -8.367   0.547  -4.902  0.00  0.00    -0.010 C 
ATOM     11  C   UNL     1      -8.988   3.781  -2.393  0.00  0.00    +0.219 C 
ATOM     12  O   UNL     1      -9.119   4.607  -3.271  0.00  0.00    -0.275 OA
ATOM     13  H   UNL     1      -9.481  -1.049  -6.648  0.00  0.00    -0.086 HD
ATOM     14  H   UNL     1     -10.189   0.053  -7.645  0.00  0.00    -0.086 HD
ENDROOT
BRANCH   1  16
ATOM     15  N   UNL     1      -7.083  -1.339  -2.716  0.00  0.00    -0.315 N 
ATOM     16  C   UNL     1      -7.553  -0.090  -2.526  0.00  0.00    +0.218 C 
ATOM     17  O   UNL     1      -6.780   0.831  -2.367  0.00  0.00    -0.275 OA
ATOM     18  H   UNL     1      -7.701  -2.075  -2.843  0.00  0.00    +0.149 HD
BRANCH  15  19
ATOM     19  C   UNL     1      -5.638  -1.583  -2.731  0.00  0.00    +0.109 C 
BRANCH  19  20
ATOM     20  C   UNL     1      -5.376  -3.073  -2.963  0.00  0.00    +0.056 C 
BRANCH  20  26
ATOM     21  C   UNL     1      -0.934  -4.034  -0.078  0.00  0.00    +0.022 A 
ATOM     22  C   UNL     1      -0.687  -3.979  -1.432  0.00  0.00    +0.027 A 
ATOM     23  C   UNL     1      -1.733  -3.739  -2.317  0.00  0.00    +0.047 A 
ATOM     24  N   UNL     1      -1.809  -3.627  -3.687  0.00  0.00    -0.360 N 
ATOM     25  C   UNL     1      -3.101  -3.381  -4.063  0.00  0.00    +0.087 A 
ATOM     26  C   UNL     1      -3.890  -3.324  -2.978  0.00  0.00    -0.021 A 
ATOM     27  C   UNL     1      -3.033  -3.554  -1.813  0.00  0.00    +0.004 A 
ATOM     28  C   UNL     1      -3.262  -3.613  -0.436  0.00  0.00    +0.030 A 
ATOM     29  C   UNL     1      -2.221  -3.857   0.415  0.00  0.00    +0.042 A 
ATOM     30 CL   UNL     1      -2.506  -3.931   2.126  0.00  0.00    -0.084 Cl
ATOM     31  H   UNL     1      -1.058  -3.711  -4.295  0.00  0.00    +0.165 HD
ENDBRANCH  20  26
ENDBRANCH  19  20
ENDBRANCH  15  19
ENDBRANCH   1  16
BRANCH  11  32
ATOM     32  C   UNL     1      -8.322   4.162  -1.095  0.00  0.00    +0.075 C 
ATOM     33  C   UNL     1      -9.314   4.512   0.027  0.00  0.00    +0.013 C 
ATOM     34  C   UNL     1      -8.353   5.647   0.416  0.00  0.00    +0.001 C 
ATOM     35  C   UNL     1      -7.868   5.630  -1.043  0.00  0.00    +0.013 C 
ENDBRANCH  11  32
TORSDOF 5
