REMARK  Name = ZINC63513889
REMARK  9 active torsions:
REMARK  status: ('A' for Active; 'I' for Inactive)
REMARK    1  A    between atoms: C_1  and  C_2
REMARK    2  A    between atoms: C_4  and  C_12
REMARK    3  A    between atoms: C_12  and  C_13
REMARK    4  A    between atoms: C_13  and  N_14
REMARK    5  A    between atoms: C_15  and  C_17
REMARK    6  A    between atoms: C_17  and  N_28
REMARK    7  A    between atoms: C_18  and  C_19
REMARK    8  A    between atoms: C_23  and  N_25
REMARK    9  A    between atoms: C_29  and  C_31
REMARK                            x       y       z     vdW  Elec       q    Type
REMARK                         _______ _______ _______ _____ _____    ______ ____
ROOT
ATOM      1  C   UNL     1      -7.114  -1.417  -2.471  0.00  0.00    +0.097 C 
ATOM      2  C   UNL     1      -8.377  -1.668  -2.056  0.00  0.00    +0.036 C 
ENDROOT
BRANCH   2   3
ATOM      3  C   UNL     1      -9.516  -1.355  -2.932  0.00  0.00    -0.021 A 
ATOM      4  C   UNL     1      -9.322  -1.198  -4.309  0.00  0.00    +0.008 A 
ATOM      5  C   UNL     1     -10.394  -0.905  -5.124  0.00  0.00    +0.003 A 
ATOM      6  C   UNL     1     -11.661  -0.765  -4.583  0.00  0.00    +0.033 A 
ATOM      7  C   UNL     1     -11.861  -0.918  -3.223  0.00  0.00    +0.127 A 
ATOM      8  C   UNL     1     -10.800  -1.217  -2.395  0.00  0.00    +0.040 A 
BRANCH   7   9
ATOM      9  N   UNL     1     -13.220  -0.765  -2.655  0.00  0.00    +0.056 N 
ATOM     10  O   UNL     1     -14.152  -0.507  -3.380  0.00  0.00    -0.126 OA
ATOM     11  O   UNL     1     -13.397  -0.898  -1.466  0.00  0.00    -0.126 OA
ENDBRANCH   7   9
ENDBRANCH   2   3
BRANCH   1  13
ATOM     12  N   UNL     1      -4.713  -1.619  -2.079  0.00  0.00    -0.310 N 
ATOM     13  C   UNL     1      -5.971  -1.870  -1.665  0.00  0.00    +0.258 C 
ATOM     14  O   UNL     1      -6.160  -2.471  -0.625  0.00  0.00    -0.269 OA
ATOM     15  H   UNL     1      -4.562  -1.140  -2.909  0.00  0.00    +0.149 HD
BRANCH  12  16
ATOM     16  C   UNL     1      -3.574  -2.071  -1.276  0.00  0.00    +0.109 C 
BRANCH  16  17
ATOM     17  C   UNL     1      -2.270  -1.662  -1.965  0.00  0.00    +0.052 C 
BRANCH  17  20
ATOM     18  C   UNL     1       0.699  -0.440  -1.522  0.00  0.00    +0.035 C 
ATOM     19  C   UNL     1       0.368  -1.932  -1.452  0.00  0.00    +0.103 C 
ATOM     20  C   UNL     1      -1.099  -2.127  -1.139  0.00  0.00    -0.037 C 
ATOM     21  C   UNL     1      -1.146  -2.802   0.032  0.00  0.00    -0.001 A 
ATOM     22  C   UNL     1      -2.260  -3.287   0.856  0.00  0.00    +0.010 A 
ATOM     23  C   UNL     1      -1.988  -3.946   2.005  0.00  0.00    +0.001 A 
ATOM     24  C   UNL     1      -0.671  -4.177   2.428  0.00  0.00    +0.002 A 
ATOM     25  C   UNL     1       0.404  -3.762   1.725  0.00  0.00    +0.026 A 
ATOM     26  C   UNL     1       0.235  -3.058   0.501  0.00  0.00    +0.043 A 
ATOM     27  N   UNL     1       1.103  -2.562  -0.349  0.00  0.00    -0.378 N 
ATOM     28  H   UNL     1       2.068  -2.603  -0.262  0.00  0.00    +0.160 HD
ENDBRANCH  17  20
ENDBRANCH  16  17
ENDBRANCH  12  16
ENDBRANCH   1  13
BRANCH   1  29
ATOM     29  N   UNL     1      -6.897  -0.726  -3.666  0.00  0.00    -0.275 N 
ATOM     30  C   UNL     1      -6.174  -1.295  -4.652  0.00  0.00    +0.284 C 
ATOM     31  O   UNL     1      -5.619  -2.361  -4.461  0.00  0.00    -0.266 OA
ATOM     32  H   UNL     1      -7.266   0.163  -3.787  0.00  0.00    +0.155 HD
BRANCH  30  33
ATOM     33  C   UNL     1      -6.055  -0.628  -5.952  0.00  0.00    +0.189 A 
ATOM     34  C   UNL     1      -5.438  -1.135  -7.060  0.00  0.00    +0.054 A 
ATOM     35  C   UNL     1      -5.563  -0.168  -8.069  0.00  0.00    +0.042 A 
ATOM     36  C   UNL     1      -6.242   0.874  -7.540  0.00  0.00    +0.196 A 
ATOM     37  O   UNL     1      -6.542   0.590  -6.266  0.00  0.00    -0.458 OA
ENDBRANCH  30  33
ENDBRANCH   1  29
TORSDOF 8
