REMARK  Name = ZINC16156156
REMARK  8 active torsions:
REMARK  status: ('A' for Active; 'I' for Inactive)
REMARK    1  A    between atoms: C_4  and  N_10
REMARK    2  A    between atoms: C_6  and  N_7
REMARK    3  A    between atoms: C_11  and  C_13
REMARK    4  A    between atoms: C_13  and  O_14
REMARK    5  A    between atoms: O_14  and  C_15
REMARK    6  A    between atoms: C_15  and  C_17
REMARK    7  A    between atoms: C_17  and  C_18
REMARK    8  A    between atoms: C_18  and  N_19
REMARK                            x       y       z     vdW  Elec       q    Type
REMARK                         _______ _______ _______ _____ _____    ______ ____
ROOT
ATOM      1  C   UNL     1       3.115  -7.164  -2.377  0.00  0.00    +0.309 C 
ATOM      2  O   UNL     1       3.777  -7.622  -1.476  0.00  0.00    -0.251 OA
ENDROOT
BRANCH   1   3
ATOM      3  O   UNL     1       3.217  -7.677  -3.613  0.00  0.00    -0.455 OA
BRANCH   3   4
ATOM      4  C   UNL     1       4.142  -8.782  -3.793  0.00  0.00    +0.328 C 
BRANCH   4   6
ATOM      5  N   UNL     1       4.907 -10.241  -5.638  0.00  0.00    -0.281 N 
ATOM      6  C   UNL     1       4.122  -9.223  -5.234  0.00  0.00    +0.255 C 
ATOM      7  O   UNL     1       3.399  -8.663  -6.030  0.00  0.00    -0.272 OA
ATOM      8  H   UNL     1       5.533 -10.647  -5.017  0.00  0.00    +0.155 HD
BRANCH   5  12
ATOM      9  C   UNL     1       4.648 -11.646  -9.553  0.00  0.00    +0.034 A 
ATOM     10  C   UNL     1       4.905 -12.529  -8.519  0.00  0.00    +0.024 A 
ATOM     11  C   UNL     1       4.992 -12.066  -7.220  0.00  0.00    +0.062 A 
ATOM     12  C   UNL     1       4.820 -10.713  -6.953  0.00  0.00    +0.054 A 
ATOM     13  C   UNL     1       4.557  -9.832  -7.992  0.00  0.00    +0.057 A 
ATOM     14  C   UNL     1       4.478 -10.300  -9.290  0.00  0.00    +0.128 A 
ATOM     15 CL   UNL     1       5.314 -13.174  -5.923  0.00  0.00    -0.082 Cl
BRANCH  14  16
ATOM     16  N   UNL     1       4.202  -9.359 -10.399  0.00  0.00    +0.056 N 
ATOM     17  O   UNL     1       4.126  -9.772 -11.543  0.00  0.00    -0.126 OA
ATOM     18  O   UNL     1       4.052  -8.173 -10.168  0.00  0.00    -0.126 OA
ENDBRANCH  14  16
ENDBRANCH   5  12
ENDBRANCH   4   6
ENDBRANCH   3   4
ENDBRANCH   1   3
BRANCH   1  19
ATOM     19  C   UNL     1       2.175  -6.016  -2.113  0.00  0.00    +0.142 C 
BRANCH  19  20
ATOM     20  C   UNL     1       2.249  -5.625  -0.636  0.00  0.00    +0.137 C 
BRANCH  20  21
ATOM     21  N   UNL     1       1.335  -4.509  -0.379  0.00  0.00    -0.298 N 
ATOM     22  C   UNL     1       0.060  -4.789  -0.017  0.00  0.00    +0.203 A 
ATOM     23  N   UNL     1      -0.834  -3.858   0.233  0.00  0.00    -0.230 NA
ATOM     24  C   UNL     1      -0.446  -2.591   0.119  0.00  0.00    +0.116 A 
ATOM     25  C   UNL     1       0.859  -2.198  -0.251  0.00  0.00    +0.076 A 
ATOM     26  C   UNL     1       1.805  -3.246  -0.514  0.00  0.00    +0.262 A 
ATOM     27  O   UNL     1       2.956  -3.013  -0.841  0.00  0.00    -0.267 OA
ATOM     28  C   UNL     1       1.101  -0.769  -0.324  0.00  0.00    -0.023 A 
ATOM     29  C   UNL     1       0.055   0.040  -0.032  0.00  0.00    -0.004 A 
ATOM     30  S   UNL     1      -1.287  -1.057   0.351  0.00  0.00    -0.073 S 
ATOM     31  C   UNL     1       0.039   1.537  -0.032  0.00  0.00    +0.043 C 
ATOM     32  C   UNL     1       1.489   2.040  -0.053  0.00  0.00    +0.005 C 
ATOM     33  C   UNL     1       2.256   1.277  -1.137  0.00  0.00    +0.005 C 
ATOM     34  C   UNL     1       2.455  -0.177  -0.707  0.00  0.00    +0.037 C 
ENDBRANCH  20  21
ENDBRANCH  19  20
ENDBRANCH   1  19
TORSDOF 8
