REMARK  Name = ZINC67458774
REMARK  4 active torsions:
REMARK  status: ('A' for Active; 'I' for Inactive)
REMARK    1  A    between atoms: C_1  and  N_2
REMARK    2  A    between atoms: C_12  and  N_29
REMARK    3  A    between atoms: C_13  and  C_27
REMARK    4  A    between atoms: C_14  and  C_15
REMARK                            x       y       z     vdW  Elec       q    Type
REMARK                         _______ _______ _______ _____ _____    ______ ____
ROOT
ATOM      1  C   UNL     1      -0.018   1.465   0.010  0.00  0.00    +0.105 C 
ATOM      2  N   UNL     1       0.002  -0.004   0.002  0.00  0.00    -0.295 NA
ATOM      3  C   UNL     1      -1.369  -0.556   0.157  0.00  0.00    +0.063 C 
ATOM      4  C   UNL     1      -1.163  -1.999   0.654  0.00  0.00    +0.021 C 
ATOM      5  C   UNL     1       0.249  -2.012   1.276  0.00  0.00    +0.025 C 
ATOM      6  C   UNL     1       0.716  -0.534   1.196  0.00  0.00    +0.089 C 
ATOM      7  C   UNL     1       0.117   0.155   2.405  0.00  0.00    +0.000 A 
ATOM      8  C   UNL     1      -1.212   0.514   2.413  0.00  0.00    +0.050 A 
ATOM      9  N   UNL     1      -1.739   1.101   3.480  0.00  0.00    -0.236 NA
ATOM     10  C   UNL     1      -1.032   1.377   4.561  0.00  0.00    +0.135 A 
ATOM     11  C   UNL     1       0.333   1.054   4.626  0.00  0.00    +0.099 A 
ATOM     12  C   UNL     1       0.924   0.420   3.512  0.00  0.00    +0.012 A 
ATOM     13  C   UNL     1      -2.101   0.280   1.204  0.00  0.00    +0.074 C 
ENDROOT
BRANCH  12  14
ATOM     14  C   UNL     1       2.357   0.047   3.518  0.00  0.00    +0.020 A 
ATOM     15  C   UNL     1       2.748  -1.295   3.465  0.00  0.00    +0.124 A 
ATOM     16  N   UNL     1       4.036  -1.587   3.473  0.00  0.00    -0.222 NA
ATOM     17  C   UNL     1       4.951  -0.630   3.529  0.00  0.00    +0.218 A 
ATOM     18  N   UNL     1       4.620   0.653   3.580  0.00  0.00    -0.222 NA
ATOM     19  C   UNL     1       3.353   1.027   3.570  0.00  0.00    +0.124 A 
ATOM     20  N   UNL     1       6.289  -0.978   3.535  0.00  0.00    -0.300 N 
ATOM     21  C   UNL     1       6.695  -2.389   3.474  0.00  0.00    +0.108 C 
ATOM     22  C   UNL     1       7.678  -2.569   2.313  0.00  0.00    +0.019 C 
ATOM     23  C   UNL     1       8.840  -1.587   2.477  0.00  0.00    +0.003 C 
ATOM     24  C   UNL     1       8.307  -0.153   2.440  0.00  0.00    +0.019 C 
ATOM     25  C   UNL     1       7.331   0.055   3.596  0.00  0.00    +0.108 C 
ENDBRANCH  12  14
BRANCH  10  26
ATOM     26  N   UNL     1      -1.643   1.989   5.641  0.00  0.00    -0.342 N 
ATOM     27  H   UNL     1      -2.586   2.214   5.602  0.00  0.00    +0.144 HD
ATOM     28  H   UNL     1      -1.129   2.194   6.438  0.00  0.00    +0.144 HD
ENDBRANCH  10  26
BRANCH  11  29
ATOM     29  C   UNL     1       1.106   1.361   5.792  0.00  0.00    +0.103 C 
ATOM     30  N   UNL     1       1.720   1.605   6.717  0.00  0.00    -0.191 NA
ENDBRANCH  11  29
TORSDOF 3
