REMARK  Name = ZINC32074759
REMARK  4 active torsions:
REMARK  status: ('A' for Active; 'I' for Inactive)
REMARK    1  A    between atoms: C_5  and  C_7
REMARK    2  A    between atoms: C_7  and  N_8
REMARK    3  A    between atoms: N_24  and  C_27
REMARK    4  A    between atoms: C_27  and  C_28
REMARK                            x       y       z     vdW  Elec       q    Type
REMARK                         _______ _______ _______ _____ _____    ______ ____
ROOT
ATOM      1  N   UNL     1       1.249  -2.679   1.358  0.00  0.00    -0.246 N 
ATOM      2  C   UNL     1       2.342  -2.895   2.102  0.00  0.00    +0.128 A 
ATOM      3  C   UNL     1       1.928  -3.364   3.323  0.00  0.00    +0.032 A 
ATOM      4  C   UNL     1       0.542  -3.420   3.310  0.00  0.00    +0.141 A 
ATOM      5  N   UNL     1       0.127  -3.003   2.137  0.00  0.00    -0.177 NA
ATOM      6  C   UNL     1       2.901  -3.733   4.408  0.00  0.00    +0.112 C 
ATOM      7  C   UNL     1       4.174  -2.905   4.247  0.00  0.00    +0.122 C 
ATOM      8  C   UNL     1       4.592  -2.827   2.804  0.00  0.00    +0.220 C 
ATOM      9  O   UNL     1       5.774  -2.854   2.534  0.00  0.00    -0.275 OA
ATOM     10  N   UNL     1       3.694  -2.728   1.802  0.00  0.00    -0.270 N 
ATOM     11  C   UNL     1       3.203  -5.197   4.390  0.00  0.00    -0.006 A 
ATOM     12  C   UNL     1       3.766  -6.004   3.425  0.00  0.00    +0.007 A 
ATOM     13  C   UNL     1       3.909  -7.352   3.734  0.00  0.00    +0.000 A 
ATOM     14  C   UNL     1       3.502  -7.857   4.952  0.00  0.00    +0.002 A 
ATOM     15  C   UNL     1       2.935  -7.053   5.928  0.00  0.00    +0.024 A 
ATOM     16  C   UNL     1       2.787  -5.697   5.631  0.00  0.00    +0.041 A 
ATOM     17  N   UNL     1       2.260  -4.680   6.407  0.00  0.00    -0.261 N 
ATOM     18  C   UNL     1       2.287  -3.490   5.769  0.00  0.00    +0.236 C 
ATOM     19  O   UNL     1       1.893  -2.429   6.204  0.00  0.00    -0.274 OA
ATOM     20  H   UNL     1       3.982  -2.546   0.894  0.00  0.00    +0.156 HD
ENDROOT
BRANCH   1  21
ATOM     21  C   UNL     1       1.229  -2.186  -0.022  0.00  0.00    +0.182 C 
BRANCH  21  26
ATOM     22  C   UNL     1       2.233  -4.956  -2.382  0.00  0.00    +0.000 A 
ATOM     23  C   UNL     1       1.005  -5.496  -2.714  0.00  0.00    +0.001 A 
ATOM     24  C   UNL     1      -0.152  -4.965  -2.175  0.00  0.00    +0.020 A 
ATOM     25  C   UNL     1      -0.080  -3.893  -1.303  0.00  0.00    +0.046 A 
ATOM     26  C   UNL     1       1.149  -3.354  -0.971  0.00  0.00    -0.008 A 
ATOM     27  C   UNL     1       2.306  -3.885  -1.511  0.00  0.00    +0.007 A 
ATOM     28 CL   UNL     1      -1.533  -3.226  -0.626  0.00  0.00    -0.083 Cl
ENDBRANCH  21  26
ENDBRANCH   1  21
BRANCH  17  29
ATOM     29  C   UNL     1       1.735  -4.871   7.761  0.00  0.00    +0.209 C 
BRANCH  29  30
ATOM     30  C   UNL     1       2.845  -4.678   8.762  0.00  0.00    +0.228 C 
ATOM     31  O   UNL     1       3.965  -4.407   8.382  0.00  0.00    -0.274 OA
ATOM     32  N   UNL     1       2.594  -4.806  10.080  0.00  0.00    -0.328 N 
ATOM     33  H   UNL     1       1.699  -5.022  10.385  0.00  0.00    +0.145 HD
ATOM     34  H   UNL     1       3.308  -4.681  10.725  0.00  0.00    +0.145 HD
ENDBRANCH  29  30
ENDBRANCH  17  29
TORSDOF 4
