REMARK  Name = ZINC39866967
REMARK  15 active torsions:
REMARK  status: ('A' for Active; 'I' for Inactive)
REMARK    1  A    between atoms: C_1  and  O_2
REMARK    2  A    between atoms: O_2  and  C_3
REMARK    3  A    between atoms: C_6  and  C_11
REMARK    4  A    between atoms: C_8  and  O_9
REMARK    5  A    between atoms: O_9  and  C_10
REMARK    6  A    between atoms: C_15  and  O_37
REMARK    7  A    between atoms: C_16  and  O_35
REMARK    8  A    between atoms: N_21  and  S_22
REMARK    9  A    between atoms: S_22  and  C_25
REMARK   10  A    between atoms: C_28  and  O_33
REMARK   11  A    between atoms: C_29  and  O_31
REMARK   12  A    between atoms: O_31  and  C_32
REMARK   13  A    between atoms: O_33  and  C_34
REMARK   14  A    between atoms: O_35  and  C_36
REMARK   15  A    between atoms: O_37  and  C_38
REMARK                            x       y       z     vdW  Elec       q    Type
REMARK                         _______ _______ _______ _____ _____    ______ ____
ROOT
ATOM      1  C   UNL     1      -4.935  -2.737   0.132  0.00  0.00    +0.140 C 
ATOM      2  C   UNL     1      -5.446  -2.667  -1.285  0.00  0.00    -0.017 A 
ATOM      3  C   UNL     1      -4.598  -3.095  -2.299  0.00  0.00    +0.055 A 
ATOM      4  C   UNL     1      -5.011  -3.066  -3.619  0.00  0.00    +0.162 A 
ATOM      5  C   UNL     1      -6.287  -2.606  -3.929  0.00  0.00    +0.162 A 
ATOM      6  C   UNL     1      -7.125  -2.178  -2.917  0.00  0.00    +0.053 A 
ATOM      7  C   UNL     1      -6.705  -2.202  -1.592  0.00  0.00    -0.037 A 
ATOM      8  C   UNL     1      -7.665  -1.694  -0.548  0.00  0.00    +0.052 C 
ATOM      9  C   UNL     1      -7.286  -2.213   0.838  0.00  0.00    +0.115 C 
ATOM     10  N   UNL     1      -5.841  -2.001   1.020  0.00  0.00    -0.165 NA
ENDROOT
BRANCH   1  14
ATOM     11  C   UNL     1      -1.034  -0.993   0.322  0.00  0.00    +0.162 A 
ATOM     12  C   UNL     1      -2.078  -0.301  -0.272  0.00  0.00    +0.050 A 
ATOM     13  C   UNL     1      -3.337  -0.868  -0.332  0.00  0.00    +0.009 A 
ATOM     14  C   UNL     1      -3.560  -2.124   0.200  0.00  0.00    -0.021 A 
ATOM     15  C   UNL     1      -2.523  -2.820   0.793  0.00  0.00    +0.055 A 
ATOM     16  C   UNL     1      -1.257  -2.261   0.851  0.00  0.00    +0.162 A 
BRANCH  11  18
ATOM     17  C   UNL     1       0.360   0.866  -0.183  0.00  0.00    +0.277 C 
ATOM     18  O   UNL     1       0.205  -0.438   0.381  0.00  0.00    -0.491 OA
ENDBRANCH  11  18
BRANCH  16  19
ATOM     19  O   UNL     1      -0.235  -2.947   1.429  0.00  0.00    -0.491 OA
ATOM     20  C   UNL     1      -0.536  -4.242   1.952  0.00  0.00    +0.277 C 
ENDBRANCH  16  19
ENDBRANCH   1  14
BRANCH  10  21
ATOM     21  S   UNL     1      -5.262  -0.974   2.183  0.00  0.00    +0.062 S 
ATOM     22  O   UNL     1      -3.853  -0.910   2.003  0.00  0.00    -0.153 OA
ATOM     23  O   UNL     1      -6.087   0.182   2.151  0.00  0.00    -0.153 OA
BRANCH  21  24
ATOM     24  C   UNL     1      -5.536  -1.745   3.743  0.00  0.00    +0.109 A 
ATOM     25  C   UNL     1      -6.752  -1.594   4.383  0.00  0.00    +0.032 A 
ATOM     26  C   UNL     1      -6.972  -2.197   5.607  0.00  0.00    +0.051 A 
ATOM     27  C   UNL     1      -5.973  -2.956   6.195  0.00  0.00    +0.162 A 
ATOM     28  C   UNL     1      -4.749  -3.109   5.551  0.00  0.00    +0.163 A 
ATOM     29  C   UNL     1      -4.537  -2.506   4.322  0.00  0.00    +0.078 A 
BRANCH  28  30
ATOM     30  O   UNL     1      -3.766  -3.853   6.124  0.00  0.00    -0.491 OA
ATOM     31  C   UNL     1      -2.536  -3.966   5.405  0.00  0.00    +0.277 C 
ENDBRANCH  28  30
BRANCH  27  32
ATOM     32  O   UNL     1      -6.188  -3.550   7.400  0.00  0.00    -0.491 OA
ATOM     33  C   UNL     1      -7.468  -3.349   8.003  0.00  0.00    +0.277 C 
ENDBRANCH  27  32
ENDBRANCH  21  24
ENDBRANCH  10  21
BRANCH   5  34
ATOM     34  O   UNL     1      -6.707  -2.577  -5.222  0.00  0.00    -0.491 OA
ATOM     35  C   UNL     1      -8.029  -2.092  -5.464  0.00  0.00    +0.277 C 
ENDBRANCH   5  34
BRANCH   4  36
ATOM     36  O   UNL     1      -4.175  -3.485  -4.606  0.00  0.00    -0.491 OA
ATOM     37  C   UNL     1      -2.881  -3.943  -4.210  0.00  0.00    +0.277 C 
ENDBRANCH   4  36
TORSDOF 9
