REMARK  Name = ZINC02679222
REMARK  6 active torsions:
REMARK  status: ('A' for Active; 'I' for Inactive)
REMARK    1  A    between atoms: C_1  and  C_2
REMARK    2  A    between atoms: C_9  and  N_13
REMARK    3  A    between atoms: C_10  and  C_11
REMARK    4  A    between atoms: C_14  and  C_16
REMARK    5  A    between atoms: C_19  and  O_22
REMARK    6  A    between atoms: O_22  and  C_23
REMARK                            x       y       z     vdW  Elec       q    Type
REMARK                         _______ _______ _______ _____ _____    ______ ____
ROOT
ATOM      1  N   UNL     1      -2.303  -5.917   0.763  0.00  0.00    -0.275 N 
ATOM      2  C   UNL     1      -3.567  -6.206   0.397  0.00  0.00    +0.249 C 
ATOM      3  O   UNL     1      -4.298  -5.324  -0.013  0.00  0.00    -0.270 OA
ATOM      4  H   UNL     1      -1.720  -6.620   1.090  0.00  0.00    +0.156 HD
ENDROOT
BRANCH   1  12
ATOM      5  C   UNL     1      -0.019   1.526   0.010  0.00  0.00    +0.008 C 
ATOM      6  C   UNL     1       0.002  -0.004   0.002  0.00  0.00    -0.009 C 
ATOM      7  C   UNL     1       0.742  -0.514   1.242  0.00  0.00    +0.008 C 
ATOM      8  C   UNL     1       0.985  -2.020   1.120  0.00  0.00    +0.037 C 
ATOM      9  C   UNL     1      -0.340  -2.706   0.809  0.00  0.00    -0.018 A 
ATOM     10  C   UNL     1      -1.390  -2.006   0.327  0.00  0.00    -0.004 A 
ATOM     11  S   UNL     1      -2.678  -3.204   0.125  0.00  0.00    -0.077 S 
ATOM     12  C   UNL     1      -1.835  -4.615   0.673  0.00  0.00    +0.090 A 
ATOM     13  C   UNL     1      -0.578  -4.126   0.999  0.00  0.00    +0.084 A 
ATOM     14  C   UNL     1      -1.437  -0.538   0.030  0.00  0.00    +0.046 C 
BRANCH  13  15
ATOM     15  C   UNL     1       0.447  -4.990   1.503  0.00  0.00    +0.102 C 
ATOM     16  N   UNL     1       1.259  -5.676   1.903  0.00  0.00    -0.191 NA
ENDBRANCH  13  15
ENDBRANCH   1  12
BRANCH   2  17
ATOM     17  C   UNL     1      -4.065  -7.591   0.493  0.00  0.00    +0.037 A 
ATOM     18  C   UNL     1      -3.226  -8.607   0.958  0.00  0.00    +0.016 A 
ATOM     19  C   UNL     1      -3.696  -9.898   1.051  0.00  0.00    +0.046 A 
ATOM     20  C   UNL     1      -5.000 -10.193   0.673  0.00  0.00    +0.127 A 
ATOM     21  C   UNL     1      -5.837  -9.187   0.204  0.00  0.00    +0.046 A 
ATOM     22  C   UNL     1      -5.376  -7.893   0.113  0.00  0.00    +0.016 A 
BRANCH  20  23
ATOM     23  O   UNL     1      -5.459 -11.468   0.761  0.00  0.00    -0.434 OA
BRANCH  23  24
ATOM     24  C   UNL     1      -4.546 -12.453   1.251  0.00  0.00    +0.541 C 
ATOM     25  F   UNL     1      -3.429 -12.512   0.411  0.00  0.00    -0.166 F 
ATOM     26  F   UNL     1      -4.139 -12.109   2.545  0.00  0.00    -0.166 F 
ENDBRANCH  23  24
ENDBRANCH  20  23
ENDBRANCH   2  17
TORSDOF 5
