REMARK  Name = ZINC37543484
REMARK  6 active torsions:
REMARK  status: ('A' for Active; 'I' for Inactive)
REMARK    1  A    between atoms: C_1  and  C_2
REMARK    2  A    between atoms: C_7  and  C_8
REMARK    3  A    between atoms: C_8  and  O_9
REMARK    4  A    between atoms: O_9  and  C_10
REMARK    5  A    between atoms: C_13  and  S_17
REMARK    6  A    between atoms: S_17  and  N_20
REMARK                            x       y       z     vdW  Elec       q    Type
REMARK                         _______ _______ _______ _____ _____    ______ ____
ROOT
ATOM      1  C   UNL     1       0.053  -0.377   4.844  0.00  0.00    +0.158 A 
ATOM      2  C   UNL     1       1.257  -0.093   5.475  0.00  0.00    +0.086 A 
ATOM      3  C   UNL     1       1.259   0.429   6.755  0.00  0.00    +0.052 A 
ATOM      4  C   UNL     1       0.063   0.667   7.408  0.00  0.00    +0.108 A 
ATOM      5  C   UNL     1      -1.137   0.386   6.782  0.00  0.00    +0.052 A 
ATOM      6  C   UNL     1      -1.145  -0.131   5.500  0.00  0.00    +0.086 A 
ATOM      7 CL   UNL     1      -2.653  -0.477   4.712  0.00  0.00    -0.080 Cl
ATOM      8 CL   UNL     1       2.758  -0.393   4.656  0.00  0.00    -0.080 Cl
ENDROOT
BRANCH   4   9
ATOM      9  S   UNL     1       0.070   1.331   9.040  0.00  0.00    +0.056 S 
ATOM     10  O   UNL     1      -1.162   0.952   9.637  0.00  0.00    -0.153 OA
ATOM     11  O   UNL     1       1.328   0.997   9.610  0.00  0.00    -0.153 OA
BRANCH   9  12
ATOM     12  N   UNL     1       0.039   2.981   8.897  0.00  0.00    -0.204 NA
ATOM     13  H   UNL     1      -0.383   3.519   9.585  0.00  0.00    +0.144 HD
ATOM     14  H   UNL     1       0.443   3.409   8.126  0.00  0.00    +0.144 HD
ENDBRANCH   9  12
ENDBRANCH   4   9
BRANCH   1  15
ATOM     15  O   UNL     1       0.048  -0.889   3.585  0.00  0.00    -0.484 OA
BRANCH  15  16
ATOM     16  C   UNL     1       0.025   0.045   2.504  0.00  0.00    +0.265 C 
BRANCH  16  23
ATOM     17  C   UNL     1      -0.018   1.503   0.010  0.00  0.00    +0.044 C 
ATOM     18  C   UNL     1       0.002  -0.004   0.002  0.00  0.00    -0.044 A 
ATOM     19  C   UNL     1       0.006  -0.689  -1.199  0.00  0.00    +0.004 A 
ATOM     20  C   UNL     1       0.025  -2.071  -1.207  0.00  0.00    +0.000 A 
ATOM     21  C   UNL     1       0.040  -2.768  -0.013  0.00  0.00    +0.000 A 
ATOM     22  C   UNL     1       0.037  -2.084   1.188  0.00  0.00    +0.007 A 
ATOM     23  C   UNL     1       0.023  -0.702   1.195  0.00  0.00    -0.007 A 
ENDBRANCH  16  23
ENDBRANCH  15  16
ENDBRANCH   1  15
TORSDOF 5
