REMARK  Name = ZINC00915603
REMARK  8 active torsions:
REMARK  status: ('A' for Active; 'I' for Inactive)
REMARK    1  A    between atoms: C_1  and  C_2
REMARK    2  A    between atoms: N_4  and  C_5
REMARK    3  A    between atoms: C_5  and  C_7
REMARK    4  A    between atoms: C_5  and  C_27
REMARK    5  A    between atoms: C_7  and  C_9
REMARK    6  A    between atoms: C_7  and  S_19
REMARK    7  A    between atoms: S_19  and  C_20
REMARK    8  A    between atoms: C_20  and  C_21
REMARK                            x       y       z     vdW  Elec       q    Type
REMARK                         _______ _______ _______ _____ _____    ______ ____
ROOT
ATOM      1  C   UNL     1       5.869  -2.097  -2.136  0.00  0.00    +0.108 C 
ENDROOT
BRANCH   1   2
ATOM      2  C   UNL     1       6.361  -2.752  -3.401  0.00  0.00    -0.007 A 
ATOM      3  C   UNL     1       5.604  -3.207  -4.411  0.00  0.00    +0.088 A 
ATOM      4  N   UNL     1       6.400  -3.734  -5.391  0.00  0.00    -0.360 N 
ATOM      5  H   UNL     1       6.081  -4.122  -6.221  0.00  0.00    +0.165 HD
ATOM      6  C   UNL     1       7.723  -3.636  -5.022  0.00  0.00    +0.047 A 
ATOM      7  C   UNL     1       7.757  -3.017  -3.759  0.00  0.00    +0.004 A 
ATOM      8  C   UNL     1       8.981  -2.785  -3.129  0.00  0.00    +0.010 A 
ATOM      9  C   UNL     1      10.142  -3.162  -3.743  0.00  0.00    +0.001 A 
ATOM     10  C   UNL     1      10.114  -3.773  -4.989  0.00  0.00    +0.002 A 
ATOM     11  C   UNL     1       8.917  -4.011  -5.628  0.00  0.00    +0.026 A 
ENDBRANCH   1   2
BRANCH   1  12
ATOM     12  C   UNL     1       5.739  -3.151  -1.034  0.00  0.00    +0.176 C 
BRANCH  12  16
ATOM     13  C   UNL     1       2.694  -5.304  -1.898  0.00  0.00    +0.109 C 
ATOM     14  C   UNL     1       3.558  -4.170  -1.409  0.00  0.00    +0.211 C 
ATOM     15  O   UNL     1       3.046  -3.183  -0.925  0.00  0.00    -0.276 OA
ATOM     16  N   UNL     1       4.899  -4.253  -1.509  0.00  0.00    -0.303 N 
ATOM     17  H   UNL     1       5.309  -5.043  -1.896  0.00  0.00    +0.149 HD
ENDBRANCH  12  16
BRANCH  12  18
ATOM     18  C   UNL     1       7.106  -3.678  -0.679  0.00  0.00    +0.232 C 
ATOM     19  O   UNL     1       7.487  -4.733  -1.139  0.00  0.00    -0.274 OA
ATOM     20  N   UNL     1       7.904  -2.976   0.149  0.00  0.00    -0.328 N 
ATOM     21  H   UNL     1       7.573  -2.169   0.575  0.00  0.00    +0.145 HD
ATOM     22  H   UNL     1       8.810  -3.277   0.320  0.00  0.00    +0.145 HD
ENDBRANCH  12  18
ENDBRANCH   1  12
BRANCH   1  23
ATOM     23  S   UNL     1       4.250  -1.337  -2.438  0.00  0.00    -0.146 S 
BRANCH  23  24
ATOM     24  C   UNL     1       3.943  -0.350  -0.948  0.00  0.00    +0.104 C 
BRANCH  24  25
ATOM     25  C   UNL     1       2.675   0.446  -1.124  0.00  0.00    -0.038 A 
ATOM     26  C   UNL     1       1.462  -0.093  -0.737  0.00  0.00    +0.004 A 
ATOM     27  C   UNL     1       0.299   0.636  -0.898  0.00  0.00    +0.000 A 
ATOM     28  C   UNL     1       0.349   1.904  -1.447  0.00  0.00    +0.000 A 
ATOM     29  C   UNL     1       1.562   2.443  -1.834  0.00  0.00    +0.000 A 
ATOM     30  C   UNL     1       2.725   1.713  -1.672  0.00  0.00    +0.004 A 
ENDBRANCH  24  25
ENDBRANCH  23  24
ENDBRANCH   1  23
TORSDOF 7
