REMARK  Name = ZINC36596083
REMARK  12 active torsions:
REMARK  status: ('A' for Active; 'I' for Inactive)
REMARK    1  A    between atoms: C_1  and  C_2
REMARK    2  A    between atoms: C_2  and  C_3
REMARK    3  A    between atoms: C_3  and  C_4
REMARK    4  A    between atoms: C_4  and  N_5
REMARK    5  A    between atoms: C_6  and  C_8
REMARK    6  A    between atoms: C_8  and  C_10
REMARK    7  A    between atoms: C_8  and  N_20
REMARK    8  A    between atoms: C_12  and  N_17
REMARK    9  A    between atoms: N_20  and  C_21
REMARK   10  A    between atoms: C_21  and  C_22
REMARK   11  A    between atoms: C_25  and  C_27
REMARK   12  A    between atoms: C_28  and  C_30
REMARK                            x       y       z     vdW  Elec       q    Type
REMARK                         _______ _______ _______ _____ _____    ______ ____
ROOT
ATOM      1  C   UNL     1       1.815  -4.517   3.338  0.00  0.00    +0.194 C 
ENDROOT
BRANCH   1   2
ATOM      2  C   UNL     1       0.489  -4.321   4.027  0.00  0.00    +0.002 A 
ATOM      3  C   UNL     1      -0.683  -4.366   3.296  0.00  0.00    +0.040 A 
ATOM      4  C   UNL     1      -1.899  -4.186   3.928  0.00  0.00    +0.127 A 
ATOM      5  C   UNL     1      -1.944  -3.960   5.291  0.00  0.00    +0.034 A 
ATOM      6  C   UNL     1      -0.773  -3.915   6.023  0.00  0.00    +0.022 A 
ATOM      7  C   UNL     1       0.445  -4.101   5.392  0.00  0.00    +0.047 A 
ATOM      8 CL   UNL     1       1.916  -4.053   6.312  0.00  0.00    -0.083 Cl
BRANCH   4   9
ATOM      9  N   UNL     1      -3.154  -4.233   3.144  0.00  0.00    +0.056 N 
ATOM     10  O   UNL     1      -3.115  -4.430   1.952  0.00  0.00    -0.126 OA
ATOM     11  O   UNL     1      -4.218  -4.075   3.696  0.00  0.00    -0.126 OA
ENDBRANCH   4   9
ENDBRANCH   1   2
BRANCH   1  13
ATOM     12  N   UNL     1       1.577  -3.047   1.364  0.00  0.00    -0.313 N 
ATOM     13  C   UNL     1       1.648  -4.299   1.857  0.00  0.00    +0.238 C 
ATOM     14  O   UNL     1       1.578  -5.250   1.108  0.00  0.00    -0.273 OA
ATOM     15  H   UNL     1       1.569  -2.288   1.967  0.00  0.00    +0.149 HD
BRANCH  12  16
ATOM     16  C   UNL     1       1.512  -2.832  -0.084  0.00  0.00    +0.104 C 
BRANCH  16  17
ATOM     17  C   UNL     1       1.439  -1.332  -0.374  0.00  0.00    +0.018 C 
BRANCH  17  19
ATOM     18  C   UNL     1       1.298   0.393  -2.177  0.00  0.00    +0.004 C 
ATOM     19  C   UNL     1       1.371  -1.107  -1.886  0.00  0.00    -0.002 C 
ENDBRANCH  17  19
ENDBRANCH  16  17
ENDBRANCH  12  16
ENDBRANCH   1  13
BRANCH   1  20
ATOM     20  N   UNL     1       2.294  -5.880   3.580  0.00  0.00    -0.275 N 
ATOM     21  C   UNL     1       3.152  -6.457   2.716  0.00  0.00    +0.248 C 
ATOM     22  O   UNL     1       3.431  -7.634   2.829  0.00  0.00    -0.270 OA
BRANCH  21  23
ATOM     23  C   UNL     1       3.754  -5.656   1.628  0.00  0.00    +0.038 A 
ATOM     24  C   UNL     1       3.827  -4.267   1.738  0.00  0.00    +0.013 A 
ATOM     25  C   UNL     1       4.391  -3.525   0.720  0.00  0.00    +0.002 A 
ATOM     26  C   UNL     1       4.883  -4.156  -0.409  0.00  0.00    +0.020 A 
ATOM     27  C   UNL     1       4.814  -5.534  -0.525  0.00  0.00    +0.042 A 
ATOM     28  C   UNL     1       4.257  -6.288   0.489  0.00  0.00    +0.033 A 
ATOM     29 CL   UNL     1       5.435  -6.316  -1.945  0.00  0.00    -0.084 Cl
ENDBRANCH  21  23
BRANCH  20  30
ATOM     30  C   UNL     1       1.841  -6.617   4.763  0.00  0.00    +0.183 C 
BRANCH  30  31
ATOM     31  C   UNL     1       0.680  -7.502   4.389  0.00  0.00    +0.122 A 
ATOM     32  C   UNL     1       0.761  -8.799   4.039  0.00  0.00    +0.046 A 
ATOM     33  C   UNL     1      -0.558  -9.233   3.772  0.00  0.00    +0.045 A 
ATOM     34  C   UNL     1      -1.365  -8.177   3.975  0.00  0.00    +0.102 A 
ATOM     35  O   UNL     1      -0.610  -7.132   4.354  0.00  0.00    -0.463 OA
ATOM     36  C   UNL     1      -2.863  -8.167   3.810  0.00  0.00    +0.086 C 
ENDBRANCH  30  31
ENDBRANCH  20  30
ENDBRANCH   1  20
TORSDOF 10
