REMARK  Name = ZINC35511098
REMARK  10 active torsions:
REMARK  status: ('A' for Active; 'I' for Inactive)
REMARK    1  A    between atoms: C_1  and  C_2
REMARK    2  A    between atoms: C_2  and  O_3
REMARK    3  A    between atoms: O_3  and  C_4
REMARK    4  A    between atoms: C_4  and  C_6
REMARK    5  A    between atoms: C_7  and  C_36
REMARK    6  A    between atoms: N_8  and  C_35
REMARK    7  A    between atoms: C_9  and  C_34
REMARK    8  A    between atoms: C_10  and  S_11
REMARK    9  A    between atoms: S_11  and  N_14
REMARK   10  A    between atoms: C_17  and  C_20
REMARK                            x       y       z     vdW  Elec       q    Type
REMARK                         _______ _______ _______ _____ _____    ______ ____
ROOT
ATOM      1  N   UNL     1      -3.647  -1.045   3.344  0.00  0.00    -0.176 NA
ATOM      2  C   UNL     1      -2.744   0.109   3.229  0.00  0.00    +0.110 C 
ATOM      3  C   UNL     1      -2.634   0.787   4.598  0.00  0.00    +0.030 C 
ATOM      4  C   UNL     1      -4.036   1.134   5.106  0.00  0.00    +0.078 C 
ATOM      5  C   UNL     1      -4.854  -0.150   5.267  0.00  0.00    +0.030 C 
ATOM      6  C   UNL     1      -4.991  -0.837   3.900  0.00  0.00    +0.110 C 
ENDROOT
BRANCH   4   7
ATOM      7  C   UNL     1      -3.929   1.831   6.437  0.00  0.00    +0.219 C 
ATOM      8  O   UNL     1      -3.054   1.520   7.217  0.00  0.00    -0.275 OA
ATOM      9  N   UNL     1      -4.807   2.802   6.761  0.00  0.00    -0.298 N 
ATOM     10  C   UNL     1      -5.948   3.102   5.885  0.00  0.00    +0.126 C 
ATOM     11  C   UNL     1      -7.238   2.997   6.708  0.00  0.00    +0.125 C 
ATOM     12  N   UNL     1      -7.071   3.773   7.944  0.00  0.00    -0.314 N 
ATOM     13  C   UNL     1      -5.930   3.473   8.820  0.00  0.00    +0.125 C 
ATOM     14  C   UNL     1      -4.643   3.575   8.001  0.00  0.00    +0.126 C 
ATOM     15  C   UNL     1      -7.976   4.774   8.279  0.00  0.00    +0.099 A 
ATOM     16  C   UNL     1      -9.116   4.961   7.502  0.00  0.00    +0.042 A 
ATOM     17  C   UNL     1     -10.008   5.960   7.846  0.00  0.00    +0.005 A 
ATOM     18  C   UNL     1      -9.730   6.742   8.960  0.00  0.00    +0.018 A 
ATOM     19  C   UNL     1      -8.581   6.501   9.686  0.00  0.00    +0.084 A 
ATOM     20  N   UNL     1      -7.750   5.537   9.337  0.00  0.00    -0.350 N 
ATOM     21  H   UNL     1      -6.951   5.386   9.866  0.00  0.00    +0.166 HD
ENDBRANCH   4   7
BRANCH   1  22
ATOM     22  S   UNL     1      -3.161  -2.549   2.850  0.00  0.00    +0.063 S 
ATOM     23  O   UNL     1      -3.957  -3.487   3.561  0.00  0.00    -0.153 OA
ATOM     24  O   UNL     1      -1.741  -2.556   2.906  0.00  0.00    -0.153 OA
BRANCH  22  29
ATOM     25  C   UNL     1      -2.771  -2.344  -0.007  0.00  0.00    +0.106 A 
ATOM     26  C   UNL     1      -3.525  -2.648  -1.121  0.00  0.00    +0.031 A 
ATOM     27  N   UNL     1      -4.706  -3.143  -0.707  0.00  0.00    -0.349 N 
ATOM     28  C   UNL     1      -4.757  -3.175   0.656  0.00  0.00    +0.043 A 
ATOM     29  C   UNL     1      -3.598  -2.705   1.150  0.00  0.00    +0.140 A 
ATOM     30  C   UNL     1      -5.921  -3.667   1.476  0.00  0.00    +0.065 C 
ATOM     31  C   UNL     1      -5.785  -3.583  -1.594  0.00  0.00    +0.149 C 
ATOM     32  C   UNL     1      -3.099  -2.458  -2.554  0.00  0.00    +0.064 C 
BRANCH  25  33
ATOM     33  C   UNL     1      -1.413  -1.780   0.016  0.00  0.00    +0.343 C 
ATOM     34  O   UNL     1      -0.448  -2.519   0.011  0.00  0.00    -0.245 OA
BRANCH  33  35
ATOM     35  O   UNL     1      -1.238  -0.444   0.043  0.00  0.00    -0.461 OA
BRANCH  35  37
ATOM     36  C   UNL     1       0.105   1.564   0.092  0.00  0.00    +0.048 C 
ATOM     37  C   UNL     1       0.108   0.035   0.064  0.00  0.00    +0.229 C 
ENDBRANCH  35  37
ENDBRANCH  33  35
ENDBRANCH  25  33
ENDBRANCH  22  29
ENDBRANCH   1  22
TORSDOF 6
