REMARK  Name = ZINC67303960
REMARK  7 active torsions:
REMARK  status: ('A' for Active; 'I' for Inactive)
REMARK    1  A    between atoms: C_1  and  C_2
REMARK    2  A    between atoms: C_3  and  C_9
REMARK    3  A    between atoms: C_4  and  C_8
REMARK    4  A    between atoms: N_5  and  C_7
REMARK    5  A    between atoms: C_9  and  C_11
REMARK    6  A    between atoms: C_9  and  N_12
REMARK    7  A    between atoms: C_13  and  C_15
REMARK                            x       y       z     vdW  Elec       q    Type
REMARK                         _______ _______ _______ _____ _____    ______ ____
ROOT
ATOM      1  N   UNL     1      -0.616   0.845  -2.745  0.00  0.00    -0.303 N 
ATOM      2  C   UNL     1      -1.168   1.100  -3.947  0.00  0.00    +0.262 C 
ATOM      3  O   UNL     1      -0.975   0.341  -4.878  0.00  0.00    -0.269 OA
ATOM      4  H   UNL     1      -0.769   1.450  -2.002  0.00  0.00    +0.150 HD
ENDROOT
BRANCH   2   5
ATOM      5  C   UNL     1      -2.003   2.294  -4.133  0.00  0.00    +0.121 A 
ATOM      6  C   UNL     1      -2.618   2.654  -5.292  0.00  0.00    +0.078 A 
ATOM      7  C   UNL     1      -3.321   3.860  -5.050  0.00  0.00    +0.020 A 
ATOM      8  C   UNL     1      -4.120   4.685  -5.853  0.00  0.00    +0.031 A 
ATOM      9  C   UNL     1      -4.678   5.813  -5.323  0.00  0.00    +0.042 A 
ATOM     10  C   UNL     1      -4.461   6.153  -3.993  0.00  0.00    +0.022 A 
ATOM     11  C   UNL     1      -3.680   5.358  -3.185  0.00  0.00    +0.028 A 
ATOM     12  C   UNL     1      -3.100   4.202  -3.702  0.00  0.00    +0.049 A 
ATOM     13  N   UNL     1      -2.296   3.228  -3.156  0.00  0.00    -0.349 N 
ATOM     14  H   UNL     1      -1.984   3.203  -2.238  0.00  0.00    +0.166 HD
ATOM     15 CL   UNL     1      -5.666   6.834  -6.321  0.00  0.00    -0.084 Cl
ATOM     16 CL   UNL     1      -2.552   1.792  -6.797  0.00  0.00    -0.081 Cl
ENDBRANCH   2   5
BRANCH   1  17
ATOM     17  C   UNL     1       0.218  -0.346  -2.559  0.00  0.00    +0.104 C 
ATOM     18  C   UNL     1       1.648  -0.043  -3.010  0.00  0.00    +0.033 C 
BRANCH  17  21
ATOM     19  C   UNL     1      -0.183  -3.272  -1.410  0.00  0.00    +0.068 C 
ATOM     20  C   UNL     1       0.045  -2.025  -0.595  0.00  0.00    +0.065 A 
ATOM     21  C   UNL     1       0.222  -0.734  -1.103  0.00  0.00    +0.016 A 
ATOM     22  C   UNL     1       0.398   0.105  -0.056  0.00  0.00    +0.041 A 
ATOM     23  N   UNL     1       0.335  -0.629   1.075  0.00  0.00    -0.271 N 
ATOM     24  N   UNL     1       0.108  -1.963   0.710  0.00  0.00    -0.176 NA
ATOM     25  C   UNL     1       0.474  -0.121   2.442  0.00  0.00    +0.172 C 
ATOM     26  C   UNL     1       0.624   1.593  -0.138  0.00  0.00    +0.065 C 
ENDBRANCH  17  21
ENDBRANCH   1  17
TORSDOF 3
