REMARK  Name = ZINC20086219
REMARK  6 active torsions:
REMARK  status: ('A' for Active; 'I' for Inactive)
REMARK    1  A    between atoms: C_4  and  C_7
REMARK    2  A    between atoms: C_7  and  O_8
REMARK    3  A    between atoms: O_8  and  C_9
REMARK    4  A    between atoms: C_13  and  C_15
REMARK    5  A    between atoms: C_17  and  C_30
REMARK    6  A    between atoms: C_18  and  N_29
REMARK                            x       y       z     vdW  Elec       q    Type
REMARK                         _______ _______ _______ _____ _____    ______ ____
ROOT
ATOM      1  C   UNL     1      -0.171   9.671  -4.326  0.00  0.00    +0.147 C 
ATOM      2  C   UNL     1      -1.582  10.050  -4.685  0.00  0.00    +0.092 C 
ATOM      3  C   UNL     1      -2.062  11.309  -4.470  0.00  0.00    +0.119 C 
ATOM      4  N   UNL     1      -1.198  12.258  -3.951  0.00  0.00    -0.267 N 
ATOM      5  C   UNL     1      -1.428  13.496  -3.424  0.00  0.00    +0.076 A 
ATOM      6  C   UNL     1      -2.584  14.235  -3.211  0.00  0.00    +0.028 A 
ATOM      7  C   UNL     1      -2.437  15.490  -2.640  0.00  0.00    +0.002 A 
ATOM      8  C   UNL     1      -1.198  15.997  -2.294  0.00  0.00    +0.002 A 
ATOM      9  C   UNL     1      -0.031  15.281  -2.495  0.00  0.00    +0.030 A 
ATOM     10  C   UNL     1      -0.155  14.012  -3.070  0.00  0.00    +0.091 A 
ATOM     11  N   UNL     1       0.766  13.079  -3.392  0.00  0.00    -0.214 NA
ATOM     12  C   UNL     1       0.170  12.042  -3.906  0.00  0.00    +0.203 A 
ATOM     13  N   UNL     1       0.706  10.852  -4.370  0.00  0.00    -0.303 N 
ATOM     14  H   UNL     1       1.732  10.762  -4.758  0.00  0.00    +0.150 HD
ENDROOT
BRANCH   1  19
ATOM     15  C   UNL     1      -0.110   7.178  -1.487  0.00  0.00    +0.121 A 
ATOM     16  C   UNL     1      -0.111   8.019  -0.383  0.00  0.00    +0.045 A 
ATOM     17  C   UNL     1      -0.131   9.388  -0.560  0.00  0.00    +0.004 A 
ATOM     18  C   UNL     1      -0.150   9.922  -1.836  0.00  0.00    +0.006 A 
ATOM     19  C   UNL     1      -0.150   9.086  -2.937  0.00  0.00    -0.019 A 
ATOM     20  C   UNL     1      -0.124   7.715  -2.765  0.00  0.00    +0.051 A 
BRANCH  15  21
ATOM     21  O   UNL     1      -0.090   5.830  -1.315  0.00  0.00    -0.487 OA
BRANCH  21  22
ATOM     22  C   UNL     1      -0.070   5.347   0.030  0.00  0.00    +0.264 C 
BRANCH  22  26
ATOM     23  C   UNL     1      -0.013   1.076   0.008  0.00  0.00    +0.000 A 
ATOM     24  C   UNL     1      -1.219   1.751   0.017  0.00  0.00    +0.000 A 
ATOM     25  C   UNL     1      -1.238   3.133   0.030  0.00  0.00    +0.007 A 
ATOM     26  C   UNL     1      -0.050   3.840   0.022  0.00  0.00    -0.010 A 
ATOM     27  C   UNL     1       1.156   3.165   0.008  0.00  0.00    +0.007 A 
ATOM     28  C   UNL     1       1.175   1.783   0.000  0.00  0.00    +0.000 A 
ENDBRANCH  22  26
ENDBRANCH  21  22
ENDBRANCH  15  21
ENDBRANCH   1  19
BRANCH   3  29
ATOM     29  N   UNL     1      -3.366  11.626  -4.760  0.00  0.00    -0.343 N 
ATOM     30  H   UNL     1      -3.737  12.646  -4.581  0.00  0.00    +0.144 HD
ATOM     31  H   UNL     1      -4.040  10.860  -5.171  0.00  0.00    +0.144 HD
ENDBRANCH   3  29
BRANCH   2  32
ATOM     32  C   UNL     1      -2.444   9.064  -5.266  0.00  0.00    +0.100 C 
ATOM     33  N   UNL     1      -3.127   8.283  -5.727  0.00  0.00    -0.191 NA
ENDBRANCH   2  32
TORSDOF 6
