REMARK  Name = ZINC64679226
REMARK  6 active torsions:
REMARK  status: ('A' for Active; 'I' for Inactive)
REMARK    1  A    between atoms: C_1  and  C_2
REMARK    2  A    between atoms: C_7  and  C_8
REMARK    3  A    between atoms: C_8  and  O_9
REMARK    4  A    between atoms: O_9  and  C_10
REMARK    5  A    between atoms: C_15  and  C_16
REMARK    6  A    between atoms: C_25  and  C_28
REMARK                            x       y       z     vdW  Elec       q    Type
REMARK                         _______ _______ _______ _____ _____    ______ ____
ROOT
ATOM      1  C   UNL     1       0.053  -0.377   4.844  0.00  0.00    +0.125 A 
ATOM      2  C   UNL     1       0.031   0.997   5.035  0.00  0.00    +0.046 A 
ATOM      3  C   UNL     1       0.035   1.516   6.315  0.00  0.00    +0.004 A 
ATOM      4  C   UNL     1       0.062   0.667   7.406  0.00  0.00    +0.001 A 
ATOM      5  C   UNL     1       0.086  -0.703   7.218  0.00  0.00    +0.008 A 
ATOM      6  C   UNL     1       0.075  -1.226   5.940  0.00  0.00    +0.002 A 
ENDROOT
BRANCH   6   7
ATOM      7  C   UNL     1       0.094  -2.720   5.737  0.00  0.00    +0.063 C 
ATOM      8  C   UNL     1      -1.119  -3.364   6.428  0.00  0.00    +0.108 C 
ATOM      9  C   UNL     1      -0.869  -4.794   6.782  0.00  0.00    +0.216 C 
ATOM     10  O   UNL     1      -1.853  -5.464   7.015  0.00  0.00    -0.276 OA
ATOM     11  N   UNL     1       0.304  -5.425   6.873  0.00  0.00    -0.289 N 
ATOM     12  C   UNL     1       1.542  -4.824   6.399  0.00  0.00    +0.243 C 
ATOM     13  C   UNL     1       1.308  -3.316   6.390  0.00  0.00    +0.005 C 
ATOM     14  C   UNL     1       2.328  -2.819   7.048  0.00  0.00    +0.064 C 
ATOM     15  N   UNL     1       3.075  -3.818   7.584  0.00  0.00    -0.157 NA
ATOM     16  N   UNL     1       2.682  -4.974   7.299  0.00  0.00    -0.160 NA
ATOM     17  C   UNL     1       2.630  -1.349   7.187  0.00  0.00    +0.067 C 
ATOM     18  H   UNL     1       0.332  -6.311   7.268  0.00  0.00    +0.151 HD
ENDBRANCH   6   7
BRANCH   1  19
ATOM     19  O   UNL     1       0.048  -0.889   3.585  0.00  0.00    -0.487 OA
BRANCH  19  20
ATOM     20  C   UNL     1       0.025   0.045   2.504  0.00  0.00    +0.264 C 
BRANCH  20  27
ATOM     21  C   UNL     1      -0.018   1.503   0.010  0.00  0.00    +0.044 C 
ATOM     22  C   UNL     1       0.002  -0.004   0.002  0.00  0.00    -0.044 A 
ATOM     23  C   UNL     1       0.006  -0.689  -1.199  0.00  0.00    +0.004 A 
ATOM     24  C   UNL     1       0.025  -2.071  -1.207  0.00  0.00    +0.000 A 
ATOM     25  C   UNL     1       0.040  -2.768  -0.013  0.00  0.00    +0.000 A 
ATOM     26  C   UNL     1       0.037  -2.084   1.188  0.00  0.00    +0.007 A 
ATOM     27  C   UNL     1       0.023  -0.702   1.195  0.00  0.00    -0.007 A 
ENDBRANCH  20  27
ENDBRANCH  19  20
ENDBRANCH   1  19
TORSDOF 4
