REMARK  Name = ZINC09125990
REMARK  9 active torsions:
REMARK  status: ('A' for Active; 'I' for Inactive)
REMARK    1  A    between atoms: C_1  and  N_2
REMARK    2  A    between atoms: N_2  and  C_3
REMARK    3  A    between atoms: C_4  and  N_19
REMARK    4  A    between atoms: N_5  and  C_12
REMARK    5  A    between atoms: C_12  and  C_13
REMARK    6  A    between atoms: C_20  and  C_22
REMARK    7  A    between atoms: C_22  and  C_24
REMARK    8  A    between atoms: C_22  and  S_30
REMARK    9  A    between atoms: S_30  and  C_31
REMARK                            x       y       z     vdW  Elec       q    Type
REMARK                         _______ _______ _______ _____ _____    ______ ____
ROOT
ATOM      1  C   UNL     1       1.060   2.064   0.009  0.00  0.00    +0.139 A 
ATOM      2  C   UNL     1       1.576   1.346   1.068  0.00  0.00    +0.128 A 
ATOM      3  N   UNL     1       1.442  -0.023   1.080  0.00  0.00    -0.276 N 
ATOM      4  C   UNL     1       0.816  -0.655   0.070  0.00  0.00    +0.331 A 
ATOM      5  O   UNL     1       0.708  -1.866   0.099  0.00  0.00    -0.246 OA
ATOM      6  N   UNL     1       0.307   0.028  -0.971  0.00  0.00    -0.273 N 
ATOM      7  H   UNL     1      -0.153  -0.465  -1.708  0.00  0.00    +0.173 HD
ATOM      8  C   UNL     1       0.411   1.371  -1.031  0.00  0.00    +0.277 A 
ATOM      9  O   UNL     1      -0.049   1.980  -1.981  0.00  0.00    -0.266 OA
ENDROOT
BRANCH   1  11
ATOM     10  C   UNL     1       2.503   4.087  -0.160  0.00  0.00    +0.138 C 
ATOM     11  N   UNL     1       1.181   3.469  -0.033  0.00  0.00    -0.266 N 
ATOM     12  C   UNL     1       0.079   4.244   0.045  0.00  0.00    +0.237 C 
ATOM     13  O   UNL     1      -1.004   3.739   0.252  0.00  0.00    -0.274 OA
BRANCH  12  14
ATOM     14  C   UNL     1       0.194   5.737  -0.125  0.00  0.00    +0.167 C 
BRANCH  14  15
ATOM     15  C   UNL     1       0.156   6.080  -1.592  0.00  0.00    -0.025 A 
ATOM     16  C   UNL     1      -0.946   5.736  -2.353  0.00  0.00    +0.005 A 
ATOM     17  C   UNL     1      -0.983   6.055  -3.698  0.00  0.00    +0.000 A 
ATOM     18  C   UNL     1       0.085   6.709  -4.283  0.00  0.00    +0.000 A 
ATOM     19  C   UNL     1       1.189   7.048  -3.523  0.00  0.00    +0.000 A 
ATOM     20  C   UNL     1       1.224   6.733  -2.177  0.00  0.00    +0.005 A 
ENDBRANCH  14  15
BRANCH  14  21
ATOM     21  S   UNL     1      -1.188   6.550   0.723  0.00  0.00    -0.108 S 
BRANCH  21  22
ATOM     22  C   UNL     1      -0.835   8.269   0.562  0.00  0.00    +0.009 A 
ATOM     23  C   UNL     1       0.312   8.685  -0.104  0.00  0.00    +0.015 A 
ATOM     24  C   UNL     1       0.584  10.033  -0.233  0.00  0.00    +0.001 A 
ATOM     25  C   UNL     1      -0.279  10.968   0.309  0.00  0.00    +0.000 A 
ATOM     26  C   UNL     1      -1.419  10.558   0.976  0.00  0.00    +0.001 A 
ATOM     27  C   UNL     1      -1.699   9.212   1.105  0.00  0.00    +0.015 A 
ENDBRANCH  21  22
ENDBRANCH  14  21
ENDBRANCH  12  14
ENDBRANCH   1  11
BRANCH   2  28
ATOM     28  N   UNL     1       2.215   1.990   2.099  0.00  0.00    -0.343 N 
ATOM     29  H   UNL     1       2.512   1.489   2.875  0.00  0.00    +0.144 HD
ATOM     30  H   UNL     1       2.370   2.947   2.051  0.00  0.00    +0.144 HD
ENDBRANCH   2  28
BRANCH   3  31
ATOM     31  C   UNL     1       1.985  -0.798   2.198  0.00  0.00    +0.163 C 
BRANCH  31  32
ATOM     32  C   UNL     1       3.408  -1.191   1.894  0.00  0.00    -0.028 A 
ATOM     33  C   UNL     1       3.672  -2.384   1.247  0.00  0.00    +0.005 A 
ATOM     34  C   UNL     1       4.977  -2.741   0.964  0.00  0.00    +0.000 A 
ATOM     35  C   UNL     1       6.018  -1.911   1.336  0.00  0.00    +0.000 A 
ATOM     36  C   UNL     1       5.753  -0.720   1.987  0.00  0.00    +0.000 A 
ATOM     37  C   UNL     1       4.448  -0.360   2.266  0.00  0.00    +0.005 A 
ENDBRANCH  31  32
ENDBRANCH   3  31
TORSDOF 8
