REMARK  Name = ZINC39494562
REMARK  10 active torsions:
REMARK  status: ('A' for Active; 'I' for Inactive)
REMARK    1  A    between atoms: C_4  and  C_7
REMARK    2  A    between atoms: C_7  and  C_9
REMARK    3  A    between atoms: C_7  and  N_27
REMARK    4  A    between atoms: C_9  and  C_11
REMARK    5  A    between atoms: C_9  and  C_18
REMARK    6  A    between atoms: C_16  and  O_17
REMARK    7  A    between atoms: C_18  and  C_20
REMARK    8  A    between atoms: C_25  and  O_26
REMARK    9  A    between atoms: C_28  and  S_30
REMARK   10  A    between atoms: S_30  and  C_33
REMARK                            x       y       z     vdW  Elec       q    Type
REMARK                         _______ _______ _______ _____ _____    ______ ____
ROOT
ATOM      1  C   UNL     1       3.711  -0.707  -0.038  0.00  0.00    +0.120 C 
ENDROOT
BRANCH   1   5
ATOM      2  C   UNL     1      -0.017   1.378   0.010  0.00  0.00    +0.000 A 
ATOM      3  C   UNL     1       1.171   2.086   0.002  0.00  0.00    +0.000 A 
ATOM      4  C   UNL     1       2.377   1.411  -0.013  0.00  0.00    +0.005 A 
ATOM      5  C   UNL     1       2.396   0.029  -0.020  0.00  0.00    -0.026 A 
ATOM      6  C   UNL     1       1.208  -0.679  -0.012  0.00  0.00    +0.005 A 
ATOM      7  C   UNL     1       0.002  -0.004   0.002  0.00  0.00    +0.000 A 
ENDBRANCH   1   5
BRANCH   1   8
ATOM      8  N   UNL     1       3.611  -1.865  -0.930  0.00  0.00    -0.289 N 
ATOM      9  C   UNL     1       3.825  -1.716  -2.253  0.00  0.00    +0.357 C 
ATOM     10  O   UNL     1       4.099  -0.624  -2.704  0.00  0.00    -0.249 OA
ATOM     11  H   UNL     1       3.392  -2.738  -0.569  0.00  0.00    +0.151 HD
BRANCH   9  12
ATOM     12  S   UNL     1       3.705  -3.108  -3.326  0.00  0.00    +0.076 S 
ATOM     13  O   UNL     1       2.773  -4.001  -2.731  0.00  0.00    -0.160 OA
ATOM     14  O   UNL     1       3.535  -2.594  -4.640  0.00  0.00    -0.160 OA
BRANCH  12  15
ATOM     15  C   UNL     1       5.268  -3.921  -3.302  0.00  0.00    +0.099 A 
ATOM     16  C   UNL     1       6.249  -3.560  -4.206  0.00  0.00    +0.027 A 
ATOM     17  C   UNL     1       7.475  -4.197  -4.187  0.00  0.00    +0.002 A 
ATOM     18  C   UNL     1       7.721  -5.196  -3.263  0.00  0.00    +0.000 A 
ATOM     19  C   UNL     1       6.740  -5.557  -2.358  0.00  0.00    +0.002 A 
ATOM     20  C   UNL     1       5.515  -4.916  -2.375  0.00  0.00    +0.027 A 
ENDBRANCH  12  15
ENDBRANCH   9  12
ENDBRANCH   1   8
BRANCH   1  21
ATOM     21  C   UNL     1       4.049  -1.182   1.377  0.00  0.00    +0.118 C 
BRANCH  21  22
ATOM     22  C   UNL     1       5.364  -1.917   1.360  0.00  0.00    +0.007 A 
ATOM     23  C   UNL     1       6.513  -1.270   0.947  0.00  0.00    +0.008 A 
ATOM     24  C   UNL     1       7.720  -1.945   0.930  0.00  0.00    +0.001 A 
ATOM     25  C   UNL     1       7.780  -3.268   1.327  0.00  0.00    +0.004 A 
ATOM     26  C   UNL     1       6.635  -3.920   1.741  0.00  0.00    +0.046 A 
ATOM     27  C   UNL     1       5.423  -3.243   1.763  0.00  0.00    +0.121 A 
BRANCH  27  28
ATOM     28  O   UNL     1       4.296  -3.880   2.175  0.00  0.00    -0.506 OA
ATOM     29  H   UNL     1       3.813  -4.324   1.465  0.00  0.00    +0.292 HD
ENDBRANCH  27  28
ENDBRANCH  21  22
BRANCH  21  30
ATOM     30  C   UNL     1       4.151   0.009   2.295  0.00  0.00    +0.176 C 
ATOM     31  O   UNL     1       4.426   1.101   1.844  0.00  0.00    -0.291 OA
BRANCH  30  32
ATOM     32  C   UNL     1       3.919  -0.153   3.736  0.00  0.00    +0.059 A 
ATOM     33  C   UNL     1       3.608  -1.413   4.262  0.00  0.00    +0.015 A 
ATOM     34  C   UNL     1       3.392  -1.556   5.614  0.00  0.00    +0.001 A 
ATOM     35  C   UNL     1       3.481  -0.460   6.458  0.00  0.00    +0.004 A 
ATOM     36  C   UNL     1       3.787   0.788   5.954  0.00  0.00    +0.046 A 
ATOM     37  C   UNL     1       4.014   0.953   4.596  0.00  0.00    +0.127 A 
BRANCH  37  38
ATOM     38  O   UNL     1       4.320   2.178   4.100  0.00  0.00    -0.506 OA
ATOM     39  H   UNL     1       3.549   2.699   3.836  0.00  0.00    +0.292 HD
ENDBRANCH  37  38
ENDBRANCH  30  32
ENDBRANCH  21  30
ENDBRANCH   1  21
TORSDOF 10
