REMARK  Name = ZINC25532074
REMARK  11 active torsions:
REMARK  status: ('A' for Active; 'I' for Inactive)
REMARK    1  A    between atoms: C_1  and  C_2
REMARK    2  A    between atoms: C_5  and  C_8
REMARK    3  A    between atoms: C_8  and  C_10
REMARK    4  A    between atoms: C_8  and  N_30
REMARK    5  A    between atoms: C_10  and  C_11
REMARK    6  A    between atoms: C_11  and  O_13
REMARK    7  A    between atoms: O_13  and  C_14
REMARK    8  A    between atoms: C_14  and  C_15
REMARK    9  A    between atoms: C_17  and  O_18
REMARK   10  A    between atoms: C_27  and  C_29
REMARK   11  A    between atoms: C_31  and  C_33
REMARK                            x       y       z     vdW  Elec       q    Type
REMARK                         _______ _______ _______ _____ _____    ______ ____
ROOT
ATOM      1  C   UNL     1       0.306  -7.123   0.212  0.00  0.00    +0.268 C 
ENDROOT
BRANCH   1   2
ATOM      2  C   UNL     1      -1.048  -6.469   0.109  0.00  0.00    +0.007 A 
ATOM      3  C   UNL     1      -2.186  -7.208   0.173  0.00  0.00    +0.095 A 
ATOM      4  C   UNL     1      -3.441  -6.572   0.073  0.00  0.00    +0.285 A 
ATOM      5  O   UNL     1      -3.548  -5.244  -0.084  0.00  0.00    -0.425 OA
ATOM      6  C   UNL     1      -2.457  -4.452  -0.155  0.00  0.00    +0.141 A 
ATOM      7  C   UNL     1      -1.172  -5.020  -0.063  0.00  0.00    +0.024 A 
ATOM      8  C   UNL     1      -0.038  -4.204  -0.136  0.00  0.00    +0.014 A 
ATOM      9  C   UNL     1      -0.180  -2.857  -0.302  0.00  0.00    +0.024 A 
ATOM     10  C   UNL     1      -1.450  -2.287  -0.388  0.00  0.00    +0.037 A 
ATOM     11  C   UNL     1      -2.585  -3.081  -0.318  0.00  0.00    +0.070 A 
ATOM     12  N   UNL     1      -1.580  -0.907  -0.551  0.00  0.00    -0.286 N 
ATOM     13  C   UNL     1      -2.604  -0.253   0.032  0.00  0.00    +0.214 C 
ATOM     14  O   UNL     1      -3.456  -0.873   0.633  0.00  0.00    -0.276 OA
ATOM     15  C   UNL     1      -2.692   1.248  -0.064  0.00  0.00    +0.109 C 
ATOM     16  H   UNL     1      -0.847  -0.354  -1.155  0.00  0.00    +0.155 HD
BRANCH   4  17
ATOM     17  O   UNL     1      -4.454  -7.246   0.132  0.00  0.00    -0.480 OA
ATOM     18  H   UNL     1      -5.440  -6.765   0.056  0.00  0.00    +0.295 HD
ENDBRANCH   4  17
ENDBRANCH   1   2
BRANCH   1  19
ATOM     19  O   UNL     1       0.140  -8.556   0.376  0.00  0.00    -0.460 OA
BRANCH  19  20
ATOM     20  C   UNL     1       1.258  -9.291   0.484  0.00  0.00    +0.310 C 
ATOM     21  O   UNL     1       2.340  -8.754   0.443  0.00  0.00    -0.251 OA
BRANCH  20  22
ATOM     22  C   UNL     1       1.164 -10.785   0.657  0.00  0.00    +0.147 C 
BRANCH  22  23
ATOM     23  C   UNL     1       2.572 -11.376   0.754  0.00  0.00    +0.114 C 
BRANCH  23  28
ATOM     24  C   UNL     1       2.231 -17.142   0.943  0.00  0.00    +0.044 C 
ATOM     25  C   UNL     1       2.320 -15.638   0.894  0.00  0.00    -0.050 A 
ATOM     26  C   UNL     1       2.538 -14.998  -0.311  0.00  0.00    +0.004 A 
ATOM     27  C   UNL     1       2.620 -13.619  -0.357  0.00  0.00    +0.006 A 
ATOM     28  C   UNL     1       2.482 -12.880   0.803  0.00  0.00    -0.027 A 
ATOM     29  C   UNL     1       2.269 -13.521   2.010  0.00  0.00    +0.006 A 
ATOM     30  C   UNL     1       2.182 -14.899   2.054  0.00  0.00    +0.004 A 
ENDBRANCH  23  28
BRANCH  23  31
ATOM     31  N   UNL     1       3.225 -10.886   1.970  0.00  0.00    -0.308 N 
ATOM     32  C   UNL     1       4.565 -10.747   2.006  0.00  0.00    +0.210 C 
ATOM     33  O   UNL     1       5.222 -10.941   1.005  0.00  0.00    -0.276 OA
ATOM     34  C   UNL     1       5.247 -10.352   3.290  0.00  0.00    +0.109 C 
ATOM     35  H   UNL     1       2.622 -10.631   2.854  0.00  0.00    +0.149 HD
ENDBRANCH  23  31
ENDBRANCH  22  23
ENDBRANCH  20  22
ENDBRANCH  19  20
ENDBRANCH   1  19
TORSDOF 8
