REMARK  Name = ZINC39638208
REMARK  10 active torsions:
REMARK  status: ('A' for Active; 'I' for Inactive)
REMARK    1  A    between atoms: C_1  and  C_2
REMARK    2  A    between atoms: C_2  and  C_3
REMARK    3  A    between atoms: C_3  and  C_5
REMARK    4  A    between atoms: C_3  and  N_8
REMARK    5  A    between atoms: C_5  and  O_6
REMARK    6  A    between atoms: O_6  and  C_7
REMARK    7  A    between atoms: C_9  and  C_11
REMARK    8  A    between atoms: C_22  and  C_24
REMARK    9  A    between atoms: C_27  and  O_31
REMARK   10  A    between atoms: O_31  and  C_32
REMARK                            x       y       z     vdW  Elec       q    Type
REMARK                         _______ _______ _______ _____ _____    ______ ____
ROOT
ATOM      1  C   UNL     1      -2.755   1.714  -2.466  0.00  0.00    +0.100 C 
ATOM      2  C   UNL     1      -1.982   1.742  -3.804  0.00  0.00    +0.121 C 
ATOM      3  N   UNL     1      -2.572   2.876  -4.554  0.00  0.00    -0.296 N 
ATOM      4  C   UNL     1      -2.795   3.921  -3.526  0.00  0.00    +0.115 C 
ATOM      5  C   UNL     1      -3.286   3.146  -2.287  0.00  0.00    -0.004 C 
ATOM      6  C   UNL     1      -4.811   3.142  -2.238  0.00  0.00    -0.010 C 
ATOM      7  C   UNL     1      -5.313   4.569  -2.002  0.00  0.00    -0.082 C 
ATOM      8  N   UNL     1      -4.764   5.081  -0.741  0.00  0.00    +0.379 N 
ATOM      9  C   UNL     1      -3.302   5.168  -0.830  0.00  0.00    -0.082 C 
ATOM     10  C   UNL     1      -2.714   3.767  -1.016  0.00  0.00    -0.010 C 
ATOM     11  C   UNL     1      -2.844   2.943  -5.872  0.00  0.00    +0.247 C 
ATOM     12  O   UNL     1      -2.724   1.954  -6.568  0.00  0.00    -0.270 OA
ATOM     13  H   UNL     1      -5.144   5.997  -0.557  0.00  0.00    -0.086 HD
ATOM     14  H   UNL     1      -5.017   4.458   0.012  0.00  0.00    -0.086 HD
ENDROOT
BRANCH  11  15
ATOM     15  C   UNL     1      -3.289   4.217  -6.470  0.00  0.00    +0.040 A 
ATOM     16  C   UNL     1      -3.022   5.426  -5.822  0.00  0.00    +0.036 A 
ATOM     17  C   UNL     1      -3.439   6.613  -6.383  0.00  0.00    +0.085 A 
ATOM     18  C   UNL     1      -4.124   6.610  -7.593  0.00  0.00    +0.157 A 
ATOM     19  C   UNL     1      -4.392   5.409  -8.241  0.00  0.00    +0.085 A 
ATOM     20  C   UNL     1      -3.973   4.218  -7.689  0.00  0.00    +0.036 A 
ATOM     21 CL   UNL     1      -5.248   5.410  -9.751  0.00  0.00    -0.080 Cl
ATOM     22 CL   UNL     1      -3.108   8.116  -5.579  0.00  0.00    -0.080 Cl
BRANCH  18  23
ATOM     23  O   UNL     1      -4.534   7.781  -8.143  0.00  0.00    -0.492 OA
ATOM     24  C   UNL     1      -3.625   8.434  -9.032  0.00  0.00    +0.277 C 
ENDBRANCH  18  23
ENDBRANCH  11  15
BRANCH   1  26
ATOM     25  N   UNL     1      -2.307   0.698  -0.256  0.00  0.00    -0.310 N 
ATOM     26  C   UNL     1      -1.830   1.351  -1.334  0.00  0.00    +0.218 C 
ATOM     27  O   UNL     1      -0.655   1.648  -1.391  0.00  0.00    -0.275 OA
ATOM     28  H   UNL     1      -3.247   0.461  -0.210  0.00  0.00    +0.149 HD
BRANCH  25  29
ATOM     29  C   UNL     1      -1.408   0.346   0.845  0.00  0.00    +0.098 C 
BRANCH  29  31
ATOM     30  C   UNL     1       0.192  -0.806  -0.690  0.00  0.00    +0.006 C 
ATOM     31  C   UNL     1      -0.713  -0.981   0.532  0.00  0.00    +0.021 C 
ENDBRANCH  29  31
BRANCH  29  32
ATOM     32  C   UNL     1      -2.215   0.206   2.138  0.00  0.00    +0.181 C 
BRANCH  32  33
ATOM     33  O   UNL     1      -3.117  -0.896   2.019  0.00  0.00    -0.381 OA
ATOM     34  C   UNL     1      -3.922  -1.115   3.179  0.00  0.00    +0.194 C 
ENDBRANCH  32  33
ENDBRANCH  29  32
ENDBRANCH  25  29
ENDBRANCH   1  26
TORSDOF 7
