REMARK  Name = ZINC43741191
REMARK  6 active torsions:
REMARK  status: ('A' for Active; 'I' for Inactive)
REMARK    1  A    between atoms: C_1  and  C_2
REMARK    2  A    between atoms: C_8  and  C_36
REMARK    3  A    between atoms: C_9  and  O_35
REMARK    4  A    between atoms: C_19  and  C_21
REMARK    5  A    between atoms: C_21  and  N_22
REMARK    6  A    between atoms: N_25  and  C_28
REMARK                            x       y       z     vdW  Elec       q    Type
REMARK                         _______ _______ _______ _____ _____    ______ ____
ROOT
ATOM      1  C   UNL     1       0.335   1.891   0.360  0.00  0.00    +0.008 C 
ATOM      2  C   UNL     1       0.222   0.365   0.330  0.00  0.00    -0.001 C 
ATOM      3  C   UNL     1      -1.252  -0.029   0.410  0.00  0.00    +0.008 C 
ATOM      4  C   UNL     1      -1.835   0.539   1.710  0.00  0.00    +0.027 C 
ATOM      5  C   UNL     1      -1.041  -0.008   2.865  0.00  0.00    -0.027 C 
ATOM      6  C   UNL     1       0.208  -0.342   2.753  0.00  0.00    -0.061 C 
ATOM      7  C   UNL     1       1.009  -0.214   1.489  0.00  0.00    +0.018 C 
ATOM      8  C   UNL     1       1.562  -1.593   1.137  0.00  0.00    +0.132 C 
ATOM      9  C   UNL     1       2.419  -2.140   2.282  0.00  0.00    +0.071 C 
ATOM     10  C   UNL     1       1.631  -2.176   3.604  0.00  0.00    +0.187 C 
ATOM     11  C   UNL     1       0.936  -0.905   3.958  0.00  0.00    +0.076 C 
ATOM     12  O   UNL     1       0.727  -3.272   3.435  0.00  0.00    -0.460 OA
ATOM     13  C   UNL     1       1.418  -4.272   2.841  0.00  0.00    +0.309 C 
ATOM     14  O   UNL     1       1.173  -5.451   2.943  0.00  0.00    -0.251 OA
ATOM     15  C   UNL     1       2.569  -3.670   2.014  0.00  0.00    +0.090 C 
ATOM     16  C   UNL     1       2.198   0.707   1.769  0.00  0.00    +0.018 C 
ENDROOT
BRANCH   8  17
ATOM     17  O   UNL     1       2.363  -1.491  -0.042  0.00  0.00    -0.391 OA
ATOM     18  H   UNL     1       2.750  -2.330  -0.328  0.00  0.00    +0.210 HD
ENDBRANCH   8  17
BRANCH  15  19
ATOM     19  C   UNL     1       3.924  -4.174   2.515  0.00  0.00    -0.064 C 
BRANCH  19  20
ATOM     20  N   UNL     1       4.998  -3.562   1.721  0.00  0.00    +0.382 N 
ATOM     21  C   UNL     1       4.915  -4.042   0.336  0.00  0.00    -0.060 C 
ATOM     22  C   UNL     1       5.961  -3.319  -0.518  0.00  0.00    +0.086 C 
ATOM     23  N   UNL     1       7.280  -3.499   0.109  0.00  0.00    -0.331 N 
ATOM     24  C   UNL     1       7.414  -3.196   1.542  0.00  0.00    +0.086 C 
ATOM     25  C   UNL     1       6.299  -3.925   2.299  0.00  0.00    -0.060 C 
ATOM     26  H   UNL     1       4.894  -2.559   1.734  0.00  0.00    -0.082 HD
BRANCH  23  27
ATOM     27  C   UNL     1       8.375  -3.946  -0.637  0.00  0.00    +0.065 A 
ATOM     28  C   UNL     1       9.206  -3.032  -1.270  0.00  0.00    +0.026 A 
ATOM     29  C   UNL     1      10.288  -3.476  -2.006  0.00  0.00    +0.002 A 
ATOM     30  C   UNL     1      10.544  -4.831  -2.112  0.00  0.00    +0.003 A 
ATOM     31  C   UNL     1       9.720  -5.746  -1.484  0.00  0.00    +0.040 A 
ATOM     32  C   UNL     1       8.639  -5.308  -0.741  0.00  0.00    +0.144 A 
ATOM     33  F   UNL     1       7.836  -6.201  -0.121  0.00  0.00    -0.204 F 
ENDBRANCH  23  27
ENDBRANCH  19  20
ENDBRANCH  15  19
TORSDOF 4
