REMARK  Name = ZINC59384240
REMARK  11 active torsions:
REMARK  status: ('A' for Active; 'I' for Inactive)
REMARK    1  A    between atoms: C_1  and  C_2
REMARK    2  A    between atoms: C_2  and  O_3
REMARK    3  A    between atoms: O_3  and  C_4
REMARK    4  A    between atoms: C_7  and  C_10
REMARK    5  A    between atoms: N_11  and  N_12
REMARK    6  A    between atoms: C_13  and  C_15
REMARK    7  A    between atoms: C_16  and  C_32
REMARK    8  A    between atoms: C_21  and  C_23
REMARK    9  A    between atoms: C_26  and  O_31
REMARK   10  A    between atoms: C_27  and  O_29
REMARK   11  A    between atoms: O_29  and  C_30
REMARK                            x       y       z     vdW  Elec       q    Type
REMARK                         _______ _______ _______ _____ _____    ______ ____
ROOT
ATOM      1  C   UNL     1      -4.758 -10.231   0.469  0.00  0.00    +0.057 C 
ATOM      2  C   UNL     1      -5.973 -10.806   0.597  0.00  0.00    +0.017 C 
ATOM      3  N   UNL     1      -6.124 -12.161   0.509  0.00  0.00    -0.300 N 
ATOM      4  C   UNL     1      -5.110 -13.009   0.295  0.00  0.00    +0.135 C 
ATOM      5  S   UNL     1      -5.438 -14.687   0.207  0.00  0.00    -0.019 S 
ATOM      6  N   UNL     1      -3.839 -12.584   0.146  0.00  0.00    -0.315 N 
ATOM      7  C   UNL     1      -3.571 -11.138   0.219  0.00  0.00    +0.139 C 
ATOM      8  C   UNL     1      -7.182  -9.940   0.841  0.00  0.00    +0.061 C 
ATOM      9  H   UNL     1      -7.016 -12.530   0.608  0.00  0.00    +0.154 HD
ATOM     10  H   UNL     1      -3.119 -13.216  -0.008  0.00  0.00    +0.149 HD
ENDROOT
BRANCH   7  11
ATOM     11  C   UNL     1      -2.927 -10.715  -1.076  0.00  0.00    -0.019 A 
ATOM     12  C   UNL     1      -3.542 -11.009  -2.280  0.00  0.00    +0.009 A 
ATOM     13  C   UNL     1      -2.955 -10.623  -3.471  0.00  0.00    +0.049 A 
ATOM     14  C   UNL     1      -1.750  -9.940  -3.460  0.00  0.00    +0.158 A 
ATOM     15  C   UNL     1      -1.132  -9.644  -2.249  0.00  0.00    +0.162 A 
ATOM     16  C   UNL     1      -1.727 -10.029  -1.059  0.00  0.00    +0.055 A 
BRANCH  15  17
ATOM     17  O   UNL     1       0.051  -8.974  -2.234  0.00  0.00    -0.491 OA
ATOM     18  C   UNL     1       0.666  -8.771  -0.960  0.00  0.00    +0.277 C 
ENDBRANCH  15  17
BRANCH  14  19
ATOM     19  O   UNL     1      -1.172  -9.560  -4.631  0.00  0.00    -0.503 OA
ATOM     20  H   UNL     1      -1.440  -8.683  -4.936  0.00  0.00    +0.292 HD
ENDBRANCH  14  19
ENDBRANCH   7  11
BRANCH   1  22
ATOM     21  N   UNL     1      -4.940  -8.042  -0.483  0.00  0.00    -0.203 N 
ATOM     22  C   UNL     1      -4.601  -8.826   0.559  0.00  0.00    +0.263 C 
ATOM     23  O   UNL     1      -4.158  -8.327   1.578  0.00  0.00    -0.269 OA
ATOM     24  H   UNL     1      -5.364  -8.430  -1.264  0.00  0.00    +0.178 HD
BRANCH  21  26
ATOM     25  C   UNL     1      -5.095  -5.895  -1.396  0.00  0.00    +0.138 C 
ATOM     26  N   UNL     1      -4.681  -6.666  -0.437  0.00  0.00    -0.187 NA
BRANCH  25  30
ATOM     27  C   UNL     1      -4.594  -1.689  -1.107  0.00  0.00    +0.121 A 
ATOM     28  C   UNL     1      -5.201  -2.239  -2.228  0.00  0.00    +0.046 A 
ATOM     29  C   UNL     1      -5.366  -3.603  -2.327  0.00  0.00    +0.013 A 
ATOM     30  C   UNL     1      -4.921  -4.435  -1.296  0.00  0.00    -0.005 A 
ATOM     31  C   UNL     1      -4.310  -3.878  -0.169  0.00  0.00    +0.013 A 
ATOM     32  C   UNL     1      -4.145  -2.512  -0.082  0.00  0.00    +0.046 A 
BRANCH  27  33
ATOM     33  O   UNL     1      -4.434  -0.344  -1.014  0.00  0.00    -0.492 OA
BRANCH  33  35
ATOM     34  C   UNL     1      -4.651   1.924  -1.821  0.00  0.00    +0.048 C 
ATOM     35  C   UNL     1      -4.918   0.444  -2.103  0.00  0.00    +0.225 C 
ENDBRANCH  33  35
ENDBRANCH  27  33
ENDBRANCH  25  30
ENDBRANCH  21  26
ENDBRANCH   1  22
TORSDOF 8
