REMARK  Name = ZINC24105298
REMARK  6 active torsions:
REMARK  status: ('A' for Active; 'I' for Inactive)
REMARK    1  A    between atoms: C_1  and  C_2
REMARK    2  A    between atoms: C_2  and  N_3
REMARK    3  A    between atoms: C_12  and  S_13
REMARK    4  A    between atoms: S_13  and  C_14
REMARK    5  A    between atoms: C_14  and  C_15
REMARK    6  A    between atoms: C_21  and  C_26
REMARK                            x       y       z     vdW  Elec       q    Type
REMARK                         _______ _______ _______ _____ _____    ______ ____
ROOT
ATOM      1  S   UNL     1      -1.173  -0.414  -2.688  0.00  0.00    -0.080 S 
ENDROOT
BRANCH   1  11
ATOM      2  N   UNL     1      -1.372  -0.511   0.012  0.00  0.00    -0.288 N 
ATOM      3  C   UNL     1      -1.982  -0.741   1.190  0.00  0.00    +0.263 A 
ATOM      4  O   UNL     1      -1.399  -0.529   2.239  0.00  0.00    -0.267 OA
ATOM      5  C   UNL     1      -3.325  -1.236   1.193  0.00  0.00    +0.076 A 
ATOM      6  C   UNL     1      -4.172  -1.555   2.344  0.00  0.00    -0.023 A 
ATOM      7  C   UNL     1      -5.413  -2.012   2.082  0.00  0.00    -0.004 A 
ATOM      8  S   UNL     1      -5.528  -2.045   0.314  0.00  0.00    -0.073 S 
ATOM      9  C   UNL     1      -3.903  -1.444  -0.071  0.00  0.00    +0.117 A 
ATOM     10  N   UNL     1      -3.246  -1.197  -1.198  0.00  0.00    -0.216 NA
ATOM     11  C   UNL     1      -2.012  -0.737  -1.172  0.00  0.00    +0.173 A 
ATOM     12  C   UNL     1      -6.463  -2.406   3.076  0.00  0.00    +0.043 C 
ATOM     13  C   UNL     1      -5.795  -2.569   4.448  0.00  0.00    +0.005 C 
ATOM     14  C   UNL     1      -4.906  -1.349   4.709  0.00  0.00    +0.005 C 
ATOM     15  C   UNL     1      -3.690  -1.385   3.782  0.00  0.00    +0.037 C 
BRANCH   2  17
ATOM     16  C   UNL     1      -0.019   1.526   0.010  0.00  0.00    +0.027 C 
ATOM     17  C   UNL     1       0.002  -0.004   0.002  0.00  0.00    +0.124 C 
ENDBRANCH   2  17
ENDBRANCH   1  11
BRANCH   1  18
ATOM     18  C   UNL     1      -2.387  -0.850  -3.963  0.00  0.00    +0.151 C 
BRANCH  18  19
ATOM     19  C   UNL     1      -1.789  -0.618  -5.327  0.00  0.00    +0.121 A 
ATOM     20  N   UNL     1      -2.531  -0.876  -6.434  0.00  0.00    -0.310 N 
ATOM     21  H   UNL     1      -3.438  -1.207  -6.332  0.00  0.00    +0.170 HD
ATOM     22  C   UNL     1      -2.035  -0.681  -7.669  0.00  0.00    +0.260 A 
ATOM     23  O   UNL     1      -2.715  -0.917  -8.653  0.00  0.00    -0.267 OA
ATOM     24  C   UNL     1      -0.697  -0.193  -7.811  0.00  0.00    +0.083 A 
ATOM     25  C   UNL     1       0.056   0.096  -9.026  0.00  0.00    +0.039 A 
ATOM     26  C   UNL     1       1.328   0.557  -8.910  0.00  0.00    +0.059 A 
ATOM     27  S   UNL     1       1.581   0.629  -7.147  0.00  0.00    -0.076 S 
ATOM     28  C   UNL     1      -0.006   0.045  -6.611  0.00  0.00    +0.116 A 
ATOM     29  N   UNL     1      -0.567  -0.166  -5.423  0.00  0.00    -0.226 NA
BRANCH  25  30
ATOM     30  C   UNL     1      -0.551  -0.111 -10.356  0.00  0.00    +0.136 A 
ATOM     31  C   UNL     1      -0.566   0.789 -11.376  0.00  0.00    +0.050 A 
ATOM     32  C   UNL     1      -1.246   0.177 -12.448  0.00  0.00    +0.042 A 
ATOM     33  C   UNL     1      -1.609  -1.052 -12.036  0.00  0.00    +0.196 A 
ATOM     34  O   UNL     1      -1.182  -1.226 -10.772  0.00  0.00    -0.463 OA
ENDBRANCH  25  30
ENDBRANCH  18  19
ENDBRANCH   1  18
TORSDOF 5
