REMARK  Name = ZINC29465794
REMARK  13 active torsions:
REMARK  status: ('A' for Active; 'I' for Inactive)
REMARK    1  A    between atoms: C_1  and  C_2
REMARK    2  A    between atoms: C_5  and  C_8
REMARK    3  A    between atoms: C_10  and  C_13
REMARK    4  A    between atoms: C_13  and  N_14
REMARK    5  A    between atoms: N_14  and  C_15
REMARK    6  A    between atoms: N_14  and  C_20
REMARK    7  A    between atoms: C_15  and  C_16
REMARK    8  A    between atoms: C_16  and  C_17
REMARK    9  A    between atoms: C_17  and  C_18
REMARK   10  A    between atoms: C_17  and  C_19
REMARK   11  A    between atoms: C_21  and  N_36
REMARK   12  A    between atoms: N_22  and  C_29
REMARK   13  A    between atoms: C_29  and  C_30
REMARK                            x       y       z     vdW  Elec       q    Type
REMARK                         _______ _______ _______ _____ _____    ______ ____
ROOT
ATOM      1  N   UNL     1      -2.491   6.694  -3.841  0.00  0.00    -0.314 N 
ENDROOT
BRANCH   1   2
ATOM      2  C   UNL     1      -2.606   5.549  -3.019  0.00  0.00    +0.134 A 
ATOM      3  C   UNL     1      -2.040   5.528  -1.774  0.00  0.00    +0.127 A 
ATOM      4  N   UNL     1      -2.163   4.399  -0.996  0.00  0.00    -0.276 N 
ATOM      5  C   UNL     1      -2.841   3.329  -1.451  0.00  0.00    +0.331 A 
ATOM      6  O   UNL     1      -2.943   2.342  -0.748  0.00  0.00    -0.246 OA
ATOM      7  N   UNL     1      -3.408   3.335  -2.671  0.00  0.00    -0.273 N 
ATOM      8  H   UNL     1      -3.958   2.451  -3.026  0.00  0.00    +0.173 HD
ATOM      9  C   UNL     1      -3.309   4.417  -3.469  0.00  0.00    +0.277 A 
ATOM     10  O   UNL     1      -3.825   4.413  -4.574  0.00  0.00    -0.266 OA
BRANCH   3  11
ATOM     11  N   UNL     1      -1.351   6.623  -1.305  0.00  0.00    -0.343 N 
ATOM     12  H   UNL     1      -0.898   6.600  -0.302  0.00  0.00    +0.144 HD
ATOM     13  H   UNL     1      -1.253   7.521  -1.932  0.00  0.00    +0.144 HD
ENDBRANCH   3  11
BRANCH   4  14
ATOM     14  C   UNL     1      -1.558   4.364   0.338  0.00  0.00    +0.163 C 
BRANCH  14  15
ATOM     15  C   UNL     1      -0.152   3.830   0.237  0.00  0.00    -0.028 A 
ATOM     16  C   UNL     1       0.081   2.471   0.343  0.00  0.00    +0.005 A 
ATOM     17  C   UNL     1       1.370   1.982   0.255  0.00  0.00    +0.000 A 
ATOM     18  C   UNL     1       2.427   2.850   0.052  0.00  0.00    +0.000 A 
ATOM     19  C   UNL     1       2.194   4.208  -0.059  0.00  0.00    +0.000 A 
ATOM     20  C   UNL     1       0.904   4.698   0.033  0.00  0.00    +0.005 A 
ENDBRANCH  14  15
ENDBRANCH   4  14
ENDBRANCH   1   2
BRANCH   1  21
ATOM     21  C   UNL     1      -1.729   6.393  -5.060  0.00  0.00    +0.204 C 
BRANCH  21  24
ATOM     22  C   UNL     1      -0.180   9.401  -6.274  0.00  0.00    +0.202 A 
ATOM     23  N   UNL     1      -0.149   8.306  -5.482  0.00  0.00    -0.190 NA
ATOM     24  C   UNL     1      -1.279   7.680  -5.702  0.00  0.00    +0.245 A 
ATOM     25  O   UNL     1      -1.960   8.401  -6.599  0.00  0.00    -0.336 OA
ATOM     26  N   UNL     1      -1.319   9.381  -6.916  0.00  0.00    -0.056 NA
BRANCH  22  31
ATOM     27  C   UNL     1       3.925  13.416  -6.720  0.00  0.00    +0.044 C 
ATOM     28  C   UNL     1       2.851  12.366  -6.604  0.00  0.00    -0.050 A 
ATOM     29  C   UNL     1       1.692  12.478  -7.351  0.00  0.00    +0.004 A 
ATOM     30  C   UNL     1       0.705  11.519  -7.248  0.00  0.00    +0.012 A 
ATOM     31  C   UNL     1       0.878  10.436  -6.389  0.00  0.00    +0.022 A 
ATOM     32  C   UNL     1       2.044  10.330  -5.635  0.00  0.00    +0.012 A 
ATOM     33  C   UNL     1       3.027  11.292  -5.749  0.00  0.00    +0.004 A 
ENDBRANCH  22  31
ENDBRANCH  21  24
ENDBRANCH   1  21
BRANCH   1  34
ATOM     34  C   UNL     1      -3.813   7.243  -4.168  0.00  0.00    +0.106 C 
BRANCH  34  35
ATOM     35  C   UNL     1      -4.378   7.974  -2.948  0.00  0.00    +0.022 C 
BRANCH  35  36
ATOM     36  C   UNL     1      -5.687   8.669  -3.331  0.00  0.00    -0.016 C 
ATOM     37  C   UNL     1      -6.736   7.616  -3.694  0.00  0.00    +0.007 C 
ATOM     38  C   UNL     1      -6.187   9.501  -2.149  0.00  0.00    +0.007 C 
ENDBRANCH  35  36
ENDBRANCH  34  35
ENDBRANCH   1  34
TORSDOF 10
