REMARK  Name = ZINC39666614
REMARK  11 active torsions:
REMARK  status: ('A' for Active; 'I' for Inactive)
REMARK    1  A    between atoms: C_1  and  C_2
REMARK    2  A    between atoms: C_2  and  C_3
REMARK    3  A    between atoms: C_3  and  C_5
REMARK    4  A    between atoms: C_3  and  C_6
REMARK    5  A    between atoms: C_6  and  C_7
REMARK    6  A    between atoms: C_11  and  C_20
REMARK    7  A    between atoms: N_22  and  C_23
REMARK    8  A    between atoms: C_23  and  C_24
REMARK    9  A    between atoms: C_24  and  C_26
REMARK   10  A    between atoms: C_24  and  O_27
REMARK   11  A    between atoms: O_27  and  C_28
REMARK                            x       y       z     vdW  Elec       q    Type
REMARK                         _______ _______ _______ _____ _____    ______ ____
ROOT
ATOM      1  C   UNL     1       1.637  -2.478  -2.331  0.00  0.00    +0.216 C 
ATOM      2  O   UNL     1       2.058  -1.671  -3.133  0.00  0.00    -0.276 OA
ATOM      3  N   UNL     1       1.883  -3.791  -2.505  0.00  0.00    -0.300 N 
ATOM      4  C   UNL     1       1.451  -4.918  -1.645  0.00  0.00    +0.121 C 
ATOM      5  C   UNL     1       1.071  -6.042  -2.636  0.00  0.00    +0.100 C 
ATOM      6  C   UNL     1       1.860  -5.720  -3.916  0.00  0.00    -0.004 C 
ATOM      7  C   UNL     1       2.642  -4.436  -3.604  0.00  0.00    +0.115 C 
ATOM      8  C   UNL     1       0.904  -5.479  -5.080  0.00  0.00    -0.010 C 
ATOM      9  C   UNL     1       1.714  -5.218  -6.353  0.00  0.00    -0.082 C 
ATOM     10  N   UNL     1       2.575  -6.373  -6.633  0.00  0.00    +0.379 N 
ATOM     11  C   UNL     1       3.553  -6.542  -5.551  0.00  0.00    -0.082 C 
ATOM     12  C   UNL     1       2.821  -6.859  -4.244  0.00  0.00    -0.010 C 
ATOM     13  H   UNL     1       2.008  -7.204  -6.705  0.00  0.00    -0.086 HD
ATOM     14  H   UNL     1       3.062  -6.224  -7.504  0.00  0.00    -0.086 HD
ENDROOT
BRANCH   5  15
ATOM     15  C   UNL     1       1.479  -7.385  -2.088  0.00  0.00    +0.218 C 
ATOM     16  O   UNL     1       2.487  -7.487  -1.422  0.00  0.00    -0.275 OA
ATOM     17  N   UNL     1       0.723  -8.472  -2.338  0.00  0.00    -0.312 N 
ATOM     18  H   UNL     1      -0.083  -8.391  -2.870  0.00  0.00    +0.149 HD
BRANCH  17  19
ATOM     19  C   UNL     1       1.120  -9.778  -1.805  0.00  0.00    +0.148 C 
BRANCH  19  20
ATOM     20  C   UNL     1       0.099 -10.835  -2.231  0.00  0.00    +0.187 C 
ATOM     21  C   UNL     1       0.514 -12.198  -1.675  0.00  0.00    +0.053 C 
BRANCH  20  22
ATOM     22  O   UNL     1      -1.189 -10.485  -1.722  0.00  0.00    -0.486 OA
BRANCH  22  23
ATOM     23  C   UNL     1      -2.269 -10.968  -2.391  0.00  0.00    +0.139 A 
ATOM     24  C   UNL     1      -2.095 -11.856  -3.442  0.00  0.00    +0.047 A 
ATOM     25  C   UNL     1      -3.194 -12.347  -4.120  0.00  0.00    +0.004 A 
ATOM     26  C   UNL     1      -4.468 -11.953  -3.752  0.00  0.00    +0.002 A 
ATOM     27  C   UNL     1      -4.645 -11.068  -2.705  0.00  0.00    +0.023 A 
ATOM     28  C   UNL     1      -3.549 -10.579  -2.019  0.00  0.00    +0.083 A 
ATOM     29 CL   UNL     1      -3.772  -9.473  -0.700  0.00  0.00    -0.080 Cl
ENDBRANCH  22  23
ENDBRANCH  20  22
ENDBRANCH  19  20
ENDBRANCH  17  19
ENDBRANCH   5  15
BRANCH   1  30
ATOM     30  C   UNL     1       0.839  -2.012  -1.141  0.00  0.00    +0.099 C 
BRANCH  30  31
ATOM     31  C   UNL     1       0.705  -0.488  -1.181  0.00  0.00    -0.006 C 
ATOM     32  C   UNL     1      -0.117  -0.080  -2.405  0.00  0.00    +0.008 C 
BRANCH  31  34
ATOM     33  C   UNL     1      -0.018   1.526   0.109  0.00  0.00    +0.004 C 
ATOM     34  C   UNL     1       0.004  -0.004   0.090  0.00  0.00    +0.000 C 
ENDBRANCH  31  34
ENDBRANCH  30  31
ENDBRANCH   1  30
TORSDOF 8
