REMARK  Name = ZINC59466093
REMARK  8 active torsions:
REMARK  status: ('A' for Active; 'I' for Inactive)
REMARK    1  A    between atoms: C_1  and  C_2
REMARK    2  A    between atoms: C_3  and  C_21
REMARK    3  A    between atoms: C_4  and  N_20
REMARK    4  A    between atoms: C_6  and  C_7
REMARK    5  A    between atoms: C_7  and  C_19
REMARK    6  A    between atoms: N_8  and  N_9
REMARK    7  A    between atoms: C_10  and  C_12
REMARK    8  A    between atoms: C_15  and  O_18
REMARK                            x       y       z     vdW  Elec       q    Type
REMARK                         _______ _______ _______ _____ _____    ______ ____
ROOT
ATOM      1  C   UNL     1       0.030  -0.250   2.542  0.00  0.00    +0.070 C 
ATOM      2  N   UNL     1       0.015   1.029   2.786  0.00  0.00    -0.184 NA
ATOM      3  C   UNL     1       0.054  -1.234   3.683  0.00  0.00    +0.068 C 
ENDROOT
BRANCH   1   9
ATOM      4  C   UNL     1      -0.018   1.503   0.010  0.00  0.00    +0.046 C 
ATOM      5  C   UNL     1       0.002  -0.004   0.002  0.00  0.00    -0.021 A 
ATOM      6  C   UNL     1       0.007  -0.734  -1.186  0.00  0.00    +0.068 A 
ATOM      7  C   UNL     1       0.026  -2.124  -1.088  0.00  0.00    +0.076 A 
ATOM      8  S   UNL     1       0.038  -2.411   0.566  0.00  0.00    -0.072 S 
ATOM      9  C   UNL     1       0.023  -0.732   1.158  0.00  0.00    +0.040 A 
BRANCH   6  10
ATOM     10  C   UNL     1      -0.009  -0.064  -2.490  0.00  0.00    +0.244 C 
ATOM     11  O   UNL     1       1.038   0.230  -3.037  0.00  0.00    -0.270 OA
ATOM     12  N   UNL     1      -1.184   0.228  -3.084  0.00  0.00    -0.325 N 
ATOM     13  H   UNL     1      -2.018  -0.006  -2.648  0.00  0.00    +0.145 HD
ATOM     14  H   UNL     1      -1.194   0.671  -3.946  0.00  0.00    +0.145 HD
ENDBRANCH   6  10
BRANCH   7  15
ATOM     15  N   UNL     1       0.034  -3.048  -2.112  0.00  0.00    -0.352 N 
ATOM     16  H   UNL     1       0.025  -2.749  -3.035  0.00  0.00    +0.143 HD
ATOM     17  H   UNL     1       0.048  -3.996  -1.909  0.00  0.00    +0.143 HD
ENDBRANCH   7  15
ENDBRANCH   1   9
BRANCH   2  18
ATOM     18  N   UNL     1       0.021   1.489   4.109  0.00  0.00    -0.203 N 
ATOM     19  C   UNL     1       0.006   2.813   4.362  0.00  0.00    +0.263 C 
ATOM     20  O   UNL     1      -0.013   3.608   3.441  0.00  0.00    -0.268 OA
ATOM     21  H   UNL     1       0.037   0.856   4.843  0.00  0.00    +0.178 HD
BRANCH  19  22
ATOM     22  C   UNL     1       0.013   3.299   5.755  0.00  0.00    +0.039 A 
ATOM     23  C   UNL     1       0.041   2.387   6.814  0.00  0.00    +0.016 A 
ATOM     24  C   UNL     1       0.048   2.844   8.114  0.00  0.00    +0.046 A 
ATOM     25  C   UNL     1       0.026   4.210   8.372  0.00  0.00    +0.117 A 
ATOM     26  C   UNL     1      -0.003   5.119   7.321  0.00  0.00    +0.046 A 
ATOM     27  C   UNL     1      -0.003   4.671   6.019  0.00  0.00    +0.016 A 
BRANCH  25  28
ATOM     28  O   UNL     1       0.032   4.656   9.654  0.00  0.00    -0.507 OA
ATOM     29  H   UNL     1       0.917   4.801  10.015  0.00  0.00    +0.292 HD
ENDBRANCH  25  28
ENDBRANCH  19  22
ENDBRANCH   2  18
TORSDOF 6
