REMARK  Name = ZINC05684982
REMARK  4 active torsions:
REMARK  status: ('A' for Active; 'I' for Inactive)
REMARK    1  A    between atoms: C_4  and  C_7
REMARK    2  A    between atoms: C_10  and  C_26
REMARK    3  A    between atoms: C_11  and  N_25
REMARK    4  A    between atoms: C_14  and  C_19
REMARK                            x       y       z     vdW  Elec       q    Type
REMARK                         _______ _______ _______ _____ _____    ______ ____
ROOT
ATOM      1  C   UNL     1       2.513   3.906   0.519  0.00  0.00    +0.196 C 
ATOM      2  C   UNL     1       2.511   4.609  -0.838  0.00  0.00    +0.038 A 
ATOM      3  C   UNL     1       2.734   4.194  -2.247  0.00  0.00    +0.102 A 
ATOM      4  C   UNL     1       2.583   5.346  -2.997  0.00  0.00    +0.196 A 
ATOM      5  O   UNL     1       2.302   6.344  -2.159  0.00  0.00    -0.443 OA
ATOM      6  C   UNL     1       2.257   5.910  -0.865  0.00  0.00    +0.142 A 
ATOM      7  C   UNL     1       1.986   6.602   0.475  0.00  0.00    +0.227 C 
ATOM      8  S   UNL     1       2.599   5.342   1.669  0.00  0.00    -0.006 S 
ATOM      9  O   UNL     1       1.648   5.173   2.710  0.00  0.00    -0.172 OA
ATOM     10  O   UNL     1       3.958   5.613   1.987  0.00  0.00    -0.172 OA
ENDROOT
BRANCH   1  14
ATOM     11  C   UNL     1      -1.088   1.684   1.103  0.00  0.00    +0.000 A 
ATOM     12  C   UNL     1      -0.266   1.962   2.179  0.00  0.00    +0.000 A 
ATOM     13  C   UNL     1       0.901   2.680   1.989  0.00  0.00    +0.006 A 
ATOM     14  C   UNL     1       1.242   3.124   0.725  0.00  0.00    -0.019 A 
ATOM     15  C   UNL     1       0.416   2.850  -0.349  0.00  0.00    +0.006 A 
ATOM     16  C   UNL     1      -0.749   2.131  -0.160  0.00  0.00    +0.000 A 
ENDBRANCH   1  14
BRANCH   7  17
ATOM     17  C   UNL     1       0.512   6.854   0.665  0.00  0.00    -0.016 A 
ATOM     18  C   UNL     1      -0.403   5.859   0.377  0.00  0.00    +0.006 A 
ATOM     19  C   UNL     1      -1.754   6.089   0.556  0.00  0.00    +0.000 A 
ATOM     20  C   UNL     1      -2.191   7.318   1.014  0.00  0.00    +0.000 A 
ATOM     21  C   UNL     1      -1.276   8.316   1.296  0.00  0.00    +0.000 A 
ATOM     22  C   UNL     1       0.075   8.084   1.122  0.00  0.00    +0.006 A 
ENDBRANCH   7  17
BRANCH   3  23
ATOM     23  C   UNL     1       3.048   2.849  -2.738  0.00  0.00    +0.247 C 
ATOM     24  O   UNL     1       2.149   2.088  -3.045  0.00  0.00    -0.270 OA
ATOM     25  N   UNL     1       4.332   2.455  -2.848  0.00  0.00    -0.325 N 
ATOM     26  H   UNL     1       5.049   3.062  -2.603  0.00  0.00    +0.145 HD
ATOM     27  H   UNL     1       4.540   1.565  -3.173  0.00  0.00    +0.145 HD
ENDBRANCH   3  23
BRANCH   4  28
ATOM     28  N   UNL     1       2.702   5.445  -4.365  0.00  0.00    -0.329 N 
ATOM     29  H   UNL     1       2.910   4.658  -4.892  0.00  0.00    +0.145 HD
ATOM     30  H   UNL     1       2.578   6.302  -4.802  0.00  0.00    +0.145 HD
ENDBRANCH   4  28
TORSDOF 4
