REMARK  Name = ZINC21233515
REMARK  6 active torsions:
REMARK  status: ('A' for Active; 'I' for Inactive)
REMARK    1  A    between atoms: C_1  and  C_2
REMARK    2  A    between atoms: C_2  and  N_3
REMARK    3  A    between atoms: C_7  and  C_9
REMARK    4  A    between atoms: C_9  and  C_11
REMARK    5  A    between atoms: C_9  and  S_12
REMARK    6  A    between atoms: S_12  and  C_13
REMARK                            x       y       z     vdW  Elec       q    Type
REMARK                         _______ _______ _______ _____ _____    ______ ____
ROOT
ATOM      1  C   UNL     1       2.752   5.767  -1.207  0.00  0.00    +0.192 A 
ATOM      2  N   UNL     1       1.449   5.535  -1.264  0.00  0.00    -0.207 NA
ATOM      3  C   UNL     1       0.873   4.426  -0.806  0.00  0.00    +0.129 A 
ATOM      4  C   UNL     1       1.748   3.459  -0.230  0.00  0.00    +0.051 A 
ATOM      5  C   UNL     1       1.379   2.173   0.339  0.00  0.00    -0.025 A 
ATOM      6  C   UNL     1       2.386   1.416   0.831  0.00  0.00    -0.004 A 
ATOM      7  S   UNL     1       3.860   2.369   0.565  0.00  0.00    -0.073 S 
ATOM      8  C   UNL     1       3.129   3.778  -0.204  0.00  0.00    +0.115 A 
ATOM      9  N   UNL     1       3.623   4.903  -0.680  0.00  0.00    -0.214 NA
ATOM     10  C   UNL     1       2.277   0.064   1.465  0.00  0.00    +0.043 C 
ATOM     11  C   UNL     1       0.805  -0.194   1.815  0.00  0.00    +0.005 C 
ATOM     12  C   UNL     1      -0.056   0.160   0.599  0.00  0.00    +0.005 C 
ATOM     13  C   UNL     1      -0.063   1.675   0.392  0.00  0.00    +0.037 C 
ATOM     14  N   UNL     1      -0.493   4.224  -0.884  0.00  0.00    -0.343 N 
ATOM     15  H   UNL     1      -0.935   3.295  -0.495  0.00  0.00    +0.144 HD
ATOM     16  H   UNL     1      -1.138   4.992  -1.335  0.00  0.00    +0.144 HD
ENDROOT
BRANCH   1  17
ATOM     17  S   UNL     1       3.364   7.286  -1.857  0.00  0.00    -0.073 S 
BRANCH  17  18
ATOM     18  C   UNL     1       1.814   8.036  -2.415  0.00  0.00    +0.137 C 
ATOM     19  C   UNL     1       0.919   8.319  -1.207  0.00  0.00    +0.029 C 
BRANCH  18  24
ATOM     20  N   UNL     1       0.552  11.537  -5.458  0.00  0.00    -0.299 N 
ATOM     21  C   UNL     1       1.464  11.009  -4.618  0.00  0.00    +0.306 C 
ATOM     22  O   UNL     1       2.525  11.574  -4.439  0.00  0.00    -0.252 OA
ATOM     23  N   UNL     1       1.199   9.855  -3.975  0.00  0.00    -0.239 N 
ATOM     24  C   UNL     1       2.110   9.327  -3.134  0.00  0.00    +0.233 C 
ATOM     25  O   UNL     1       3.169   9.890  -2.956  0.00  0.00    -0.274 OA
ATOM     26  H   UNL     1      -0.408  11.026  -5.620  0.00  0.00    +0.150 HD
ATOM     27  H   UNL     1       0.238   9.343  -4.136  0.00  0.00    +0.159 HD
BRANCH  20  29
ATOM     28  C   UNL     1      -0.349  13.168  -7.042  0.00  0.00    +0.024 C 
ATOM     29  C   UNL     1       0.841  12.792  -6.157  0.00  0.00    +0.102 C 
ENDBRANCH  20  29
ENDBRANCH  18  24
ENDBRANCH  17  18
ENDBRANCH   1  17
TORSDOF 4
