REMARK  Name = ZINC49369041
REMARK  7 active torsions:
REMARK  status: ('A' for Active; 'I' for Inactive)
REMARK    1  A    between atoms: C_3  and  N_31
REMARK    2  A    between atoms: C_6  and  C_7
REMARK    3  A    between atoms: C_7  and  C_8
REMARK    4  A    between atoms: C_19  and  S_21
REMARK    5  A    between atoms: S_21  and  C_22
REMARK    6  A    between atoms: C_22  and  C_23
REMARK    7  A    between atoms: N_25  and  C_26
REMARK                            x       y       z     vdW  Elec       q    Type
REMARK                         _______ _______ _______ _____ _____    ______ ____
ROOT
ATOM      1  C   UNL     1      -1.738  -1.025  -1.408  0.00  0.00    +0.220 C 
ATOM      2  O   UNL     1      -1.069  -0.616  -2.334  0.00  0.00    -0.275 OA
ATOM      3  N   UNL     1      -2.878  -1.701  -1.647  0.00  0.00    -0.298 N 
ATOM      4  C   UNL     1      -3.701  -2.197  -0.535  0.00  0.00    +0.126 C 
ATOM      5  C   UNL     1      -5.126  -1.654  -0.700  0.00  0.00    +0.126 C 
ATOM      6  N   UNL     1      -5.570  -1.909  -2.077  0.00  0.00    -0.305 N 
ATOM      7  C   UNL     1      -4.747  -1.414  -3.189  0.00  0.00    +0.126 C 
ATOM      8  C   UNL     1      -3.325  -1.952  -3.025  0.00  0.00    +0.126 C 
ATOM      9  C   UNL     1      -6.746  -2.607  -2.324  0.00  0.00    +0.185 A 
ATOM     10  N   UNL     1      -7.609  -3.118  -1.468  0.00  0.00    -0.125 NA
ATOM     11  N   UNL     1      -8.723  -3.779  -1.931  0.00  0.00    -0.133 NA
ATOM     12  C   UNL     1      -8.923  -3.898  -3.230  0.00  0.00    +0.160 A 
ATOM     13  S   UNL     1      -7.497  -3.044  -3.885  0.00  0.00    -0.024 S 
ENDROOT
BRANCH   1  14
ATOM     14  C   UNL     1      -1.293  -0.775   0.010  0.00  0.00    +0.131 C 
BRANCH  14  20
ATOM     15  C   UNL     1      -0.017   1.378   0.010  0.00  0.00    +0.006 A 
ATOM     16  C   UNL     1       1.171   2.086   0.002  0.00  0.00    +0.033 A 
ATOM     17  C   UNL     1       2.377   1.411  -0.013  0.00  0.00    +0.126 A 
ATOM     18  C   UNL     1       2.396   0.029  -0.020  0.00  0.00    +0.033 A 
ATOM     19  C   UNL     1       1.208  -0.679  -0.012  0.00  0.00    +0.006 A 
ATOM     20  C   UNL     1       0.002  -0.004   0.002  0.00  0.00    -0.038 A 
BRANCH  17  21
ATOM     21  N   UNL     1       3.649   2.168  -0.022  0.00  0.00    +0.056 N 
ATOM     22  O   UNL     1       3.633   3.377  -0.016  0.00  0.00    -0.126 OA
ATOM     23  O   UNL     1       4.704   1.578  -0.035  0.00  0.00    -0.126 OA
ENDBRANCH  17  21
ENDBRANCH  14  20
ENDBRANCH   1  14
BRANCH  12  24
ATOM     24  S   UNL     1     -10.246  -4.683  -4.089  0.00  0.00    -0.088 S 
BRANCH  24  25
ATOM     25  C   UNL     1     -11.314  -5.316  -2.766  0.00  0.00    +0.172 C 
BRANCH  25  26
ATOM     26  C   UNL     1     -12.501  -6.020  -3.372  0.00  0.00    +0.224 C 
ATOM     27  O   UNL     1     -12.614  -6.088  -4.578  0.00  0.00    -0.275 OA
ATOM     28  N   UNL     1     -13.435  -6.574  -2.575  0.00  0.00    -0.312 N 
ATOM     29  H   UNL     1     -13.344  -6.519  -1.611  0.00  0.00    +0.149 HD
BRANCH  28  30
ATOM     30  C   UNL     1     -14.588  -7.259  -3.164  0.00  0.00    +0.073 C 
ATOM     31  C   UNL     1     -14.247  -8.740  -3.425  0.00  0.00    +0.022 C 
ATOM     32  C   UNL     1     -14.787  -9.481  -2.177  0.00  0.00    +0.002 C 
ATOM     33  C   UNL     1     -16.103  -8.723  -1.873  0.00  0.00    +0.002 C 
ATOM     34  C   UNL     1     -15.769  -7.248  -2.176  0.00  0.00    +0.022 C 
ENDBRANCH  28  30
ENDBRANCH  25  26
ENDBRANCH  24  25
ENDBRANCH  12  24
TORSDOF 7
