REMARK  Name = ZINC09504837
REMARK  9 active torsions:
REMARK  status: ('A' for Active; 'I' for Inactive)
REMARK    1  A    between atoms: C_1  and  C_2
REMARK    2  A    between atoms: C_2  and  C_3
REMARK    3  A    between atoms: C_8  and  C_12
REMARK    4  A    between atoms: C_8  and  C_13
REMARK    5  A    between atoms: N_21  and  C_22
REMARK    6  A    between atoms: C_22  and  C_23
REMARK    7  A    between atoms: N_25  and  C_26
REMARK    8  A    between atoms: C_26  and  C_27
REMARK    9  A    between atoms: C_27  and  C_28
REMARK                            x       y       z     vdW  Elec       q    Type
REMARK                         _______ _______ _______ _____ _____    ______ ____
ROOT
ATOM      1  C   UNL     1      -3.245   5.735  -4.503  0.00  0.00    +0.109 C 
ATOM      2  C   UNL     1      -4.082   5.916  -5.751  0.00  0.00    +0.032 C 
ATOM      3  C   UNL     1      -5.398   5.633  -5.889  0.00  0.00    +0.017 C 
ATOM      4  C   UNL     1      -6.142   5.926  -7.169  0.00  0.00    +0.058 C 
ATOM      5  C   UNL     1      -5.201   5.758  -8.363  0.00  0.00    -0.023 C 
ATOM      6  C   UNL     1      -4.025   6.723  -8.174  0.00  0.00    +0.086 C 
ATOM      7  C   UNL     1      -3.374   6.452  -6.851  0.00  0.00    +0.163 C 
ATOM      8  O   UNL     1      -2.192   6.704  -6.720  0.00  0.00    -0.292 OA
ATOM      9  C   UNL     1      -4.686   4.319  -8.419  0.00  0.00    +0.011 C 
ATOM     10  C   UNL     1      -5.942   6.094  -9.659  0.00  0.00    +0.011 C 
ATOM     11  N   UNL     1      -6.113   5.072  -4.867  0.00  0.00    -0.316 N 
ATOM     12  C   UNL     1      -5.655   3.863  -4.330  0.00  0.00    +0.052 A 
ATOM     13  C   UNL     1      -6.272   2.649  -4.562  0.00  0.00    +0.025 A 
ATOM     14  C   UNL     1      -5.694   1.497  -4.051  0.00  0.00    +0.002 A 
ATOM     15  C   UNL     1      -4.521   1.565  -3.321  0.00  0.00    +0.002 A 
ATOM     16  C   UNL     1      -3.913   2.787  -3.077  0.00  0.00    +0.025 A 
ATOM     17  C   UNL     1      -4.498   3.932  -3.579  0.00  0.00    +0.052 A 
ATOM     18  N   UNL     1      -3.988   5.216  -3.366  0.00  0.00    -0.312 N 
ATOM     19  H   UNL     1      -6.914   5.499  -4.524  0.00  0.00    +0.152 HD
ENDROOT
BRANCH   1  21
ATOM     20  C   UNL     1      -2.648   3.560  -5.578  0.00  0.00    +0.006 C 
ATOM     21  C   UNL     1      -2.100   4.770  -4.820  0.00  0.00    +0.024 C 
ENDBRANCH   1  21
BRANCH  18  22
ATOM     22  C   UNL     1      -3.178   5.264  -2.142  0.00  0.00    +0.201 C 
BRANCH  22  23
ATOM     23  C   UNL     1      -4.062   5.028  -0.945  0.00  0.00    +0.230 C 
ATOM     24  O   UNL     1      -5.264   4.945  -1.086  0.00  0.00    -0.274 OA
ATOM     25  N   UNL     1      -3.517   4.909   0.282  0.00  0.00    -0.314 N 
ATOM     26  H   UNL     1      -2.556   4.975   0.395  0.00  0.00    +0.149 HD
BRANCH  25  27
ATOM     27  C   UNL     1      -4.377   4.679   1.446  0.00  0.00    +0.109 C 
BRANCH  27  28
ATOM     28  C   UNL     1      -3.515   4.583   2.706  0.00  0.00    +0.056 C 
BRANCH  28  29
ATOM     29  C   UNL     1      -4.399   4.347   3.903  0.00  0.00    -0.021 A 
ATOM     30  C   UNL     1      -4.882   5.282   4.736  0.00  0.00    +0.087 A 
ATOM     31  N   UNL     1      -5.651   4.694   5.703  0.00  0.00    -0.360 N 
ATOM     32  H   UNL     1      -6.107   5.167   6.417  0.00  0.00    +0.165 HD
ATOM     33  C   UNL     1      -5.683   3.331   5.511  0.00  0.00    +0.047 A 
ATOM     34  C   UNL     1      -4.899   3.053   4.375  0.00  0.00    +0.003 A 
ATOM     35  C   UNL     1      -4.749   1.736   3.937  0.00  0.00    +0.010 A 
ATOM     36  C   UNL     1      -5.364   0.722   4.616  0.00  0.00    +0.001 A 
ATOM     37  C   UNL     1      -6.138   0.990   5.736  0.00  0.00    +0.002 A 
ATOM     38  C   UNL     1      -6.300   2.283   6.186  0.00  0.00    +0.026 A 
ENDBRANCH  28  29
ENDBRANCH  27  28
ENDBRANCH  25  27
ENDBRANCH  22  23
ENDBRANCH  18  22
TORSDOF 6
