REMARK  Name = ZINC20681389
REMARK  3 active torsions:
REMARK  status: ('A' for Active; 'I' for Inactive)
REMARK    1  A    between atoms: C_3  and  C_9
REMARK    2  A    between atoms: C_4  and  O_8
REMARK    3  A    between atoms: C_6  and  O_7
REMARK                            x       y       z     vdW  Elec       q    Type
REMARK                         _______ _______ _______ _____ _____    ______ ____
ROOT
ATOM      1  C   UNL     1       4.855   0.002   0.002  0.00  0.00    +0.108 C 
ATOM      2  C   UNL     1       4.529   1.145  -0.937  0.00  0.00    +0.029 C 
ATOM      3  C   UNL     1       5.617   2.191  -1.203  0.00  0.00    +0.033 C 
ATOM      4  C   UNL     1       4.755   3.445  -1.469  0.00  0.00    -0.030 C 
ATOM      5  C   UNL     1       3.571   3.327  -0.879  0.00  0.00    -0.023 C 
ATOM      6  C   UNL     1       3.542   2.046  -0.132  0.00  0.00    +0.049 C 
ATOM      7  C   UNL     1       2.303   1.259   0.053  0.00  0.00    -0.017 A 
ATOM      8  C   UNL     1       1.062   1.860   0.098  0.00  0.00    +0.026 A 
ATOM      9  C   UNL     1      -0.078   1.102   0.293  0.00  0.00    +0.043 A 
ATOM     10  C   UNL     1       0.030  -0.270   0.442  0.00  0.00    +0.041 A 
ATOM     11  C   UNL     1       1.265  -0.878   0.390  0.00  0.00    +0.063 A 
ATOM     12  C   UNL     1       2.425  -0.126   0.192  0.00  0.00    +0.050 A 
ATOM     13  N   UNL     1       3.637  -0.813   0.131  0.00  0.00    -0.335 N 
ATOM     14 CL   UNL     1       1.380  -2.601   0.571  0.00  0.00    -0.082 Cl
ATOM     15 CL   UNL     1      -1.636   1.866   0.344  0.00  0.00    -0.083 Cl
ATOM     16  H   UNL     1       3.711  -1.910   0.174  0.00  0.00    +0.147 HD
ENDROOT
BRANCH   1  19
ATOM     17  C   UNL     1       6.707  -2.649  -1.945  0.00  0.00    +0.046 A 
ATOM     18  C   UNL     1       5.685  -1.884  -1.418  0.00  0.00    +0.012 A 
ATOM     19  C   UNL     1       5.973  -0.831  -0.572  0.00  0.00    +0.015 A 
ATOM     20  C   UNL     1       7.291  -0.535  -0.253  0.00  0.00    +0.125 A 
ATOM     21  C   UNL     1       8.318  -1.305  -0.777  0.00  0.00    +0.091 A 
ATOM     22  C   UNL     1       8.027  -2.361  -1.626  0.00  0.00    +0.120 A 
BRANCH  22  23
ATOM     23  O   UNL     1       9.032  -3.114  -2.146  0.00  0.00    -0.507 OA
ATOM     24  H   UNL     1      10.077  -2.885  -1.892  0.00  0.00    +0.292 HD
ENDBRANCH  22  23
BRANCH  20  25
ATOM     25  O   UNL     1       7.574   0.504   0.575  0.00  0.00    -0.506 OA
ATOM     26  H   UNL     1       8.619   0.738   0.827  0.00  0.00    +0.292 HD
ENDBRANCH  20  25
ENDBRANCH   1  19
TORSDOF 3
