REMARK  Name = ZINC07428931
REMARK  8 active torsions:
REMARK  status: ('A' for Active; 'I' for Inactive)
REMARK    1  A    between atoms: C_1  and  C_2
REMARK    2  A    between atoms: C_4  and  C_28
REMARK    3  A    between atoms: C_5  and  C_27
REMARK    4  A    between atoms: C_6  and  S_9
REMARK    5  A    between atoms: C_7  and  C_8
REMARK    6  A    between atoms: S_9  and  N_12
REMARK    7  A    between atoms: N_12  and  N_13
REMARK    8  A    between atoms: C_14  and  C_16
REMARK                            x       y       z     vdW  Elec       q    Type
REMARK                         _______ _______ _______ _____ _____    ______ ____
ROOT
ATOM      1  N   UNL     1       1.381  -3.042   3.329  0.00  0.00    -0.108 NA
ATOM      2  H   UNL     1       1.649  -3.954   3.521  0.00  0.00    +0.172 HD
ENDROOT
BRANCH   1   3
ATOM      3  N   UNL     1       2.302  -1.996   3.470  0.00  0.00    -0.229 N 
ATOM      4  C   UNL     1       2.946  -1.818   4.641  0.00  0.00    +0.272 C 
ATOM      5  O   UNL     1       2.727  -2.564   5.572  0.00  0.00    -0.270 OA
ATOM      6  H   UNL     1       2.476  -1.400   2.726  0.00  0.00    +0.171 HD
BRANCH   4   7
ATOM      7  C   UNL     1       3.936  -0.693   4.793  0.00  0.00    +0.297 C 
ATOM      8  C   UNL     1       3.209   0.654   4.691  0.00  0.00    +0.283 C 
ATOM      9  O   UNL     1       4.175   1.699   4.853  0.00  0.00    -0.484 OA
ATOM     10  C   UNL     1       5.057   1.562   5.880  0.00  0.00    +0.162 A 
ATOM     11  C   UNL     1       5.766   2.669   6.320  0.00  0.00    +0.049 A 
ATOM     12  C   UNL     1       6.668   2.545   7.360  0.00  0.00    +0.004 A 
ATOM     13  C   UNL     1       6.865   1.317   7.965  0.00  0.00    +0.004 A 
ATOM     14  C   UNL     1       6.160   0.210   7.532  0.00  0.00    +0.049 A 
ATOM     15  C   UNL     1       5.253   0.328   6.489  0.00  0.00    +0.163 A 
ATOM     16  O   UNL     1       4.561  -0.770   6.079  0.00  0.00    -0.472 OA
ENDBRANCH   4   7
ENDBRANCH   1   3
BRANCH   1  17
ATOM     17  S   UNL     1      -0.167  -2.722   2.835  0.00  0.00    +0.074 S 
ATOM     18  O   UNL     1      -0.678  -1.731   3.716  0.00  0.00    -0.152 OA
ATOM     19  O   UNL     1      -0.803  -3.979   2.651  0.00  0.00    -0.152 OA
BRANCH  17  25
ATOM     20  C   UNL     1       0.424  -3.027  -2.349  0.00  0.00    +0.044 C 
ATOM     21  C   UNL     1       0.215  -2.171  -1.127  0.00  0.00    -0.045 A 
ATOM     22  C   UNL     1       0.107  -0.799  -1.254  0.00  0.00    +0.007 A 
ATOM     23  C   UNL     1      -0.085  -0.014  -0.132  0.00  0.00    -0.045 A 
ATOM     24  C   UNL     1      -0.168  -0.601   1.116  0.00  0.00    -0.021 A 
ATOM     25  C   UNL     1      -0.061  -1.973   1.243  0.00  0.00    +0.113 A 
ATOM     26  C   UNL     1       0.127  -2.759   0.121  0.00  0.00    -0.021 A 
ATOM     27  C   UNL     1       0.238  -4.255   0.259  0.00  0.00    +0.046 C 
ATOM     28  C   UNL     1      -0.376   0.255   2.339  0.00  0.00    +0.046 C 
ATOM     29  C   UNL     1      -0.202   1.482  -0.271  0.00  0.00    +0.044 C 
ENDBRANCH  17  25
ENDBRANCH   1  17
TORSDOF 4
