REMARK  Name = ZINC06184633
REMARK  2 active torsions:
REMARK  status: ('A' for Active; 'I' for Inactive)
REMARK    1  A    between atoms: C_6  and  S_7
REMARK    2  A    between atoms: S_7  and  C_10
REMARK                            x       y       z     vdW  Elec       q    Type
REMARK                         _______ _______ _______ _____ _____    ______ ____
ROOT
ATOM      1  C   UNL     1      -1.235   3.138   0.030  0.00  0.00    +0.029 A 
ATOM      2  C   UNL     1      -0.085   3.869   0.023  0.00  0.00    +0.030 A 
ATOM      3  C   UNL     1       1.153   3.212   0.008  0.00  0.00    +0.078 A 
ATOM      4  C   UNL     1       1.186   1.796   0.000  0.00  0.00    +0.042 A 
ATOM      5  C   UNL     1      -0.013   1.076   0.008  0.00  0.00    +0.040 A 
ATOM      6  C   UNL     1      -1.201   1.747   0.017  0.00  0.00    +0.094 A 
ATOM      7  C   UNL     1       2.450   1.154  -0.014  0.00  0.00    +0.129 A 
ATOM      8  N   UNL     1       3.538   1.908  -0.020  0.00  0.00    -0.199 NA
ATOM      9  C   UNL     1       3.462   3.236  -0.013  0.00  0.00    +0.215 A 
ATOM     10  N   UNL     1       2.313   3.885   0.001  0.00  0.00    -0.215 NA
ATOM     11  N   UNL     1       4.636   3.968  -0.019  0.00  0.00    -0.327 N 
ATOM     12  N   UNL     1       2.543  -0.221  -0.022  0.00  0.00    -0.343 N 
ATOM     13  H   UNL     1       5.491   3.511  -0.029  0.00  0.00    +0.145 HD
ATOM     14  H   UNL     1       4.603   4.937  -0.014  0.00  0.00    +0.145 HD
ATOM     15  H   UNL     1       1.738  -0.762  -0.017  0.00  0.00    +0.144 HD
ATOM     16  H   UNL     1       3.414  -0.648  -0.032  0.00  0.00    +0.144 HD
ENDROOT
BRANCH   6  17
ATOM     17  S   UNL     1      -2.711   0.840   0.020  0.00  0.00    +0.025 S 
ATOM     18  O   UNL     1      -3.703   1.701  -0.522  0.00  0.00    -0.164 OA
ATOM     19  O   UNL     1      -2.421  -0.434  -0.539  0.00  0.00    -0.164 OA
BRANCH  17  20
ATOM     20  C   UNL     1      -3.150   0.563   1.704  0.00  0.00    +0.095 A 
ATOM     21  C   UNL     1      -2.710  -0.575   2.354  0.00  0.00    +0.029 A 
ATOM     22  C   UNL     1      -3.048  -0.791   3.677  0.00  0.00    +0.023 A 
ATOM     23  C   UNL     1      -3.837   0.127   4.347  0.00  0.00    +0.059 A 
ATOM     24  C   UNL     1      -4.282   1.264   3.695  0.00  0.00    +0.061 A 
ATOM     25  C   UNL     1      -3.938   1.481   2.372  0.00  0.00    +0.048 A 
ATOM     26 CL   UNL     1      -5.272   2.417   4.535  0.00  0.00    -0.082 Cl
ATOM     27 CL   UNL     1      -4.268  -0.146   6.007  0.00  0.00    -0.082 Cl
ENDBRANCH  17  20
ENDBRANCH   6  17
TORSDOF 2
