REMARK  Name = ZINC11243632
REMARK  9 active torsions:
REMARK  status: ('A' for Active; 'I' for Inactive)
REMARK    1  A    between atoms: C_1  and  C_2
REMARK    2  A    between atoms: C_2  and  C_3
REMARK    3  A    between atoms: C_2  and  C_4
REMARK    4  A    between atoms: C_4  and  C_6
REMARK    5  A    between atoms: C_4  and  O_12
REMARK    6  A    between atoms: O_12  and  C_13
REMARK    7  A    between atoms: C_13  and  C_15
REMARK    8  A    between atoms: N_18  and  S_21
REMARK    9  A    between atoms: S_21  and  C_24
REMARK                            x       y       z     vdW  Elec       q    Type
REMARK                         _______ _______ _______ _____ _____    ______ ____
ROOT
ATOM      1  C   UNL     1      -4.696   1.324   0.931  0.00  0.00    +0.311 C 
ATOM      2  O   UNL     1      -4.709   0.216   1.414  0.00  0.00    -0.251 OA
ENDROOT
BRANCH   1   3
ATOM      3  C   UNL     1      -5.893   2.227   1.083  0.00  0.00    +0.100 C 
ATOM      4  C   UNL     1      -5.479   3.503   1.819  0.00  0.00    +0.032 C 
ATOM      5  C   UNL     1      -6.690   4.433   1.941  0.00  0.00    +0.110 C 
ATOM      6  N   UNL     1      -7.789   3.697   2.582  0.00  0.00    -0.177 NA
ATOM      7  C   UNL     1      -8.207   2.411   2.008  0.00  0.00    +0.110 C 
ATOM      8  C   UNL     1      -6.978   1.504   1.885  0.00  0.00    +0.032 C 
BRANCH   6   9
ATOM      9  S   UNL     1      -8.542   4.306   3.925  0.00  0.00    +0.061 S 
ATOM     10  O   UNL     1      -8.342   5.713   3.900  0.00  0.00    -0.153 OA
ATOM     11  O   UNL     1      -9.836   3.721   3.965  0.00  0.00    -0.153 OA
BRANCH   9  12
ATOM     12  C   UNL     1      -7.670   3.699   5.331  0.00  0.00    +0.106 A 
ATOM     13  C   UNL     1      -8.050   2.506   5.917  0.00  0.00    +0.030 A 
ATOM     14  C   UNL     1      -7.364   2.027   7.017  0.00  0.00    +0.022 A 
ATOM     15  C   UNL     1      -6.303   2.746   7.537  0.00  0.00    +0.041 A 
ATOM     16  C   UNL     1      -5.927   3.943   6.954  0.00  0.00    +0.022 A 
ATOM     17  C   UNL     1      -6.611   4.419   5.851  0.00  0.00    +0.030 A 
ATOM     18 CL   UNL     1      -5.444   2.148   8.922  0.00  0.00    -0.084 Cl
ENDBRANCH   9  12
ENDBRANCH   6   9
ENDBRANCH   1   3
BRANCH   1  19
ATOM     19  O   UNL     1      -3.615   1.750   0.259  0.00  0.00    -0.451 OA
BRANCH  19  20
ATOM     20  C   UNL     1      -2.499   0.828   0.152  0.00  0.00    +0.264 C 
BRANCH  20  21
ATOM     21  C   UNL     1      -1.211   1.605   0.073  0.00  0.00    +0.261 C 
ATOM     22  O   UNL     1      -0.148   1.022   0.110  0.00  0.00    -0.271 OA
ATOM     23  N   UNL     1      -1.240   2.948  -0.039  0.00  0.00    -0.237 N 
ATOM     24  C   UNL     1      -0.091   3.652  -0.003  0.00  0.00    +0.303 C 
ATOM     25  O   UNL     1       0.972   3.075   0.125  0.00  0.00    -0.253 OA
ATOM     26  N   UNL     1      -0.120   4.995  -0.110  0.00  0.00    -0.313 N 
ATOM     27  H   UNL     1      -2.087   3.408  -0.142  0.00  0.00    +0.159 HD
ATOM     28  H   UNL     1      -0.968   5.455  -0.212  0.00  0.00    +0.146 HD
ATOM     29  H   UNL     1       0.707   5.502  -0.084  0.00  0.00    +0.146 HD
ENDBRANCH  20  21
BRANCH  20  31
ATOM     30  C   UNL     1      -1.557  -1.083  -1.154  0.00  0.00    +0.011 C 
ATOM     31  C   UNL     1      -2.660  -0.023  -1.109  0.00  0.00    +0.033 C 
ATOM     32  C   UNL     1      -4.027  -0.711  -1.090  0.00  0.00    +0.011 C 
ENDBRANCH  20  31
ENDBRANCH  19  20
ENDBRANCH   1  19
TORSDOF 7
