REMARK  Name = ZINC67372812
REMARK  5 active torsions:
REMARK  status: ('A' for Active; 'I' for Inactive)
REMARK    1  A    between atoms: C_6  and  C_11
REMARK    2  A    between atoms: C_11  and  C_13
REMARK    3  A    between atoms: C_11  and  O_28
REMARK    4  A    between atoms: C_13  and  N_14
REMARK    5  A    between atoms: C_17  and  C_25
REMARK                            x       y       z     vdW  Elec       q    Type
REMARK                         _______ _______ _______ _____ _____    ______ ____
ROOT
ATOM      1  N   UNL     1       6.679  -3.728  -1.522  0.00  0.00    -0.326 N 
ATOM      2  C   UNL     1       7.218  -4.160  -2.725  0.00  0.00    +0.120 A 
ATOM      3  C   UNL     1       6.522  -3.891  -3.912  0.00  0.00    +0.057 A 
ATOM      4  C   UNL     1       7.050  -4.317  -5.122  0.00  0.00    +0.049 A 
ATOM      5  C   UNL     1       8.325  -5.034  -5.084  0.00  0.00    +0.013 A 
ATOM      6  C   UNL     1       8.936  -5.502  -6.252  0.00  0.00    +0.011 A 
ATOM      7  C   UNL     1      10.124  -6.165  -6.171  0.00  0.00    +0.001 A 
ATOM      8  C   UNL     1      10.737  -6.383  -4.939  0.00  0.00    +0.002 A 
ATOM      9  C   UNL     1      10.168  -5.941  -3.784  0.00  0.00    +0.028 A 
ATOM     10  C   UNL     1       8.943  -5.252  -3.829  0.00  0.00    +0.074 A 
ATOM     11  N   UNL     1       8.364  -4.801  -2.712  0.00  0.00    -0.232 NA
ATOM     12  H   UNL     1       7.147  -3.901  -0.690  0.00  0.00    +0.148 HD
ENDROOT
BRANCH   4  13
ATOM     13  C   UNL     1       6.351  -4.057  -6.400  0.00  0.00    +0.242 C 
ATOM     14  O   UNL     1       6.883  -4.348  -7.453  0.00  0.00    -0.270 OA
ATOM     15  N   UNL     1       5.125  -3.497  -6.396  0.00  0.00    -0.325 N 
ATOM     16  H   UNL     1       4.701  -3.265  -5.556  0.00  0.00    +0.145 HD
ATOM     17  H   UNL     1       4.667  -3.326  -7.234  0.00  0.00    +0.145 HD
ENDBRANCH   4  13
BRANCH   1  18
ATOM     18  C   UNL     1       5.402  -3.010  -1.507  0.00  0.00    +0.139 C 
BRANCH  18  19
ATOM     19  C   UNL     1       5.036  -2.650  -0.065  0.00  0.00    +0.161 C 
BRANCH  19  25
ATOM     20  C   UNL     1       0.055   1.460  -0.008  0.00  0.00    +0.001 A 
ATOM     21  C   UNL     1       1.247   2.181  -0.022  0.00  0.00    +0.001 A 
ATOM     22  C   UNL     1       2.450   1.545  -0.037  0.00  0.00    +0.008 A 
ATOM     23  C   UNL     1       2.495   0.141  -0.037  0.00  0.00    -0.018 A 
ATOM     24  C   UNL     1       3.718  -0.551  -0.051  0.00  0.00    +0.014 A 
ATOM     25  C   UNL     1       3.722  -1.912  -0.050  0.00  0.00    -0.017 A 
ATOM     26  C   UNL     1       2.530  -2.633  -0.035  0.00  0.00    +0.007 A 
ATOM     27  C   UNL     1       1.326  -1.997  -0.022  0.00  0.00    +0.009 A 
ATOM     28  C   UNL     1       1.282  -0.593  -0.022  0.00  0.00    -0.018 A 
ATOM     29  C   UNL     1       0.059   0.099  -0.008  0.00  0.00    +0.008 A 
ENDBRANCH  19  25
BRANCH  19  30
ATOM     30  O   UNL     1       4.920  -3.845   0.710  0.00  0.00    -0.386 OA
ATOM     31  H   UNL     1       4.244  -4.458   0.389  0.00  0.00    +0.210 HD
ENDBRANCH  19  30
ENDBRANCH  18  19
ENDBRANCH   1  18
TORSDOF 5
