REMARK  Name = ZINC40824448
REMARK  8 active torsions:
REMARK  status: ('A' for Active; 'I' for Inactive)
REMARK    1  A    between atoms: C_1  and  C_2
REMARK    2  A    between atoms: C_5  and  C_8
REMARK    3  A    between atoms: C_8  and  N_9
REMARK    4  A    between atoms: C_10  and  C_12
REMARK    5  A    between atoms: C_13  and  C_26
REMARK    6  A    between atoms: N_21  and  N_22
REMARK    7  A    between atoms: N_22  and  C_23
REMARK    8  A    between atoms: C_23  and  N_25
REMARK                            x       y       z     vdW  Elec       q    Type
REMARK                         _______ _______ _______ _____ _____    ______ ____
ROOT
ATOM      1  C   UNL     1       3.100  -6.539  -0.051  0.00  0.00    +0.193 A 
ATOM      2  C   UNL     1       3.499  -7.846  -0.066  0.00  0.00    +0.009 A 
ATOM      3  C   UNL     1       4.899  -7.827  -0.071  0.00  0.00    +0.042 A 
ATOM      4  C   UNL     1       5.295  -6.511  -0.057  0.00  0.00    +0.115 A 
ATOM      5  O   UNL     1       4.200  -5.753  -0.053  0.00  0.00    -0.454 OA
ATOM      6  C   UNL     1       6.742  -6.088  -0.053  0.00  0.00    +0.075 C 
ATOM      7  C   UNL     1       7.609  -7.248   0.444  0.00  0.00    +0.014 C 
ATOM      8  C   UNL     1       7.319  -8.522  -0.358  0.00  0.00    +0.058 C 
ATOM      9  C   UNL     1       5.879  -8.936  -0.089  0.00  0.00    +0.070 C 
ATOM     10  N   UNL     1       5.536 -10.171   0.108  0.00  0.00    -0.185 NA
ATOM     11  C   UNL     1       2.611  -9.063  -0.074  0.00  0.00    +0.048 C 
ENDROOT
BRANCH   1  13
ATOM     12  N   UNL     1       1.447  -4.746  -0.032  0.00  0.00    -0.305 N 
ATOM     13  C   UNL     1       1.710  -6.067  -0.040  0.00  0.00    +0.280 C 
ATOM     14  O   UNL     1       0.795  -6.870  -0.040  0.00  0.00    -0.267 OA
ATOM     15  H   UNL     1       2.176  -4.106  -0.032  0.00  0.00    +0.149 HD
BRANCH  12  16
ATOM     16  C   UNL     1       0.059  -4.275  -0.021  0.00  0.00    +0.140 C 
BRANCH  16  21
ATOM     17  C   UNL     1      -0.018   1.503   0.010  0.00  0.00    +0.044 C 
ATOM     18  C   UNL     1       0.002  -0.004   0.002  0.00  0.00    -0.050 A 
ATOM     19  C   UNL     1       0.006  -0.689  -1.199  0.00  0.00    +0.003 A 
ATOM     20  C   UNL     1       0.025  -2.071  -1.206  0.00  0.00    +0.005 A 
ATOM     21  C   UNL     1       0.040  -2.768  -0.013  0.00  0.00    -0.030 A 
ATOM     22  C   UNL     1       0.037  -2.084   1.188  0.00  0.00    +0.005 A 
ATOM     23  C   UNL     1       0.023  -0.702   1.195  0.00  0.00    +0.003 A 
ENDBRANCH  16  21
ENDBRANCH  12  16
ENDBRANCH   1  13
BRANCH  10  24
ATOM     24  N   UNL     1       6.507 -11.181   0.079  0.00  0.00    -0.218 N 
ATOM     25  H   UNL     1       7.435 -10.957  -0.088  0.00  0.00    +0.176 HD
BRANCH  24  26
ATOM     26  C   UNL     1       6.150 -12.465   0.285  0.00  0.00    +0.147 C 
ATOM     27  S   UNL     1       7.336 -13.699   0.250  0.00  0.00    -0.017 S 
BRANCH  26  28
ATOM     28  N   UNL     1       4.860 -12.777   0.518  0.00  0.00    -0.339 N 
ATOM     29  H   UNL     1       4.188 -12.078   0.538  0.00  0.00    +0.144 HD
ATOM     30  H   UNL     1       4.603 -13.700   0.665  0.00  0.00    +0.144 HD
ENDBRANCH  26  28
ENDBRANCH  24  26
ENDBRANCH  10  24
TORSDOF 6
