REMARK  Name = ZINC22792102
REMARK  11 active torsions:
REMARK  status: ('A' for Active; 'I' for Inactive)
REMARK    1  A    between atoms: C_1  and  C_2
REMARK    2  A    between atoms: C_2  and  C_4
REMARK    3  A    between atoms: C_2  and  N_19
REMARK    4  A    between atoms: N_6  and  C_7
REMARK    5  A    between atoms: C_8  and  C_17
REMARK    6  A    between atoms: N_23  and  C_26
REMARK    7  A    between atoms: C_26  and  C_27
REMARK    8  A    between atoms: N_29  and  C_30
REMARK    9  A    between atoms: C_30  and  C_31
REMARK   10  A    between atoms: C_30  and  C_32
REMARK   11  A    between atoms: C_30  and  C_33
REMARK                            x       y       z     vdW  Elec       q    Type
REMARK                         _______ _______ _______ _____ _____    ______ ____
ROOT
ATOM      1  C   UNL     1      -0.019   1.526   0.010  0.00  0.00    +0.034 C 
ATOM      2  C   UNL     1       0.002  -0.004   0.002  0.00  0.00    +0.140 C 
ENDROOT
BRANCH   2   3
ATOM      3  N   UNL     1      -1.376  -0.512   0.012  0.00  0.00    -0.294 NA
ATOM      4  C   UNL     1      -2.110  -0.084  -1.203  0.00  0.00    +0.083 C 
ATOM      5  C   UNL     1      -3.233  -1.058  -1.452  0.00  0.00    -0.003 C 
ATOM      6  C   UNL     1      -4.553  -0.619  -0.798  0.00  0.00    -0.077 C 
ATOM      7  N   UNL     1      -4.362  -0.074   0.564  0.00  0.00    +0.386 N 
ATOM      8  C   UNL     1      -3.408  -0.842   1.332  0.00  0.00    -0.063 C 
ATOM      9  C   UNL     1      -2.026  -0.175   1.204  0.00  0.00    +0.066 C 
ATOM     10  H   UNL     1      -4.034   0.878   0.493  0.00  0.00    -0.081 HD
BRANCH   7  11
ATOM     11  C   UNL     1      -5.652  -0.080   1.266  0.00  0.00    +0.019 C 
BRANCH  11  12
ATOM     12  C   UNL     1      -6.601   0.869   0.579  0.00  0.00    +0.197 C 
ATOM     13  O   UNL     1      -6.238   1.489  -0.398  0.00  0.00    -0.278 OA
ATOM     14  N   UNL     1      -7.853   1.029   1.051  0.00  0.00    -0.312 N 
ATOM     15  H   UNL     1      -8.144   0.533   1.833  0.00  0.00    +0.149 HD
BRANCH  14  16
ATOM     16  C   UNL     1      -8.775   1.951   0.384  0.00  0.00    +0.026 C 
ATOM     17  C   UNL     1      -8.981   1.507  -1.066  0.00  0.00    +0.031 C 
ATOM     18  C   UNL     1     -10.120   1.945   1.114  0.00  0.00    +0.031 C 
ATOM     19  C   UNL     1      -8.189   3.364   0.406  0.00  0.00    +0.031 C 
ENDBRANCH  14  16
ENDBRANCH  11  12
ENDBRANCH   7  11
ENDBRANCH   2   3
BRANCH   2  20
ATOM     20  C   UNL     1       0.707  -0.490  -1.238  0.00  0.00    +0.235 C 
ATOM     21  O   UNL     1       0.120  -1.191  -2.034  0.00  0.00    -0.274 OA
ATOM     22  N   UNL     1       1.991  -0.146  -1.462  0.00  0.00    -0.278 N 
ATOM     23  H   UNL     1       2.461   0.415  -0.825  0.00  0.00    +0.155 HD
BRANCH  22  24
ATOM     24  C   UNL     1       2.641  -0.593  -2.603  0.00  0.00    +0.090 A 
ATOM     25  C   UNL     1       3.946  -0.348  -2.992  0.00  0.00    +0.084 A 
ATOM     26  C   UNL     1       4.394  -0.936  -4.245  0.00  0.00    -0.018 A 
ATOM     27  C   UNL     1       3.447  -1.658  -4.881  0.00  0.00    -0.004 A 
ATOM     28  S   UNL     1       2.026  -1.564  -3.828  0.00  0.00    -0.077 S 
ATOM     29  C   UNL     1       3.567  -2.374  -6.189  0.00  0.00    +0.043 C 
ATOM     30  C   UNL     1       4.848  -3.220  -6.184  0.00  0.00    +0.005 C 
ATOM     31  C   UNL     1       5.998  -2.365  -6.709  0.00  0.00    +0.001 C 
ATOM     32  C   UNL     1       5.798  -0.906  -6.306  0.00  0.00    +0.005 C 
ATOM     33  C   UNL     1       5.806  -0.766  -4.787  0.00  0.00    +0.037 C 
BRANCH  25  34
ATOM     34  C   UNL     1       4.821   0.455  -2.191  0.00  0.00    +0.102 C 
ATOM     35  N   UNL     1       5.515   1.091  -1.556  0.00  0.00    -0.191 NA
ENDBRANCH  25  34
ENDBRANCH  22  24
ENDBRANCH   2  20
TORSDOF 7
