REMARK  Name = ZINC35918186
REMARK  10 active torsions:
REMARK  status: ('A' for Active; 'I' for Inactive)
REMARK    1  A    between atoms: C_1  and  C_2
REMARK    2  A    between atoms: N_4  and  C_5
REMARK    3  A    between atoms: N_4  and  C_29
REMARK    4  A    between atoms: C_5  and  C_6
REMARK    5  A    between atoms: N_9  and  C_19
REMARK    6  A    between atoms: C_11  and  C_13
REMARK    7  A    between atoms: C_19  and  C_20
REMARK    8  A    between atoms: C_23  and  O_28
REMARK    9  A    between atoms: C_24  and  O_26
REMARK   10  A    between atoms: O_26  and  C_27
REMARK                            x       y       z     vdW  Elec       q    Type
REMARK                         _______ _______ _______ _____ _____    ______ ____
ROOT
ATOM      1  C   UNL     1      -0.295  -2.854   1.599  0.00  0.00    -0.005 C 
ATOM      2  C   UNL     1       1.094  -3.176   2.190  0.00  0.00    -0.073 C 
ATOM      3  N   UNL     1       0.852  -4.305   3.124  0.00  0.00    +0.383 N 
ATOM      4  C   UNL     1      -0.138  -5.158   2.417  0.00  0.00    -0.070 C 
ATOM      5  C   UNL     1      -1.108  -4.157   1.748  0.00  0.00    +0.005 C 
ATOM      6  H   UNL     1       0.468  -3.967   3.994  0.00  0.00    -0.081 HD
ENDROOT
BRANCH   5   7
ATOM      7  C   UNL     1      -1.536  -4.665   0.396  0.00  0.00    -0.046 A 
ATOM      8  C   UNL     1      -2.866  -4.604   0.024  0.00  0.00    +0.004 A 
ATOM      9  C   UNL     1      -3.259  -5.069  -1.217  0.00  0.00    +0.000 A 
ATOM     10  C   UNL     1      -2.322  -5.596  -2.086  0.00  0.00    +0.000 A 
ATOM     11  C   UNL     1      -0.992  -5.656  -1.714  0.00  0.00    +0.000 A 
ATOM     12  C   UNL     1      -0.598  -5.186  -0.475  0.00  0.00    +0.004 A 
ENDBRANCH   5   7
BRANCH   1  13
ATOM     13  C   UNL     1      -0.170  -2.473   0.123  0.00  0.00    +0.110 C 
BRANCH  13  17
ATOM     14  C   UNL     1       2.534   0.227   0.019  0.00  0.00    +0.109 C 
ATOM     15  C   UNL     1       1.835  -1.104  -0.092  0.00  0.00    +0.213 C 
ATOM     16  O   UNL     1       2.480  -2.115  -0.272  0.00  0.00    -0.276 OA
ATOM     17  N   UNL     1       0.492  -1.171   0.010  0.00  0.00    -0.298 N 
BRANCH  17  18
ATOM     18  C   UNL     1      -0.304   0.059   0.007  0.00  0.00    +0.076 C 
ATOM     19  C   UNL     1      -0.172   0.749  -1.352  0.00  0.00    +0.022 C 
ATOM     20  C   UNL     1      -1.004   2.033  -1.355  0.00  0.00    +0.002 C 
ATOM     21  C   UNL     1      -0.500   2.970  -0.256  0.00  0.00    +0.000 C 
ATOM     22  C   UNL     1      -0.632   2.280   1.103  0.00  0.00    +0.002 C 
ATOM     23  C   UNL     1       0.200   0.996   1.106  0.00  0.00    +0.022 C 
ENDBRANCH  17  18
ENDBRANCH  13  17
ENDBRANCH   1  13
BRANCH   3  24
ATOM     24  C   UNL     1       2.095  -5.051   3.363  0.00  0.00    -0.043 C 
BRANCH  24  25
ATOM     25  C   UNL     1       1.852  -6.112   4.405  0.00  0.00    -0.060 A 
ATOM     26  C   UNL     1       2.035  -5.819   5.743  0.00  0.00    +0.005 A 
ATOM     27  C   UNL     1       1.813  -6.790   6.703  0.00  0.00    +0.049 A 
ATOM     28  C   UNL     1       1.406  -8.058   6.324  0.00  0.00    +0.158 A 
ATOM     29  C   UNL     1       1.221  -8.353   4.977  0.00  0.00    +0.161 A 
ATOM     30  C   UNL     1       1.440  -7.375   4.020  0.00  0.00    +0.051 A 
BRANCH  29  31
ATOM     31  O   UNL     1       0.821  -9.597   4.600  0.00  0.00    -0.491 OA
ATOM     32  C   UNL     1       0.651  -9.827   3.200  0.00  0.00    +0.277 C 
ENDBRANCH  29  31
BRANCH  28  33
ATOM     33  O   UNL     1       1.188  -9.014   7.267  0.00  0.00    -0.503 OA
ATOM     34  H   UNL     1       0.281  -9.037   7.601  0.00  0.00    +0.292 HD
ENDBRANCH  28  33
ENDBRANCH  24  25
ENDBRANCH   3  24
TORSDOF 8
