REMARK  Name = ZINC40778493
REMARK  3 active torsions:
REMARK  status: ('A' for Active; 'I' for Inactive)
REMARK    1  A    between atoms: C_11  and  N_25
REMARK    2  A    between atoms: C_12  and  N_16
REMARK    3  A    between atoms: N_16  and  C_17
REMARK                            x       y       z     vdW  Elec       q    Type
REMARK                         _______ _______ _______ _____ _____    ______ ____
ROOT
ATOM      1  C   UNL     1       0.165   0.515  -1.642  0.00  0.00    +0.002 A 
ATOM      2  C   UNL     1       1.368   1.067  -2.059  0.00  0.00    +0.002 A 
ATOM      3  C   UNL     1       2.556   0.673  -1.480  0.00  0.00    +0.028 A 
ATOM      4  C   UNL     1       2.546  -0.281  -0.472  0.00  0.00    +0.075 A 
ATOM      5  C   UNL     1       1.328  -0.839  -0.050  0.00  0.00    +0.089 A 
ATOM      6  C   UNL     1       0.137  -0.426  -0.652  0.00  0.00    +0.030 A 
ATOM      7  N   UNL     1       1.620  -1.731   0.933  0.00  0.00    -0.235 NA
ATOM      8  C   UNL     1       2.904  -1.756   1.135  0.00  0.00    +0.206 A 
ATOM      9  N   UNL     1       3.527  -0.880   0.296  0.00  0.00    -0.281 N 
ATOM     10  C   UNL     1       4.900  -0.636   0.225  0.00  0.00    +0.165 A 
ATOM     11  C   UNL     1       5.806  -1.694   0.158  0.00  0.00    +0.109 A 
ATOM     12  C   UNL     1       7.169  -1.393   0.088  0.00  0.00    +0.149 A 
ATOM     13  N   UNL     1       7.547  -0.118   0.088  0.00  0.00    -0.219 NA
ATOM     14  C   UNL     1       6.658   0.852   0.152  0.00  0.00    +0.225 A 
ATOM     15  N   UNL     1       5.364   0.611   0.213  0.00  0.00    -0.216 NA
ENDROOT
BRANCH  11  16
ATOM     16  N   UNL     1       5.361  -3.024   0.162  0.00  0.00    -0.352 N 
ATOM     17  H   UNL     1       4.412  -3.218   0.110  0.00  0.00    +0.143 HD
ATOM     18  H   UNL     1       6.002  -3.750   0.216  0.00  0.00    +0.143 HD
ENDBRANCH  11  16
BRANCH  12  19
ATOM     19  N   UNL     1       8.114  -2.410   0.021  0.00  0.00    -0.297 N 
ATOM     20  H   UNL     1       7.828  -3.333  -0.061  0.00  0.00    +0.154 HD
BRANCH  19  21
ATOM     21  C   UNL     1       9.477  -2.102   0.071  0.00  0.00    +0.052 A 
ATOM     22  C   UNL     1       9.897  -0.884   0.589  0.00  0.00    +0.044 A 
ATOM     23  C   UNL     1      11.245  -0.583   0.637  0.00  0.00    +0.043 A 
ATOM     24  C   UNL     1      12.176  -1.494   0.170  0.00  0.00    +0.021 A 
ATOM     25  C   UNL     1      11.761  -2.708  -0.347  0.00  0.00    +0.023 A 
ATOM     26  C   UNL     1      10.415  -3.017  -0.393  0.00  0.00    +0.062 A 
ATOM     27 CL   UNL     1       9.896  -4.544  -1.036  0.00  0.00    -0.082 Cl
ATOM     28 CL   UNL     1      11.771   0.939   1.285  0.00  0.00    -0.083 Cl
ENDBRANCH  19  21
ENDBRANCH  12  19
TORSDOF 3
