REMARK  Name = ZINC38547722
REMARK  7 active torsions:
REMARK  status: ('A' for Active; 'I' for Inactive)
REMARK    1  A    between atoms: C_1  and  C_2
REMARK    2  A    between atoms: C_3  and  C_29
REMARK    3  A    between atoms: C_5  and  N_21
REMARK    4  A    between atoms: C_6  and  C_7
REMARK    5  A    between atoms: C_7  and  C_9
REMARK    6  A    between atoms: C_7  and  N_14
REMARK    7  A    between atoms: C_22  and  C_24
REMARK                            x       y       z     vdW  Elec       q    Type
REMARK                         _______ _______ _______ _____ _____    ______ ____
ROOT
ATOM      1  C   UNL     1       0.061   1.349   0.025  0.00  0.00    +0.045 C 
ATOM      2  C   UNL     1       0.283  -0.133   0.177  0.00  0.00    -0.033 A 
ATOM      3  C   UNL     1       0.491  -0.911  -0.912  0.00  0.00    -0.008 A 
ATOM      4  S   UNL     1       0.691  -2.529  -0.183  0.00  0.00    -0.078 S 
ATOM      5  C   UNL     1       0.485  -2.062   1.528  0.00  0.00    +0.078 A 
ATOM      6  C   UNL     1       0.285  -0.717   1.430  0.00  0.00    +0.009 A 
ATOM      7  C   UNL     1       0.540  -0.514  -2.365  0.00  0.00    +0.052 C 
ENDROOT
BRANCH   5   8
ATOM      8  N   UNL     1       0.524  -2.865   2.669  0.00  0.00    -0.273 N 
ATOM      9  C   UNL     1       0.659  -4.200   2.550  0.00  0.00    +0.284 C 
ATOM     10  O   UNL     1       0.747  -4.707   1.446  0.00  0.00    -0.266 OA
ATOM     11  H   UNL     1       0.454  -2.462   3.549  0.00  0.00    +0.156 HD
BRANCH   9  12
ATOM     12  C   UNL     1       0.700  -5.044   3.748  0.00  0.00    +0.189 A 
ATOM     13  C   UNL     1       0.837  -6.402   3.769  0.00  0.00    +0.054 A 
ATOM     14  C   UNL     1       0.826  -6.788   5.119  0.00  0.00    +0.042 A 
ATOM     15  C   UNL     1       0.683  -5.662   5.853  0.00  0.00    +0.196 A 
ATOM     16  O   UNL     1       0.614  -4.613   5.024  0.00  0.00    -0.458 OA
ENDBRANCH   9  12
ENDBRANCH   5   8
BRANCH   6  17
ATOM     17  C   UNL     1       0.064   0.117   2.666  0.00  0.00    +0.141 C 
BRANCH  17  18
ATOM     18  N   UNL     1      -0.900  -0.553   3.542  0.00  0.00    -0.319 N 
ATOM     19  C   UNL     1      -1.567   0.171   4.523  0.00  0.00    +0.097 A 
ATOM     20  C   UNL     1      -1.318   1.532   4.665  0.00  0.00    +0.041 A 
ATOM     21  C   UNL     1      -1.989   2.240   5.646  0.00  0.00    +0.005 A 
ATOM     22  C   UNL     1      -2.889   1.560   6.455  0.00  0.00    +0.018 A 
ATOM     23  C   UNL     1      -3.088   0.208   6.259  0.00  0.00    +0.084 A 
ATOM     24  N   UNL     1      -2.438  -0.441   5.312  0.00  0.00    -0.350 N 
ATOM     25  H   UNL     1      -1.074  -1.502   3.436  0.00  0.00    +0.148 HD
ATOM     26  H   UNL     1      -2.599  -1.390   5.192  0.00  0.00    +0.166 HD
ENDBRANCH  17  18
BRANCH  17  27
ATOM     27  C   UNL     1       1.371   0.289   3.396  0.00  0.00    +0.014 A 
ATOM     28  C   UNL     1       2.216   1.348   3.396  0.00  0.00    +0.013 A 
ATOM     29  C   UNL     1       3.373   1.284   4.151  0.00  0.00    +0.008 A 
ATOM     30  C   UNL     1       3.627   0.163   4.869  0.00  0.00    +0.045 A 
ATOM     31  S   UNL     1       2.204  -0.848   4.493  0.00  0.00    -0.099 S 
ENDBRANCH  17  27
ENDBRANCH   6  17
TORSDOF 5
