REMARK  Name = ZINC12717534
REMARK  17 active torsions:
REMARK  status: ('A' for Active; 'I' for Inactive)
REMARK    1  A    between atoms: C_1  and  C_2
REMARK    2  A    between atoms: C_2  and  C_3
REMARK    3  A    between atoms: C_3  and  C_4
REMARK    4  A    between atoms: C_3  and  C_5
REMARK    5  A    between atoms: C_3  and  N_6
REMARK    6  A    between atoms: C_7  and  C_11
REMARK    7  A    between atoms: C_11  and  N_73
REMARK    8  A    between atoms: C_12  and  C_13
REMARK    9  A    between atoms: C_12  and  N_73
REMARK   10  A    between atoms: C_13  and  C_14
REMARK   11  A    between atoms: C_17  and  O_22
REMARK   12  A    between atoms: C_18  and  O_20
REMARK   13  A    between atoms: O_20  and  C_21
REMARK   14  A    between atoms: O_22  and  C_23
REMARK   15  A    between atoms: C_24  and  C_25
REMARK   16  A    between atoms: C_24  and  N_73
REMARK   17  A    between atoms: C_30  and  C_37
REMARK                            x       y       z     vdW  Elec       q    Type
REMARK                         _______ _______ _______ _____ _____    ______ ____
ROOT
ATOM      1  N   UNL     1      -0.575   0.941  -2.781  0.00  0.00    +0.387 N 
ATOM      2  H   UNL     1       0.393   1.090  -3.091  0.00  0.00    -0.081 HD
ENDROOT
BRANCH   1   3
ATOM      3  C   UNL     1      -0.839  -0.511  -2.713  0.00  0.00    +0.001 C 
BRANCH   3   5
ATOM      4  N   UNL     1      -2.796  -1.973  -1.979  0.00  0.00    -0.226 N 
ATOM      5  C   UNL     1      -2.237  -0.771  -2.213  0.00  0.00    +0.136 A 
ATOM      6  N   UNL     1      -3.146   0.129  -1.928  0.00  0.00    -0.115 NA
ATOM      7  N   UNL     1      -4.206  -0.488  -1.534  0.00  0.00    -0.023 NA
ATOM      8  N   UNL     1      -3.997  -1.758  -1.561  0.00  0.00    -0.043 NA
BRANCH   4   9
ATOM      9  C   UNL     1      -2.159  -3.280  -2.162  0.00  0.00    +0.061 C 
ATOM     10  C   UNL     1      -1.648  -3.401  -3.599  0.00  0.00    +0.036 C 
ATOM     11  C   UNL     1      -0.986  -3.416  -1.190  0.00  0.00    +0.036 C 
BRANCH   9  13
ATOM     12  C   UNL     1      -2.487  -5.749  -1.967  0.00  0.00    +0.006 C 
ATOM     13  C   UNL     1      -3.179  -4.387  -1.889  0.00  0.00    +0.026 C 
ENDBRANCH   9  13
ENDBRANCH   4   9
ENDBRANCH   3   5
ENDBRANCH   1   3
BRANCH   1  14
ATOM     14  C   UNL     1      -0.750   1.550  -1.445  0.00  0.00    -0.073 C 
BRANCH  14  15
ATOM     15  C   UNL     1       0.356   1.037  -0.520  0.00  0.00    +0.017 C 
BRANCH  15  16
ATOM     16  C   UNL     1       0.203   1.666   0.841  0.00  0.00    -0.045 A 
ATOM     17  C   UNL     1       0.843   2.858   1.125  0.00  0.00    +0.007 A 
ATOM     18  C   UNL     1       0.702   3.441   2.371  0.00  0.00    +0.049 A 
ATOM     19  C   UNL     1      -0.073   2.826   3.341  0.00  0.00    +0.161 A 
ATOM     20  C   UNL     1      -0.712   1.623   3.056  0.00  0.00    +0.162 A 
ATOM     21  C   UNL     1      -0.571   1.046   1.804  0.00  0.00    +0.053 A 
BRANCH  20  22
ATOM     22  O   UNL     1      -1.474   1.015   4.004  0.00  0.00    -0.491 OA
ATOM     23  C   UNL     1      -2.101  -0.217   3.641  0.00  0.00    +0.277 C 
ENDBRANCH  20  22
BRANCH  19  24
ATOM     24  O   UNL     1      -0.209   3.396   4.568  0.00  0.00    -0.491 OA
ATOM     25  C   UNL     1       0.476   4.630   4.789  0.00  0.00    +0.277 C 
ENDBRANCH  19  24
ENDBRANCH  15  16
ENDBRANCH  14  15
ENDBRANCH   1  14
BRANCH   1  26
ATOM     26  C   UNL     1      -1.492   1.577  -3.750  0.00  0.00    -0.037 C 
BRANCH  26  27
ATOM     27  C   UNL     1      -1.159   1.079  -5.133  0.00  0.00    +0.001 A 
ATOM     28  C   UNL     1      -1.871   0.060  -5.674  0.00  0.00    +0.017 A 
ATOM     29  C   UNL     1      -1.523  -0.399  -7.020  0.00  0.00    -0.001 A 
ATOM     30  C   UNL     1      -2.222  -1.446  -7.631  0.00  0.00    +0.010 A 
ATOM     31  C   UNL     1      -1.872  -1.851  -8.887  0.00  0.00    +0.004 A 
ATOM     32  C   UNL     1      -0.829  -1.234  -9.564  0.00  0.00    -0.048 A 
ATOM     33  C   UNL     1      -0.127  -0.200  -8.982  0.00  0.00    +0.029 A 
ATOM     34  C   UNL     1      -0.465   0.229  -7.703  0.00  0.00    +0.049 A 
ATOM     35  N   UNL     1       0.220   1.261  -7.097  0.00  0.00    -0.322 N 
ATOM     36  H   UNL     1       0.949   1.693  -7.569  0.00  0.00    +0.169 HD
ATOM     37  C   UNL     1      -0.111   1.680  -5.863  0.00  0.00    +0.251 A 
ATOM     38  O   UNL     1       0.514   2.598  -5.360  0.00  0.00    -0.268 OA
ATOM     39  C   UNL     1      -0.461  -1.698 -10.950  0.00  0.00    +0.044 C 
ENDBRANCH  26  27
ENDBRANCH   1  26
TORSDOF 11
