REMARK  Name = ZINC39453220
REMARK  3 active torsions:
REMARK  status: ('A' for Active; 'I' for Inactive)
REMARK    1  A    between atoms: C_1  and  S_2
REMARK    2  A    between atoms: S_2  and  C_3
REMARK    3  A    between atoms: C_19  and  O_20
REMARK                            x       y       z     vdW  Elec       q    Type
REMARK                         _______ _______ _______ _____ _____    ______ ____
ROOT
ATOM      1  C   UNL     1      -1.752  -0.467   0.016  0.00  0.00    +0.136 C 
ATOM      2  C   UNL     1      -2.004  -1.569  -1.018  0.00  0.00    +0.114 C 
ATOM      3  C   UNL     1      -1.833  -1.003  -2.403  0.00  0.00    +0.185 C 
ATOM      4  O   UNL     1      -1.454  -1.723  -3.305  0.00  0.00    -0.290 OA
ATOM      5  C   UNL     1      -2.110   0.359  -2.664  0.00  0.00    +0.120 A 
ATOM      6  C   UNL     1      -2.484   1.193  -1.629  0.00  0.00    +0.082 A 
ATOM      7  C   UNL     1      -2.779   2.611  -1.899  0.00  0.00    +0.100 A 
ATOM      8  C   UNL     1      -2.655   3.074  -3.236  0.00  0.00    +0.068 A 
ATOM      9  C   UNL     1      -2.919   4.401  -3.545  0.00  0.00    +0.029 A 
ATOM     10  C   UNL     1      -3.305   5.250  -2.500  0.00  0.00    +0.043 A 
ATOM     11  C   UNL     1      -3.414   4.705  -1.145  0.00  0.00    +0.075 A 
ATOM     12  N   UNL     1      -3.144   3.418  -0.921  0.00  0.00    -0.244 NA
ATOM     13  C   UNL     1      -3.803   5.563  -0.102  0.00  0.00    +0.028 A 
ATOM     14  C   UNL     1      -4.069   6.872  -0.365  0.00  0.00    +0.006 A 
ATOM     15  C   UNL     1      -3.969   7.399  -1.648  0.00  0.00    +0.046 A 
ATOM     16  C   UNL     1      -3.593   6.614  -2.716  0.00  0.00    +0.126 A 
ATOM     17  C   UNL     1      -2.244   2.122  -4.280  0.00  0.00    +0.270 A 
ATOM     18  O   UNL     1      -2.131   2.497  -5.433  0.00  0.00    -0.266 OA
ATOM     19  N   UNL     1      -1.993   0.840  -3.964  0.00  0.00    -0.243 N 
ATOM     20  I   UNL     1      -1.418  -0.452  -5.449  0.00  0.00    +0.068 I 
ATOM     21  N   UNL     1      -2.575   0.698  -0.342  0.00  0.00    -0.328 N 
ATOM     22  H   UNL     1      -3.167   1.108   0.308  0.00  0.00    +0.147 HD
ENDROOT
BRANCH   1  24
ATOM     23  C   UNL     1      -0.022   1.810   0.012  0.00  0.00    +0.086 C 
ATOM     24  S   UNL     1       0.002  -0.004   0.002  0.00  0.00    -0.142 S 
ENDBRANCH   1  24
BRANCH  16  25
ATOM     25  O   UNL     1      -3.500   7.146  -3.961  0.00  0.00    -0.506 OA
ATOM     26  H   UNL     1      -4.320   7.098  -4.471  0.00  0.00    +0.292 HD
ENDBRANCH  16  25
TORSDOF 2
