REMARK  Name = ZINC39024449
REMARK  5 active torsions:
REMARK  status: ('A' for Active; 'I' for Inactive)
REMARK    1  A    between atoms: C_1  and  C_2
REMARK    2  A    between atoms: C_2  and  C_3
REMARK    3  A    between atoms: C_3  and  N_4
REMARK    4  A    between atoms: C_11  and  O_29
REMARK    5  A    between atoms: C_13  and  C_17
REMARK                            x       y       z     vdW  Elec       q    Type
REMARK                         _______ _______ _______ _____ _____    ______ ____
ROOT
ATOM      1  N   UNL     1      -1.413  -1.998   0.005  0.00  0.00    -0.270 N 
ATOM      2  C   UNL     1      -1.410  -2.686  -1.213  0.00  0.00    +0.042 A 
ATOM      3  C   UNL     1      -1.043  -2.034  -2.382  0.00  0.00    +0.024 A 
ATOM      4  C   UNL     1      -1.041  -2.719  -3.581  0.00  0.00    +0.002 A 
ATOM      5  C   UNL     1      -1.404  -4.053  -3.618  0.00  0.00    +0.000 A 
ATOM      6  C   UNL     1      -1.770  -4.705  -2.455  0.00  0.00    +0.008 A 
ATOM      7  C   UNL     1      -1.774  -4.025  -1.253  0.00  0.00    +0.003 A 
ATOM      8  C   UNL     1      -2.172  -4.733   0.016  0.00  0.00    +0.167 C 
ATOM      9  C   UNL     1      -1.361  -4.177   1.187  0.00  0.00    +0.194 C 
ATOM     10  C   UNL     1      -1.393  -2.673   1.169  0.00  0.00    +0.235 C 
ATOM     11  O   UNL     1      -1.407  -2.061   2.216  0.00  0.00    -0.274 OA
ENDROOT
BRANCH   9  12
ATOM     12  C   UNL     1       0.069  -4.641   1.070  0.00  0.00    +0.233 C 
ATOM     13  O   UNL     1       0.404  -5.345   0.142  0.00  0.00    -0.274 OA
ATOM     14  N   UNL     1       0.975  -4.272   1.997  0.00  0.00    -0.264 N 
ATOM     15  C   UNL     1       2.288  -4.698   1.890  0.00  0.00    +0.165 A 
ATOM     16  N   UNL     1       2.837  -5.451   0.965  0.00  0.00    -0.225 NA
ATOM     17  C   UNL     1       4.144  -5.790   0.986  0.00  0.00    +0.080 A 
ATOM     18  C   UNL     1       4.854  -6.589   0.059  0.00  0.00    +0.029 A 
ATOM     19  C   UNL     1       6.190  -6.839   0.230  0.00  0.00    +0.002 A 
ATOM     20  C   UNL     1       6.892  -6.323   1.310  0.00  0.00    +0.001 A 
ATOM     21  C   UNL     1       6.230  -5.538   2.236  0.00  0.00    +0.017 A 
ATOM     22  C   UNL     1       4.891  -5.282   2.073  0.00  0.00    +0.041 A 
ATOM     23  S   UNL     1       3.670  -4.355   2.971  0.00  0.00    -0.052 S 
ATOM     24  H   UNL     1       0.707  -3.708   2.740  0.00  0.00    +0.157 HD
ENDBRANCH   9  12
BRANCH   8  25
ATOM     25  O   UNL     1      -1.916  -6.132  -0.118  0.00  0.00    -0.386 OA
ATOM     26  H   UNL     1      -2.400  -6.553  -0.843  0.00  0.00    +0.210 HD
ENDBRANCH   8  25
BRANCH   1  27
ATOM     27  C   UNL     1      -1.433  -0.534   0.013  0.00  0.00    +0.113 C 
BRANCH  27  29
ATOM     28  C   UNL     1      -0.019   1.526   0.010  0.00  0.00    +0.005 C 
ATOM     29  C   UNL     1       0.002  -0.004   0.002  0.00  0.00    +0.016 C 
ENDBRANCH  27  29
ENDBRANCH   1  27
TORSDOF 4
