REMARK  Name = ZINC07278931
REMARK  5 active torsions:
REMARK  status: ('A' for Active; 'I' for Inactive)
REMARK    1  A    between atoms: C_1  and  C_2
REMARK    2  A    between atoms: C_2  and  C_4
REMARK    3  A    between atoms: C_2  and  N_13
REMARK    4  A    between atoms: C_14  and  C_16
REMARK    5  A    between atoms: C_16  and  N_17
REMARK                            x       y       z     vdW  Elec       q    Type
REMARK                         _______ _______ _______ _____ _____    ______ ____
ROOT
ATOM      1  C   UNL     1      -1.813  -2.029  -2.511  0.00  0.00    +0.213 C 
ENDROOT
BRANCH   1   2
ATOM      2  N   UNL     1      -1.273  -1.303  -1.359  0.00  0.00    -0.215 N 
ATOM      3  C   UNL     1      -0.155  -0.544  -1.395  0.00  0.00    +0.251 C 
ATOM      4  O   UNL     1       0.566  -0.342  -2.348  0.00  0.00    -0.272 OA
ATOM      5  C   UNL     1       0.002  -0.004   0.002  0.00  0.00    +0.138 C 
ATOM      6  C   UNL     1      -0.019   1.530   0.011  0.00  0.00    +0.045 C 
ATOM      7  C   UNL     1       1.487   1.876  -0.002  0.00  0.00    +0.038 C 
ATOM      8  C   UNL     1       2.177   0.676   0.613  0.00  0.00    -0.042 A 
ATOM      9  C   UNL     1       1.317  -0.410   0.610  0.00  0.00    -0.012 A 
ATOM     10  C   UNL     1       1.744  -1.624   1.124  0.00  0.00    +0.006 A 
ATOM     11  C   UNL     1       3.018  -1.753   1.640  0.00  0.00    +0.000 A 
ATOM     12  C   UNL     1       3.874  -0.668   1.644  0.00  0.00    +0.000 A 
ATOM     13  C   UNL     1       3.453   0.543   1.131  0.00  0.00    +0.004 A 
ATOM     14  N   UNL     1      -1.133  -0.558   0.742  0.00  0.00    -0.281 N 
ATOM     15  C   UNL     1      -1.826  -1.307  -0.139  0.00  0.00    +0.310 C 
ATOM     16  O   UNL     1      -2.838  -1.919   0.142  0.00  0.00    -0.252 OA
ATOM     17  H   UNL     1      -1.344  -0.414   1.678  0.00  0.00    +0.152 HD
ENDBRANCH   1   2
BRANCH   1  19
ATOM     18  N   UNL     1      -1.570  -4.266  -3.538  0.00  0.00    -0.304 N 
ATOM     19  C   UNL     1      -1.217  -3.413  -2.557  0.00  0.00    +0.232 C 
ATOM     20  O   UNL     1      -0.420  -3.758  -1.710  0.00  0.00    -0.274 OA
ATOM     21  H   UNL     1      -2.207  -3.991  -4.215  0.00  0.00    +0.149 HD
BRANCH  18  23
ATOM     22  C   UNL     1      -1.799  -6.545  -2.679  0.00  0.00    +0.036 C 
ATOM     23  C   UNL     1      -0.990  -5.611  -3.582  0.00  0.00    +0.136 C 
BRANCH  23  24
ATOM     24  C   UNL     1      -1.025  -6.127  -4.998  0.00  0.00    +0.126 A 
ATOM     25  C   UNL     1      -0.044  -6.828  -5.583  0.00  0.00    +0.055 A 
ATOM     26  C   UNL     1      -0.505  -7.116  -6.947  0.00  0.00    +0.020 A 
ATOM     27  C   UNL     1       0.039  -7.794  -8.037  0.00  0.00    +0.011 A 
ATOM     28  C   UNL     1      -0.671  -7.885  -9.201  0.00  0.00    +0.001 A 
ATOM     29  C   UNL     1      -1.929  -7.307  -9.305  0.00  0.00    +0.004 A 
ATOM     30  C   UNL     1      -2.482  -6.633  -8.237  0.00  0.00    +0.047 A 
ATOM     31  C   UNL     1      -1.777  -6.529  -7.045  0.00  0.00    +0.135 A 
ATOM     32  O   UNL     1      -2.046  -5.955  -5.855  0.00  0.00    -0.458 OA
ENDBRANCH  23  24
ENDBRANCH  18  23
ENDBRANCH   1  19
TORSDOF 4
