REMARK  Name = ZINC07684220
REMARK  6 active torsions:
REMARK  status: ('A' for Active; 'I' for Inactive)
REMARK    1  A    between atoms: C_1  and  C_2
REMARK    2  A    between atoms: C_2  and  N_3
REMARK    3  A    between atoms: C_7  and  C_9
REMARK    4  A    between atoms: C_9  and  C_11
REMARK    5  A    between atoms: C_9  and  N_60
REMARK    6  A    between atoms: C_20  and  C_22
REMARK                            x       y       z     vdW  Elec       q    Type
REMARK                         _______ _______ _______ _____ _____    ______ ____
ROOT
ATOM      1  C   UNL     1       0.162   1.335   0.004  0.00  0.00    +0.051 C 
ENDROOT
BRANCH   1   6
ATOM      2  N   UNL     1       4.334   2.493   2.093  0.00  0.00    -0.299 N 
ATOM      3  C   UNL     1       3.453   2.678   1.090  0.00  0.00    +0.306 C 
ATOM      4  O   UNL     1       3.685   3.495   0.221  0.00  0.00    -0.252 OA
ATOM      5  N   UNL     1       2.315   1.957   1.051  0.00  0.00    -0.241 N 
ATOM      6  C   UNL     1       1.434   2.142   0.048  0.00  0.00    +0.211 C 
ATOM      7  O   UNL     1       1.666   2.957  -0.820  0.00  0.00    -0.277 OA
ATOM      8  H   UNL     1       4.149   1.841   2.787  0.00  0.00    +0.150 HD
ATOM      9  H   UNL     1       2.130   1.304   1.745  0.00  0.00    +0.159 HD
BRANCH   2  11
ATOM     10  C   UNL     1       6.386   2.875   3.367  0.00  0.00    +0.024 C 
ATOM     11  C   UNL     1       5.571   3.277   2.136  0.00  0.00    +0.102 C 
ENDBRANCH   2  11
ENDBRANCH   1   6
BRANCH   1  12
ATOM     12  C   UNL     1      -0.644   1.600   1.249  0.00  0.00    -0.052 A 
ATOM     13  C   UNL     1      -1.409   2.748   1.346  0.00  0.00    +0.002 A 
ATOM     14  C   UNL     1      -2.152   2.988   2.487  0.00  0.00    +0.000 A 
ATOM     15  C   UNL     1      -2.122   2.087   3.534  0.00  0.00    +0.000 A 
ATOM     16  C   UNL     1      -1.353   0.942   3.439  0.00  0.00    +0.000 A 
ATOM     17  C   UNL     1      -0.614   0.699   2.297  0.00  0.00    +0.002 A 
ENDBRANCH   1  12
BRANCH   1  22
ATOM     18  C   UNL     1      -1.999   1.189  -1.097  0.00  0.00    -0.076 C 
ATOM     19  C   UNL     1      -2.389   0.877  -2.563  0.00  0.00    -0.020 C 
ATOM     20  C   UNL     1      -1.048   0.353  -3.140  0.00  0.00    -0.013 C 
ATOM     21  C   UNL     1       0.004   1.217  -2.414  0.00  0.00    -0.036 C 
ATOM     22  N   UNL     1      -0.631   1.733  -1.188  0.00  0.00    +0.395 N 
ATOM     23  H   UNL     1      -0.676   2.758  -1.235  0.00  0.00    -0.079 HD
BRANCH  21  24
ATOM     24  C   UNL     1       1.210   0.378  -2.074  0.00  0.00    -0.057 A 
ATOM     25  C   UNL     1       2.480   0.866  -2.321  0.00  0.00    +0.006 A 
ATOM     26  C   UNL     1       3.591   0.104  -2.005  0.00  0.00    +0.049 A 
ATOM     27  C   UNL     1       3.426  -1.154  -1.452  0.00  0.00    +0.162 A 
ATOM     28  C   UNL     1       2.151  -1.645  -1.209  0.00  0.00    +0.162 A 
ATOM     29  C   UNL     1       1.041  -0.878  -1.521  0.00  0.00    +0.051 A 
ATOM     30  O   UNL     1       1.999  -2.886  -0.662  0.00  0.00    -0.488 OA
ATOM     31  C   UNL     1       2.378  -3.986  -1.492  0.00  0.00    +0.232 C 
ATOM     32  C   UNL     1       3.873  -4.247  -1.393  0.00  0.00    +0.082 C 
ATOM     33  C   UNL     1       4.700  -3.091  -1.935  0.00  0.00    +0.232 C 
ATOM     34  O   UNL     1       4.513  -1.918  -1.141  0.00  0.00    -0.488 OA
ENDBRANCH  21  24
ENDBRANCH   1  22
TORSDOF 5
