REMARK  Name = ZINC39694483
REMARK  5 active torsions:
REMARK  status: ('A' for Active; 'I' for Inactive)
REMARK    1  A    between atoms: N_4  and  C_6
REMARK    2  A    between atoms: C_6  and  C_7
REMARK    3  A    between atoms: C_7  and  N_8
REMARK    4  A    between atoms: C_9  and  C_11
REMARK    5  A    between atoms: C_22  and  C_24
REMARK                            x       y       z     vdW  Elec       q    Type
REMARK                         _______ _______ _______ _____ _____    ______ ____
ROOT
ATOM      1  C   UNL     1       4.607  -5.862  -1.989  0.00  0.00    +0.100 C 
ATOM      2  C   UNL     1       3.237  -6.551  -2.179  0.00  0.00    +0.121 C 
ATOM      3  N   UNL     1       3.128  -6.770  -3.641  0.00  0.00    -0.296 N 
ATOM      4  C   UNL     1       4.495  -7.169  -4.056  0.00  0.00    +0.115 C 
ATOM      5  C   UNL     1       5.430  -6.273  -3.221  0.00  0.00    -0.004 C 
ATOM      6  C   UNL     1       5.832  -5.039  -4.024  0.00  0.00    -0.010 C 
ATOM      7  C   UNL     1       6.698  -5.468  -5.212  0.00  0.00    -0.082 C 
ATOM      8  N   UNL     1       7.891  -6.169  -4.722  0.00  0.00    +0.379 N 
ATOM      9  C   UNL     1       7.500  -7.403  -4.031  0.00  0.00    -0.082 C 
ATOM     10  C   UNL     1       6.668  -7.055  -2.793  0.00  0.00    -0.010 C 
ATOM     11  C   UNL     1       2.035  -6.638  -4.417  0.00  0.00    +0.247 C 
ATOM     12  O   UNL     1       1.010  -6.179  -3.951  0.00  0.00    -0.270 OA
ATOM     13  H   UNL     1       8.489  -6.397  -5.502  0.00  0.00    -0.086 HD
ATOM     14  H   UNL     1       8.392  -5.571  -4.082  0.00  0.00    -0.086 HD
ENDROOT
BRANCH  11  15
ATOM     15  C   UNL     1       2.081  -7.050  -5.836  0.00  0.00    +0.040 A 
ATOM     16  C   UNL     1       3.054  -7.950  -6.273  0.00  0.00    +0.033 A 
ATOM     17  C   UNL     1       3.092  -8.331  -7.600  0.00  0.00    +0.043 A 
ATOM     18  C   UNL     1       2.168  -7.823  -8.496  0.00  0.00    +0.040 A 
ATOM     19  C   UNL     1       1.200  -6.929  -8.069  0.00  0.00    +0.043 A 
ATOM     20  C   UNL     1       1.148  -6.545  -6.743  0.00  0.00    +0.033 A 
ATOM     21 CL   UNL     1       0.046  -6.295  -9.200  0.00  0.00    -0.083 Cl
ATOM     22 CL   UNL     1       4.302  -9.450  -8.145  0.00  0.00    -0.083 Cl
ENDBRANCH  11  15
BRANCH   1  24
ATOM     23  N   UNL     1       5.366  -3.601  -1.332  0.00  0.00    -0.313 N 
ATOM     24  C   UNL     1       4.440  -4.365  -1.945  0.00  0.00    +0.218 C 
ATOM     25  O   UNL     1       3.472  -3.847  -2.461  0.00  0.00    -0.275 OA
ATOM     26  H   UNL     1       6.140  -4.015  -0.920  0.00  0.00    +0.149 HD
BRANCH  23  27
ATOM     27  C   UNL     1       5.203  -2.146  -1.290  0.00  0.00    +0.127 C 
BRANCH  27  28
ATOM     28  C   UNL     1       6.384  -1.522  -0.542  0.00  0.00    +0.162 C 
BRANCH  28  32
ATOM     29  C   UNL     1       6.043   1.984   0.226  0.00  0.00    +0.041 A 
ATOM     30  C   UNL     1       5.932   2.004  -1.169  0.00  0.00    +0.134 A 
ATOM     31  N   UNL     1       6.038   0.775  -1.604  0.00  0.00    -0.180 NA
ATOM     32  N   UNL     1       6.221  -0.067  -0.499  0.00  0.00    -0.270 N 
ATOM     33  C   UNL     1       6.221   0.700   0.611  0.00  0.00    +0.108 A 
ENDBRANCH  28  32
ENDBRANCH  27  28
ENDBRANCH  23  27
ENDBRANCH   1  24
TORSDOF 5
