REMARK  Name = ZINC12540910
REMARK  2 active torsions:
REMARK  status: ('A' for Active; 'I' for Inactive)
REMARK    1  A    between atoms: C_4  and  N_27
REMARK    2  A    between atoms: C_5  and  C_7
REMARK                            x       y       z     vdW  Elec       q    Type
REMARK                         _______ _______ _______ _____ _____    ______ ____
ROOT
ATOM      1  C   UNL     1       1.207  -2.187  -0.003  0.00  0.00    +0.211 C 
ATOM      2  N   UNL     1      -0.132  -2.700   0.342  0.00  0.00    -0.294 N 
ATOM      3  C   UNL     1      -1.099  -2.787  -0.624  0.00  0.00    +0.160 C 
ATOM      4  N   UNL     1      -0.789  -2.995  -1.892  0.00  0.00    -0.302 N 
ATOM      5  C   UNL     1       0.520  -3.062  -2.233  0.00  0.00    +0.213 A 
ATOM      6  N   UNL     1       1.516  -2.689  -1.346  0.00  0.00    -0.286 N 
ATOM      7  C   UNL     1       2.728  -2.881  -1.968  0.00  0.00    +0.076 A 
ATOM      8  C   UNL     1       4.051  -2.703  -1.586  0.00  0.00    +0.077 A 
ATOM      9  C   UNL     1       5.068  -3.000  -2.473  0.00  0.00    +0.164 A 
ATOM     10  C   UNL     1       4.777  -3.475  -3.748  0.00  0.00    +0.164 A 
ATOM     11  C   UNL     1       3.468  -3.655  -4.144  0.00  0.00    +0.079 A 
ATOM     12  C   UNL     1       2.428  -3.359  -3.257  0.00  0.00    +0.095 A 
ATOM     13  N   UNL     1       1.067  -3.435  -3.360  0.00  0.00    -0.212 NA
ATOM     14  O   UNL     1       5.797  -3.765  -4.609  0.00  0.00    -0.488 OA
ATOM     15  C   UNL     1       6.550  -2.648  -5.085  0.00  0.00    +0.232 C 
ATOM     16  C   UNL     1       7.642  -2.273  -4.096  0.00  0.00    +0.082 C 
ATOM     17  C   UNL     1       7.079  -1.782  -2.771  0.00  0.00    +0.232 C 
ATOM     18  O   UNL     1       6.372  -2.827  -2.101  0.00  0.00    -0.488 OA
ATOM     19  N   UNL     1      -2.414  -2.655  -0.268  0.00  0.00    -0.332 N 
ATOM     20  H   UNL     1      -0.327  -2.976   1.252  0.00  0.00    +0.151 HD
ATOM     21  H   UNL     1      -2.652  -2.502   0.659  0.00  0.00    +0.145 HD
ATOM     22  H   UNL     1      -3.107  -2.715  -0.944  0.00  0.00    +0.145 HD
ATOM     23  H   UNL     1      -1.483  -3.098  -2.562  0.00  0.00    +0.171 HD
ENDROOT
BRANCH   1  28
ATOM     24  C   UNL     1       1.115   1.393  -1.200  0.00  0.00    +0.000 A 
ATOM     25  C   UNL     1       1.181   2.089  -0.007  0.00  0.00    +0.002 A 
ATOM     26  C   UNL     1       1.255   1.406   1.190  0.00  0.00    +0.023 A 
ATOM     27  C   UNL     1       1.263   0.017   1.196  0.00  0.00    +0.036 A 
ATOM     28  C   UNL     1       1.198  -0.680  -0.004  0.00  0.00    +0.014 A 
ATOM     29  C   UNL     1       1.124   0.010  -1.198  0.00  0.00    +0.009 A 
BRANCH  27  30
ATOM     30  N   UNL     1       1.338  -0.678   2.405  0.00  0.00    -0.330 N 
ATOM     31  C   UNL     1       2.572  -1.173   3.034  0.00  0.00    +0.105 C 
ATOM     32  C   UNL     1       2.165  -1.896   4.335  0.00  0.00    +0.020 C 
ATOM     33  C   UNL     1       0.678  -2.260   4.080  0.00  0.00    +0.020 C 
ATOM     34  C   UNL     1       0.195  -1.031   3.266  0.00  0.00    +0.105 C 
ENDBRANCH  27  30
ENDBRANCH   1  28
TORSDOF 2
