REMARK  Name = ZINC39675316
REMARK  9 active torsions:
REMARK  status: ('A' for Active; 'I' for Inactive)
REMARK    1  A    between atoms: C_1  and  C_2
REMARK    2  A    between atoms: C_2  and  C_4
REMARK    3  A    between atoms: C_2  and  N_14
REMARK    4  A    between atoms: C_4  and  C_5
REMARK    5  A    between atoms: C_5  and  C_6
REMARK    6  A    between atoms: C_9  and  O_12
REMARK    7  A    between atoms: O_12  and  C_13
REMARK    8  A    between atoms: C_15  and  C_17
REMARK    9  A    between atoms: C_28  and  C_30
REMARK                            x       y       z     vdW  Elec       q    Type
REMARK                         _______ _______ _______ _____ _____    ______ ____
ROOT
ATOM      1  C   UNL     1      -3.457  -1.160  -1.127  0.00  0.00    +0.100 C 
ATOM      2  C   UNL     1      -4.365  -0.272  -0.247  0.00  0.00    +0.121 C 
ATOM      3  N   UNL     1      -4.981   0.687  -1.195  0.00  0.00    -0.295 N 
ATOM      4  C   UNL     1      -5.271  -0.123  -2.402  0.00  0.00    +0.115 C 
ATOM      5  C   UNL     1      -4.057  -1.062  -2.539  0.00  0.00    -0.004 C 
ATOM      6  C   UNL     1      -3.038  -0.468  -3.507  0.00  0.00    -0.010 C 
ATOM      7  C   UNL     1      -3.638  -0.433  -4.915  0.00  0.00    -0.082 C 
ATOM      8  N   UNL     1      -3.998  -1.795  -5.329  0.00  0.00    +0.379 N 
ATOM      9  C   UNL     1      -5.046  -2.325  -4.448  0.00  0.00    -0.082 C 
ATOM     10  C   UNL     1      -4.506  -2.439  -3.020  0.00  0.00    -0.010 C 
ATOM     11  C   UNL     1      -5.224   1.998  -1.002  0.00  0.00    +0.265 C 
ATOM     12  O   UNL     1      -4.836   2.545   0.012  0.00  0.00    -0.268 OA
ATOM     13  H   UNL     1      -4.336  -1.778  -6.279  0.00  0.00    -0.086 HD
ATOM     14  H   UNL     1      -3.183  -2.388  -5.275  0.00  0.00    -0.086 HD
ENDROOT
BRANCH  11  15
ATOM     15  C   UNL     1      -5.963   2.774  -2.026  0.00  0.00    +0.126 A 
ATOM     16  C   UNL     1      -6.109   4.151  -1.877  0.00  0.00    +0.033 A 
ATOM     17  C   UNL     1      -6.803   4.863  -2.843  0.00  0.00    +0.004 A 
ATOM     18  C   UNL     1      -7.326   4.172  -3.925  0.00  0.00    +0.020 A 
ATOM     19  C   UNL     1      -7.142   2.801  -4.008  0.00  0.00    +0.111 A 
ATOM     20  N   UNL     1      -6.474   2.151  -3.080  0.00  0.00    -0.250 NA
ENDBRANCH  11  15
BRANCH   1  22
ATOM     21  N   UNL     1      -1.008  -1.486  -1.260  0.00  0.00    -0.312 N 
ATOM     22  C   UNL     1      -2.044  -0.635  -1.120  0.00  0.00    +0.218 C 
ATOM     23  O   UNL     1      -1.839   0.552  -0.987  0.00  0.00    -0.275 OA
ATOM     24  H   UNL     1      -1.172  -2.437  -1.367  0.00  0.00    +0.149 HD
BRANCH  21  26
ATOM     25  C   UNL     1       0.855  -0.851   0.191  0.00  0.00    +0.028 C 
ATOM     26  C   UNL     1       0.365  -0.976  -1.253  0.00  0.00    +0.070 C 
BRANCH  26  27
ATOM     27  C   UNL     1       1.272  -1.943  -2.017  0.00  0.00    +0.026 C 
BRANCH  27  28
ATOM     28  C   UNL     1       0.859  -1.974  -3.490  0.00  0.00    +0.037 C 
BRANCH  28  29
ATOM     29  C   UNL     1       1.753  -2.926  -4.243  0.00  0.00    -0.047 A 
ATOM     30  C   UNL     1       2.925  -2.467  -4.814  0.00  0.00    +0.007 A 
ATOM     31  C   UNL     1       3.745  -3.338  -5.505  0.00  0.00    +0.046 A 
ATOM     32  C   UNL     1       3.393  -4.674  -5.624  0.00  0.00    +0.120 A 
ATOM     33  C   UNL     1       2.216  -5.132  -5.050  0.00  0.00    +0.046 A 
ATOM     34  C   UNL     1       1.401  -4.259  -4.355  0.00  0.00    +0.007 A 
BRANCH  32  35
ATOM     35  O   UNL     1       4.198  -5.533  -6.303  0.00  0.00    -0.495 OA
ATOM     36  C   UNL     1       3.771  -6.894  -6.386  0.00  0.00    +0.277 C 
ENDBRANCH  32  35
ENDBRANCH  28  29
ENDBRANCH  27  28
ENDBRANCH  26  27
ENDBRANCH  21  26
ENDBRANCH   1  22
TORSDOF 7
