REMARK  Name = ZINC00660123
REMARK  9 active torsions:
REMARK  status: ('A' for Active; 'I' for Inactive)
REMARK    1  A    between atoms: C_1  and  C_2
REMARK    2  A    between atoms: C_9  and  N_32
REMARK    3  A    between atoms: C_10  and  C_30
REMARK    4  A    between atoms: C_11  and  C_13
REMARK    5  A    between atoms: C_16  and  O_28
REMARK    6  A    between atoms: C_17  and  C_19
REMARK    7  A    between atoms: C_19  and  O_20
REMARK    8  A    between atoms: O_20  and  C_21
REMARK    9  A    between atoms: O_28  and  C_29
REMARK                            x       y       z     vdW  Elec       q    Type
REMARK                         _______ _______ _______ _____ _____    ______ ____
ROOT
ATOM      1  C   UNL     1      -1.367   0.105  -2.954  0.00  0.00    -0.034 A 
ATOM      2  C   UNL     1      -2.481  -0.702  -2.814  0.00  0.00    +0.008 A 
ATOM      3  C   UNL     1      -3.731  -0.222  -3.155  0.00  0.00    +0.046 A 
ATOM      4  C   UNL     1      -3.867   1.071  -3.639  0.00  0.00    +0.126 A 
ATOM      5  C   UNL     1      -2.748   1.879  -3.778  0.00  0.00    +0.032 A 
ATOM      6  C   UNL     1      -1.501   1.396  -3.431  0.00  0.00    +0.015 A 
ENDROOT
BRANCH   1  17
ATOM      7  C   UNL     1      -0.018   1.503   0.010  0.00  0.00    +0.068 C 
ATOM      8  C   UNL     1       0.002  -0.004   0.002  0.00  0.00    +0.068 A 
ATOM      9  C   UNL     1       0.008  -0.813  -1.126  0.00  0.00    +0.049 A 
ATOM     10  C   UNL     1       0.028  -2.116  -0.713  0.00  0.00    +0.222 A 
ATOM     11  N   UNL     1       0.033  -2.116   0.629  0.00  0.00    -0.246 N 
ATOM     12  H   UNL     1       0.046  -2.900   1.201  0.00  0.00    +0.192 HD
ATOM     13  N   UNL     1       0.023  -0.780   1.060  0.00  0.00    -0.176 NA
ATOM     14  O   UNL     1       0.042  -3.159  -1.580  0.00  0.00    -0.423 OA
ATOM     15  C   UNL     1       0.311  -2.892  -2.874  0.00  0.00    +0.200 C 
ATOM     16  C   UNL     1       0.309  -1.648  -3.402  0.00  0.00    +0.098 C 
ATOM     17  C   UNL     1      -0.005  -0.421  -2.581  0.00  0.00    +0.101 C 
BRANCH  15  18
ATOM     18  N   UNL     1       0.605  -3.945  -3.704  0.00  0.00    -0.328 N 
ATOM     19  H   UNL     1       0.615  -4.850  -3.354  0.00  0.00    +0.145 HD
ATOM     20  H   UNL     1       0.803  -3.785  -4.640  0.00  0.00    +0.145 HD
ENDBRANCH  15  18
BRANCH  16  21
ATOM     21  C   UNL     1       0.616  -1.487  -4.791  0.00  0.00    +0.101 C 
ATOM     22  N   UNL     1       0.860  -1.360  -5.894  0.00  0.00    -0.191 NA
ENDBRANCH  16  21
ENDBRANCH   1  17
BRANCH   4  23
ATOM     23  O   UNL     1      -5.095   1.546  -3.976  0.00  0.00    -0.495 OA
ATOM     24  C   UNL     1      -6.202   0.658  -3.807  0.00  0.00    +0.277 C 
ENDBRANCH   4  23
BRANCH   5  25
ATOM     25  C   UNL     1      -2.893   3.284  -4.303  0.00  0.00    +0.268 C 
BRANCH  25  26
ATOM     26  O   UNL     1      -1.609   3.908  -4.355  0.00  0.00    -0.486 OA
BRANCH  26  27
ATOM     27  C   UNL     1      -1.562   5.188  -4.809  0.00  0.00    +0.135 A 
ATOM     28  C   UNL     1      -2.729   5.832  -5.192  0.00  0.00    +0.047 A 
ATOM     29  C   UNL     1      -2.680   7.133  -5.654  0.00  0.00    +0.004 A 
ATOM     30  C   UNL     1      -1.468   7.794  -5.734  0.00  0.00    +0.001 A 
ATOM     31  C   UNL     1      -0.303   7.155  -5.353  0.00  0.00    +0.019 A 
ATOM     32  C   UNL     1      -0.347   5.855  -4.885  0.00  0.00    +0.059 A 
ATOM     33 BR   UNL     1       1.246   4.984  -4.356  0.00  0.00    -0.047 Br
ENDBRANCH  26  27
ENDBRANCH  25  26
ENDBRANCH   5  25
TORSDOF 7
