REMARK  Name = ZINC39934715
REMARK  9 active torsions:
REMARK  status: ('A' for Active; 'I' for Inactive)
REMARK    1  A    between atoms: C_1  and  C_2
REMARK    2  A    between atoms: C_4  and  C_26
REMARK    3  A    between atoms: N_12  and  C_13
REMARK    4  A    between atoms: C_13  and  C_14
REMARK    5  A    between atoms: N_16  and  C_17
REMARK    6  A    between atoms: C_20  and  C_23
REMARK    7  A    between atoms: C_23  and  C_25
REMARK    8  A    between atoms: C_27  and  C_28
REMARK    9  A    between atoms: C_27  and  C_30
REMARK                            x       y       z     vdW  Elec       q    Type
REMARK                         _______ _______ _______ _____ _____    ______ ____
ROOT
ATOM      1  C   UNL     1      -0.004   1.537   0.021  0.00  0.00    +0.029 C 
ATOM      2  C   UNL     1       0.005   0.007   0.006  0.00  0.00    +0.082 C 
ATOM      3  C   UNL     1       0.744  -0.510  -1.239  0.00  0.00    +0.065 C 
ATOM      4  C   UNL     1       1.907  -1.304  -0.687  0.00  0.00    -0.018 A 
ATOM      5  C   UNL     1       2.914  -2.001  -1.327  0.00  0.00    +0.006 A 
ATOM      6  C   UNL     1       3.880  -2.659  -0.590  0.00  0.00    +0.000 A 
ATOM      7  C   UNL     1       3.837  -2.619   0.792  0.00  0.00    +0.002 A 
ATOM      8  C   UNL     1       2.834  -1.926   1.435  0.00  0.00    +0.023 A 
ATOM      9  C   UNL     1       1.854  -1.259   0.697  0.00  0.00    +0.034 A 
ATOM     10  N   UNL     1       0.764  -0.508   1.148  0.00  0.00    -0.317 N 
ENDROOT
BRANCH   3  11
ATOM     11  C   UNL     1      -0.159  -1.395  -2.058  0.00  0.00    +0.001 C 
ATOM     12  C   UNL     1      -0.446  -1.071  -3.316  0.00  0.00    +0.068 C 
BRANCH  12  13
ATOM     13  C   UNL     1      -1.350  -1.957  -4.135  0.00  0.00    +0.216 C 
ATOM     14  N   UNL     1      -0.660  -2.387  -5.358  0.00  0.00    -0.359 N 
ATOM     15  C   UNL     1      -1.349  -1.945  -6.370  0.00  0.00    +0.060 A 
ATOM     16  C   UNL     1      -1.168  -2.052  -7.824  0.00  0.00    +0.027 A 
ATOM     17  C   UNL     1      -2.066  -1.479  -8.650  0.00  0.00    +0.002 A 
ATOM     18  C   UNL     1      -3.185  -0.771  -8.179  0.00  0.00    +0.002 A 
ATOM     19  C   UNL     1      -3.445  -0.613  -6.866  0.00  0.00    +0.027 A 
ATOM     20  C   UNL     1      -2.534  -1.196  -5.871  0.00  0.00    +0.060 A 
ATOM     21  N   UNL     1      -2.533  -1.204  -4.569  0.00  0.00    -0.359 N 
ATOM     22  H   UNL     1       0.158  -2.905  -5.403  0.00  0.00    +0.162 HD
ATOM     23  H   UNL     1      -3.193  -0.789  -3.993  0.00  0.00    +0.162 HD
ENDBRANCH  12  13
BRANCH  12  24
ATOM     24  C   UNL     1       0.105   0.118  -3.892  0.00  0.00    +0.098 C 
ATOM     25  N   UNL     1       0.541   1.062  -4.349  0.00  0.00    -0.191 NA
ENDBRANCH  12  24
ENDBRANCH   3  11
BRANCH  10  26
ATOM     26  C   UNL     1       0.430  -0.270   2.555  0.00  0.00    +0.201 C 
BRANCH  26  27
ATOM     27  C   UNL     1      -0.489  -1.360   3.044  0.00  0.00    +0.235 C 
ATOM     28  O   UNL     1      -0.831  -2.248   2.292  0.00  0.00    -0.274 OA
ATOM     29  N   UNL     1      -0.930  -1.348   4.317  0.00  0.00    -0.284 N 
ATOM     30  H   UNL     1      -0.605  -0.676   4.937  0.00  0.00    +0.155 HD
BRANCH  29  31
ATOM     31  C   UNL     1      -1.854  -2.299   4.743  0.00  0.00    +0.033 A 
ATOM     32  C   UNL     1      -2.834  -1.950   5.669  0.00  0.00    +0.024 A 
ATOM     33  C   UNL     1      -3.745  -2.883   6.090  0.00  0.00    +0.013 A 
ATOM     34  C   UNL     1      -3.690  -4.189   5.588  0.00  0.00    +0.017 A 
ATOM     35  C   UNL     1      -2.703  -4.536   4.657  0.00  0.00    +0.013 A 
ATOM     36  C   UNL     1      -1.799  -3.595   4.237  0.00  0.00    +0.024 A 
BRANCH  34  37
ATOM     37  C   UNL     1      -4.664  -5.192   6.037  0.00  0.00    +0.160 C 
ATOM     38  O   UNL     1      -5.518  -4.890   6.844  0.00  0.00    -0.292 OA
ATOM     39  C   UNL     1      -4.603  -6.598   5.496  0.00  0.00    +0.091 C 
ENDBRANCH  34  37
ENDBRANCH  29  31
ENDBRANCH  26  27
ENDBRANCH  10  26
TORSDOF 7
