REMARK  Name = ZINC28285382
REMARK  9 active torsions:
REMARK  status: ('A' for Active; 'I' for Inactive)
REMARK    1  A    between atoms: C_6  and  N_7
REMARK    2  A    between atoms: C_11  and  N_15
REMARK    3  A    between atoms: N_15  and  C_16
REMARK    4  A    between atoms: C_16  and  C_17
REMARK    5  A    between atoms: C_17  and  C_18
REMARK    6  A    between atoms: C_18  and  C_19
REMARK    7  A    between atoms: C_19  and  N_20
REMARK    8  A    between atoms: N_20  and  C_21
REMARK    9  A    between atoms: N_26  and  C_29
REMARK                            x       y       z     vdW  Elec       q    Type
REMARK                         _______ _______ _______ _____ _____    ______ ____
ROOT
ATOM      1  C   UNL     1       5.960   6.877   2.951  0.00  0.00    -0.021 C 
ENDROOT
BRANCH   1   2
ATOM      2  C   UNL     1       5.717   5.775   1.918  0.00  0.00    -0.082 C 
BRANCH   2   3
ATOM      3  N   UNL     1       6.126   4.480   2.478  0.00  0.00    +0.387 N 
ATOM      4  H   UNL     1       5.537   4.287   3.387  0.00  0.00    -0.085 HD
ATOM      5  H   UNL     1       7.194   4.529   2.737  0.00  0.00    -0.085 HD
BRANCH   3  10
ATOM      6  N   UNL     1       4.648   1.505   2.016  0.00  0.00    -0.212 N 
ATOM      7  C   UNL     1       5.911   1.070   2.107  0.00  0.00    +0.225 C 
ATOM      8  O   UNL     1       6.246  -0.060   2.390  0.00  0.00    -0.275 OA
ATOM      9  C   UNL     1       6.854   2.213   1.799  0.00  0.00    +0.090 C 
ATOM     10  C   UNL     1       5.907   3.396   1.512  0.00  0.00    +0.026 C 
ATOM     11  C   UNL     1       4.528   2.796   1.682  0.00  0.00    +0.213 C 
ATOM     12  O   UNL     1       3.481   3.390   1.541  0.00  0.00    -0.277 OA
BRANCH   6  18
ATOM     13  C   UNL     1       3.252  -0.359   1.366  0.00  0.00    +0.027 A 
ATOM     14  C   UNL     1       2.162  -1.175   1.594  0.00  0.00    +0.040 A 
ATOM     15  C   UNL     1       1.357  -0.964   2.701  0.00  0.00    +0.124 A 
ATOM     16  C   UNL     1       1.643   0.067   3.580  0.00  0.00    +0.040 A 
ATOM     17  C   UNL     1       2.733   0.885   3.355  0.00  0.00    +0.027 A 
ATOM     18  C   UNL     1       3.541   0.674   2.247  0.00  0.00    +0.044 A 
ATOM     19  F   UNL     1       0.290  -1.763   2.922  0.00  0.00    -0.205 F 
ENDBRANCH   6  18
ENDBRANCH   3  10
ENDBRANCH   2   3
ENDBRANCH   1   2
BRANCH   1  20
ATOM     20  C   UNL     1       5.534   8.226   2.368  0.00  0.00    -0.021 C 
BRANCH  20  21
ATOM     21  C   UNL     1       5.777   9.328   3.401  0.00  0.00    -0.082 C 
BRANCH  21  22
ATOM     22  N   UNL     1       5.368  10.623   2.841  0.00  0.00    +0.387 N 
ATOM     23  H   UNL     1       5.956  10.833   1.935  0.00  0.00    -0.085 HD
ATOM     24  H   UNL     1       4.299  10.590   2.585  0.00  0.00    -0.085 HD
BRANCH  22  25
ATOM     25  C   UNL     1       5.587  11.707   3.807  0.00  0.00    +0.026 C 
ATOM     26  C   UNL     1       5.656  13.070   3.088  0.00  0.00    +0.090 C 
ATOM     27  C   UNL     1       4.494  13.841   3.676  0.00  0.00    +0.225 C 
ATOM     28  O   UNL     1       4.184  14.975   3.382  0.00  0.00    -0.275 OA
ATOM     29  N   UNL     1       3.864  13.071   4.572  0.00  0.00    -0.212 N 
ATOM     30  C   UNL     1       4.394  11.851   4.726  0.00  0.00    +0.213 C 
ATOM     31  O   UNL     1       3.983  10.998   5.482  0.00  0.00    -0.277 OA
BRANCH  29  32
ATOM     32  C   UNL     1       2.741  13.508   5.291  0.00  0.00    +0.044 A 
ATOM     33  C   UNL     1       1.498  12.939   5.049  0.00  0.00    +0.027 A 
ATOM     34  C   UNL     1       0.395  13.366   5.762  0.00  0.00    +0.040 A 
ATOM     35  C   UNL     1       0.526  14.368   6.709  0.00  0.00    +0.124 A 
ATOM     36  C   UNL     1       1.764  14.940   6.947  0.00  0.00    +0.040 A 
ATOM     37  C   UNL     1       2.871  14.512   6.240  0.00  0.00    +0.027 A 
ATOM     38  F   UNL     1      -0.556  14.787   7.402  0.00  0.00    -0.205 F 
ENDBRANCH  29  32
ENDBRANCH  22  25
ENDBRANCH  21  22
ENDBRANCH  20  21
ENDBRANCH   1  20
TORSDOF 9
