REMARK  Name = ZINC35425361
REMARK  6 active torsions:
REMARK  status: ('A' for Active; 'I' for Inactive)
REMARK    1  A    between atoms: C_3  and  N_25
REMARK    2  A    between atoms: C_6  and  C_7
REMARK    3  A    between atoms: C_9  and  C_12
REMARK    4  A    between atoms: N_17  and  C_18
REMARK    5  A    between atoms: C_18  and  C_19
REMARK    6  A    between atoms: C_28  and  C_31
REMARK                            x       y       z     vdW  Elec       q    Type
REMARK                         _______ _______ _______ _____ _____    ______ ____
ROOT
ATOM      1  C   UNL     1      -1.267  -0.771  -0.008  0.00  0.00    +0.204 A 
ATOM      2  N   UNL     1      -1.383  -2.095  -0.220  0.00  0.00    -0.190 NA
ATOM      3  C   UNL     1      -2.635  -2.449  -0.156  0.00  0.00    +0.245 A 
ATOM      4  O   UNL     1      -3.372  -1.361   0.102  0.00  0.00    -0.336 OA
ATOM      5  N   UNL     1      -2.462  -0.275   0.201  0.00  0.00    -0.056 NA
ENDROOT
BRANCH   1  11
ATOM      6  C   UNL     1      -0.004   1.376   0.236  0.00  0.00    +0.016 A 
ATOM      7  C   UNL     1       1.201   2.049   0.230  0.00  0.00    +0.044 A 
ATOM      8  C   UNL     1       2.374   1.339  -0.013  0.00  0.00    +0.121 A 
ATOM      9  N   UNL     1       2.345   0.034  -0.237  0.00  0.00    -0.240 NA
ATOM     10  C   UNL     1       1.215  -0.644  -0.239  0.00  0.00    +0.124 A 
ATOM     11  C   UNL     1       0.002  -0.003  -0.004  0.00  0.00    +0.041 A 
BRANCH   8  12
ATOM     12  N   UNL     1       3.590   2.009  -0.022  0.00  0.00    -0.315 N 
ATOM     13  C   UNL     1       4.856   1.262  -0.044  0.00  0.00    +0.107 C 
ATOM     14  C   UNL     1       5.703   1.763  -1.217  0.00  0.00    +0.031 C 
ATOM     15  C   UNL     1       5.871   3.281  -1.109  0.00  0.00    +0.078 C 
ATOM     16  C   UNL     1       4.498   3.954  -1.182  0.00  0.00    +0.031 C 
ATOM     17  C   UNL     1       3.636   3.477  -0.015  0.00  0.00    +0.107 C 
BRANCH  15  18
ATOM     18  C   UNL     1       6.733   3.773  -2.243  0.00  0.00    +0.214 C 
ATOM     19  O   UNL     1       7.170   2.988  -3.057  0.00  0.00    -0.276 OA
ATOM     20  N   UNL     1       7.018   5.086  -2.352  0.00  0.00    -0.329 N 
ATOM     21  H   UNL     1       6.668   5.714  -1.700  0.00  0.00    +0.145 HD
ATOM     22  H   UNL     1       7.572   5.403  -3.081  0.00  0.00    +0.145 HD
ENDBRANCH  15  18
ENDBRANCH   8  12
ENDBRANCH   1  11
BRANCH   3  23
ATOM     23  C   UNL     1      -3.165  -3.848  -0.340  0.00  0.00    +0.146 C 
ATOM     24  C   UNL     1      -3.924  -3.972  -1.685  0.00  0.00    +0.030 C 
ATOM     25  C   UNL     1      -4.880  -5.160  -1.434  0.00  0.00    +0.017 C 
ATOM     26  C   UNL     1      -5.019  -5.247   0.097  0.00  0.00    +0.085 C 
ATOM     27  N   UNL     1      -4.208  -4.151   0.673  0.00  0.00    -0.284 NA
BRANCH  27  28
ATOM     28  C   UNL     1      -3.601  -4.553   1.949  0.00  0.00    +0.157 C 
BRANCH  28  29
ATOM     29  C   UNL     1      -4.666  -4.614   3.014  0.00  0.00    +0.099 A 
ATOM     30  N   UNL     1      -5.846  -4.017   2.958  0.00  0.00    -0.349 N 
ATOM     31  H   UNL     1      -6.171  -3.467   2.228  0.00  0.00    +0.166 HD
ATOM     32  C   UNL     1      -6.518  -4.304   4.092  0.00  0.00    +0.101 A 
ATOM     33  C   UNL     1      -5.722  -5.091   4.843  0.00  0.00    +0.101 A 
ATOM     34  N   UNL     1      -4.576  -5.278   4.155  0.00  0.00    -0.349 N 
ATOM     35  H   UNL     1      -3.817  -5.805   4.448  0.00  0.00    +0.166 HD
ENDBRANCH  28  29
ENDBRANCH  27  28
ENDBRANCH   3  23
TORSDOF 6
