REMARK  Name = ZINC39948924
REMARK  6 active torsions:
REMARK  status: ('A' for Active; 'I' for Inactive)
REMARK    1  A    between atoms: C_4  and  C_7
REMARK    2  A    between atoms: C_7  and  N_8
REMARK    3  A    between atoms: N_8  and  C_9
REMARK    4  A    between atoms: C_9  and  N_11
REMARK    5  A    between atoms: N_11  and  N_12
REMARK    6  A    between atoms: C_13  and  C_19
REMARK                            x       y       z     vdW  Elec       q    Type
REMARK                         _______ _______ _______ _____ _____    ______ ____
ROOT
ATOM      1  N   UNL     1       4.996  -1.327   3.828  0.00  0.00    -0.201 N 
ATOM      2  C   UNL     1       5.226  -0.293   4.855  0.00  0.00    +0.234 C 
ATOM      3  N   UNL     1       4.048  -0.410   5.730  0.00  0.00    -0.290 N 
ATOM      4  N   UNL     1       3.331  -1.309   5.282  0.00  0.00    -0.121 NA
ATOM      5  C   UNL     1       3.814  -1.885   4.174  0.00  0.00    +0.193 C 
ATOM      6  S   UNL     1       3.046  -3.153   3.318  0.00  0.00    -0.014 S 
ATOM      7  H   UNL     1       3.867   0.124   6.519  0.00  0.00    +0.182 HD
ENDROOT
BRANCH   2   8
ATOM      8  C   UNL     1       6.491  -0.579   5.622  0.00  0.00    -0.005 A 
ATOM      9  C   UNL     1       6.622  -1.764   6.323  0.00  0.00    +0.008 A 
ATOM     10  C   UNL     1       7.782  -2.026   7.026  0.00  0.00    +0.015 A 
ATOM     11  C   UNL     1       8.813  -1.104   7.029  0.00  0.00    +0.018 A 
ATOM     12  C   UNL     1       8.681   0.082   6.328  0.00  0.00    +0.015 A 
ATOM     13  C   UNL     1       7.523   0.341   5.621  0.00  0.00    +0.008 A 
ATOM     14 BR   UNL     1      10.400  -1.463   7.992  0.00  0.00    -0.050 Br
ENDBRANCH   2   8
BRANCH   1  15
ATOM     15  N   UNL     1       5.814  -1.653   2.738  0.00  0.00    -0.242 N 
ATOM     16  H   UNL     1       6.619  -2.175   2.876  0.00  0.00    +0.172 HD
BRANCH  15  17
ATOM     17  C   UNL     1       5.481  -1.240   1.499  0.00  0.00    +0.147 C 
ATOM     18  S   UNL     1       6.480  -1.638   0.167  0.00  0.00    -0.017 S 
BRANCH  17  19
ATOM     19  N   UNL     1       4.361  -0.514   1.308  0.00  0.00    -0.321 N 
ATOM     20  H   UNL     1       3.795  -0.289   2.063  0.00  0.00    +0.148 HD
BRANCH  19  21
ATOM     21  C   UNL     1       3.999  -0.066  -0.038  0.00  0.00    +0.138 C 
BRANCH  21  25
ATOM     22  C   UNL     1       0.359   2.163   0.130  0.00  0.00    +0.000 A 
ATOM     23  C   UNL     1       1.573   2.810   0.272  0.00  0.00    +0.000 A 
ATOM     24  C   UNL     1       2.751   2.088   0.217  0.00  0.00    +0.005 A 
ATOM     25  C   UNL     1       2.715   0.721   0.022  0.00  0.00    -0.030 A 
ATOM     26  C   UNL     1       1.502   0.074  -0.119  0.00  0.00    +0.005 A 
ATOM     27  C   UNL     1       0.324   0.795  -0.066  0.00  0.00    +0.000 A 
ENDBRANCH  21  25
ENDBRANCH  19  21
ENDBRANCH  17  19
ENDBRANCH  15  17
ENDBRANCH   1  15
TORSDOF 6
