REMARK  Name = ZINC53626411
REMARK  4 active torsions:
REMARK  status: ('A' for Active; 'I' for Inactive)
REMARK    1  A    between atoms: C_1  and  C_2
REMARK    2  A    between atoms: C_6  and  C_8
REMARK    3  A    between atoms: C_19  and  C_21
REMARK    4  A    between atoms: C_24  and  C_28
REMARK                            x       y       z     vdW  Elec       q    Type
REMARK                         _______ _______ _______ _____ _____    ______ ____
ROOT
ATOM      1  C   UNL     1      -0.011   1.097   0.011  0.00  0.00    +0.066 C 
ATOM      2  C   UNL     1      -0.742   1.581  -1.214  0.00  0.00    +0.054 A 
ATOM      3  N   UNL     1      -2.045   1.796  -1.200  0.00  0.00    -0.229 NA
ATOM      4  C   UNL     1      -2.676   2.219  -2.274  0.00  0.00    +0.165 A 
ATOM      5  N   UNL     1      -4.029   2.492  -2.428  0.00  0.00    -0.261 N 
ATOM      6  C   UNL     1      -4.872   2.328  -1.390  0.00  0.00    +0.250 C 
ATOM      7  O   UNL     1      -4.449   1.941  -0.318  0.00  0.00    -0.270 OA
ATOM      8  S   UNL     1      -1.446   2.348  -3.415  0.00  0.00    -0.053 S 
ATOM      9  C   UNL     1      -0.091   1.820  -2.379  0.00  0.00    +0.059 A 
ATOM     10  H   UNL     1      -4.367   2.801  -3.283  0.00  0.00    +0.157 HD
ENDROOT
BRANCH   6  11
ATOM     11  C   UNL     1      -6.308   2.619  -1.554  0.00  0.00    +0.045 A 
ATOM     12  C   UNL     1      -6.789   3.175  -2.732  0.00  0.00    +0.014 A 
ATOM     13  C   UNL     1      -8.142   3.447  -2.884  0.00  0.00    +0.001 A 
ATOM     14  C   UNL     1      -9.042   3.184  -1.898  0.00  0.00    +0.008 A 
ATOM     15  C   UNL     1      -8.627   2.622  -0.679  0.00  0.00    -0.017 A 
ATOM     16  C   UNL     1      -7.256   2.322  -0.482  0.00  0.00    -0.006 A 
ATOM     17  C   UNL     1      -6.838   1.757   0.729  0.00  0.00    +0.009 A 
ATOM     18  C   UNL     1      -7.756   1.497   1.702  0.00  0.00    +0.001 A 
ATOM     19  C   UNL     1      -9.105   1.784   1.510  0.00  0.00    +0.001 A 
ATOM     20  C   UNL     1      -9.544   2.344   0.349  0.00  0.00    +0.008 A 
ENDBRANCH   6  11
BRANCH   9  21
ATOM     21  C   UNL     1       1.373   1.679  -2.708  0.00  0.00    +0.250 C 
ATOM     22  N   UNL     1       1.772   2.682  -3.722  0.00  0.00    -0.265 NA
ATOM     23  C   UNL     1       3.136   3.119  -3.355  0.00  0.00    +0.187 C 
ATOM     24  N   UNL     1       3.489   2.359  -2.132  0.00  0.00    -0.177 NA
ATOM     25  O   UNL     1       2.181   1.981  -1.549  0.00  0.00    -0.274 OA
ATOM     26  H   UNL     1       1.757   2.284  -4.649  0.00  0.00    +0.127 HD
ATOM     27  H   UNL     1       4.032   1.540  -2.360  0.00  0.00    +0.156 HD
BRANCH  23  28
ATOM     28  C   UNL     1       4.102   2.798  -4.466  0.00  0.00    +0.023 A 
ATOM     29  C   UNL     1       5.422   2.499  -4.389  0.00  0.00    +0.014 A 
ATOM     30  C   UNL     1       6.118   2.234  -5.554  0.00  0.00    +0.008 A 
ATOM     31  C   UNL     1       5.460   2.282  -6.738  0.00  0.00    +0.045 A 
ATOM     32  S   UNL     1       3.803   2.704  -6.223  0.00  0.00    -0.099 S 
ENDBRANCH  23  28
ENDBRANCH   9  21
TORSDOF 3
