REMARK  Name = ZINC22936751
REMARK  12 active torsions:
REMARK  status: ('A' for Active; 'I' for Inactive)
REMARK    1  A    between atoms: C_1  and  C_2
REMARK    2  A    between atoms: C_2  and  N_3
REMARK    3  A    between atoms: C_7  and  C_9
REMARK    4  A    between atoms: C_9  and  N_10
REMARK    5  A    between atoms: N_10  and  C_11
REMARK    6  A    between atoms: C_11  and  C_12
REMARK    7  A    between atoms: C_14  and  O_28
REMARK    8  A    between atoms: C_15  and  O_19
REMARK    9  A    between atoms: O_19  and  C_20
REMARK   10  A    between atoms: C_20  and  C_21
REMARK   11  A    between atoms: C_24  and  C_27
REMARK   12  A    between atoms: O_28  and  C_29
REMARK                            x       y       z     vdW  Elec       q    Type
REMARK                         _______ _______ _______ _____ _____    ______ ____
ROOT
ATOM      1  C   UNL     1      -3.398  -1.475   3.958  0.00  0.00    -0.060 A 
ATOM      2  C   UNL     1      -3.512  -0.243   4.574  0.00  0.00    +0.051 A 
ATOM      3  C   UNL     1      -4.747   0.379   4.658  0.00  0.00    +0.163 A 
ATOM      4  C   UNL     1      -5.872  -0.239   4.121  0.00  0.00    +0.176 A 
ATOM      5  C   UNL     1      -5.752  -1.474   3.503  0.00  0.00    +0.063 A 
ATOM      6  C   UNL     1      -4.514  -2.087   3.419  0.00  0.00    +0.021 A 
ATOM      7 BR   UNL     1      -7.277  -2.319   2.771  0.00  0.00    -0.046 Br
ENDROOT
BRANCH   3   8
ATOM      8  O   UNL     1      -4.860   1.591   5.265  0.00  0.00    -0.491 OA
ATOM      9  C   UNL     1      -3.664   2.165   5.795  0.00  0.00    +0.277 C 
ENDBRANCH   3   8
BRANCH   1  10
ATOM     10  C   UNL     1      -2.054  -2.150   3.867  0.00  0.00    -0.047 C 
BRANCH  10  11
ATOM     11  N   UNL     1      -1.380  -1.736   2.629  0.00  0.00    +0.381 N 
ATOM     12  H   UNL     1      -1.255  -0.734   2.633  0.00  0.00    -0.086 HD
ATOM     13  H   UNL     1      -1.944  -2.001   1.835  0.00  0.00    -0.086 HD
BRANCH  11  14
ATOM     14  C   UNL     1      -0.070  -2.393   2.541  0.00  0.00    -0.098 C 
BRANCH  14  19
ATOM     15  N   UNL     1       0.713  -0.491   1.192  0.00  0.00    +0.380 N 
ATOM     16  C   UNL     1       2.136  -0.100   1.116  0.00  0.00    -0.079 C 
ATOM     17  C   UNL     1       2.907  -1.290   1.740  0.00  0.00    -0.020 C 
ATOM     18  C   UNL     1       2.078  -2.500   1.235  0.00  0.00    -0.019 C 
ATOM     19  C   UNL     1       0.632  -1.962   1.251  0.00  0.00    -0.086 C 
ATOM     20  H   UNL     1       0.298  -0.094   2.022  0.00  0.00    -0.082 HD
BRANCH  15  22
ATOM     21  C   UNL     1      -0.019   1.526   0.010  0.00  0.00    -0.017 C 
ATOM     22  C   UNL     1       0.002  -0.004   0.002  0.00  0.00    -0.082 C 
ENDBRANCH  15  22
ENDBRANCH  14  19
ENDBRANCH  11  14
ENDBRANCH  10  11
ENDBRANCH   1  10
BRANCH   4  23
ATOM     23  O   UNL     1      -7.087   0.367   4.201  0.00  0.00    -0.483 OA
BRANCH  23  24
ATOM     24  C   UNL     1      -7.452   1.234   3.126  0.00  0.00    +0.264 C 
BRANCH  24  25
ATOM     25  C   UNL     1      -8.819   1.810   3.387  0.00  0.00    -0.010 A 
ATOM     26  C   UNL     1      -9.946   1.148   2.936  0.00  0.00    +0.007 A 
ATOM     27  C   UNL     1     -11.201   1.677   3.175  0.00  0.00    +0.004 A 
ATOM     28  C   UNL     1     -11.329   2.867   3.866  0.00  0.00    -0.050 A 
ATOM     29  C   UNL     1     -10.202   3.529   4.318  0.00  0.00    +0.004 A 
ATOM     30  C   UNL     1      -8.948   2.998   4.082  0.00  0.00    +0.007 A 
ATOM     31  C   UNL     1     -12.696   3.444   4.127  0.00  0.00    +0.044 C 
ENDBRANCH  24  25
ENDBRANCH  23  24
ENDBRANCH   4  23
TORSDOF 9
