REMARK  Name = ZINC04697675
REMARK  12 active torsions:
REMARK  status: ('A' for Active; 'I' for Inactive)
REMARK    1  A    between atoms: C_1  and  C_2
REMARK    2  A    between atoms: C_2  and  C_28
REMARK    3  A    between atoms: C_4  and  C_8
REMARK    4  A    between atoms: C_4  and  C_15
REMARK    5  A    between atoms: C_8  and  C_9
REMARK    6  A    between atoms: C_15  and  C_17
REMARK    7  A    between atoms: C_15  and  C_26
REMARK    8  A    between atoms: C_17  and  N_60
REMARK    9  A    between atoms: C_18  and  C_19
REMARK   10  A    between atoms: C_18  and  N_60
REMARK   11  A    between atoms: C_22  and  O_25
REMARK   12  A    between atoms: C_26  and  O_27
REMARK                            x       y       z     vdW  Elec       q    Type
REMARK                         _______ _______ _______ _____ _____    ______ ____
ROOT
ATOM      1  C   UNL     1       1.882   2.662   0.478  0.00  0.00    +0.004 C 
ENDROOT
BRANCH   1   5
ATOM      2  C   UNL     1       3.327   6.045  -1.869  0.00  0.00    +0.041 C 
ATOM      3  C   UNL     1       3.978   4.672  -2.049  0.00  0.00    +0.064 C 
ATOM      4  C   UNL     1       3.023   3.585  -1.547  0.00  0.00    +0.042 C 
ATOM      5  C   UNL     1       2.773   3.789  -0.049  0.00  0.00    -0.017 C 
ATOM      6  C   UNL     1       4.114   3.771   0.689  0.00  0.00    +0.035 C 
ATOM      7  C   UNL     1       5.027   4.850   0.101  0.00  0.00    +0.161 C 
ATOM      8  O   UNL     1       5.194   4.619  -1.300  0.00  0.00    -0.374 OA
ATOM      9  C   UNL     1       4.281   4.441  -3.530  0.00  0.00    +0.041 C 
BRANCH   5  10
ATOM     10  C   UNL     1       2.082   5.136   0.177  0.00  0.00    +0.042 C 
BRANCH  10  11
ATOM     11  C   UNL     1       1.713   5.272   1.632  0.00  0.00    -0.047 A 
ATOM     12  C   UNL     1       0.386   5.214   2.016  0.00  0.00    +0.003 A 
ATOM     13  C   UNL     1       0.047   5.335   3.351  0.00  0.00    +0.000 A 
ATOM     14  C   UNL     1       1.034   5.523   4.300  0.00  0.00    +0.000 A 
ATOM     15  C   UNL     1       2.361   5.586   3.915  0.00  0.00    +0.000 A 
ATOM     16  C   UNL     1       2.700   5.461   2.581  0.00  0.00    +0.003 A 
ENDBRANCH  10  11
ENDBRANCH   5  10
ENDBRANCH   1   5
BRANCH   1  17
ATOM     17  C   UNL     1       2.107   2.497   1.983  0.00  0.00    -0.076 C 
BRANCH  17  18
ATOM     18  N   UNL     1       1.297   1.364   2.471  0.00  0.00    +0.382 N 
ATOM     19  H   UNL     1       1.653   0.492   2.061  0.00  0.00    -0.085 HD
ATOM     20  H   UNL     1       0.319   1.501   2.189  0.00  0.00    -0.085 HD
BRANCH  18  21
ATOM     21  C   UNL     1       1.373   1.277   3.941  0.00  0.00    -0.047 C 
BRANCH  21  22
ATOM     22  C   UNL     1       0.538   0.114   4.410  0.00  0.00    -0.064 A 
ATOM     23  C   UNL     1      -0.796   0.302   4.722  0.00  0.00    +0.005 A 
ATOM     24  C   UNL     1      -1.565  -0.764   5.147  0.00  0.00    +0.045 A 
ATOM     25  C   UNL     1      -0.995  -2.022   5.272  0.00  0.00    +0.117 A 
ATOM     26  C   UNL     1       0.345  -2.208   4.964  0.00  0.00    +0.045 A 
ATOM     27  C   UNL     1       1.108  -1.140   4.534  0.00  0.00    +0.005 A 
BRANCH  25  28
ATOM     28  O   UNL     1      -1.748  -3.071   5.696  0.00  0.00    -0.507 OA
ATOM     29  H   UNL     1      -1.748  -3.193   6.655  0.00  0.00    +0.292 HD
ENDBRANCH  25  28
ENDBRANCH  21  22
ENDBRANCH  18  21
ENDBRANCH  17  18
ENDBRANCH   1  17
BRANCH   1  30
ATOM     30  C   UNL     1       2.235   1.356  -0.237  0.00  0.00    +0.158 C 
BRANCH  30  31
ATOM     31  O   UNL     1       1.305   0.340   0.142  0.00  0.00    -0.395 OA
ATOM     32  H   UNL     1       1.468  -0.518  -0.274  0.00  0.00    +0.209 HD
ENDBRANCH  30  31
ENDBRANCH   1  30
TORSDOF 10
