REMARK  Name = ZINC06533259
REMARK  8 active torsions:
REMARK  status: ('A' for Active; 'I' for Inactive)
REMARK    1  A    between atoms: C_1  and  C_2
REMARK    2  A    between atoms: C_2  and  C_4
REMARK    3  A    between atoms: C_2  and  S_16
REMARK    4  A    between atoms: C_4  and  C_6
REMARK    5  A    between atoms: C_9  and  O_12
REMARK    6  A    between atoms: O_12  and  C_13
REMARK    7  A    between atoms: S_16  and  C_17
REMARK    8  A    between atoms: C_21  and  N_23
REMARK                            x       y       z     vdW  Elec       q    Type
REMARK                         _______ _______ _______ _____ _____    ______ ____
ROOT
ATOM      1  C   UNL     1       0.148  -0.520   1.435  0.00  0.00    +0.028 C 
ATOM      2  C   UNL     1       0.002  -0.004   0.002  0.00  0.00    +0.122 C 
ENDROOT
BRANCH   2   3
ATOM      3  C   UNL     1      -0.018   1.503   0.010  0.00  0.00    +0.176 C 
ATOM      4  O   UNL     1      -1.077   2.095   0.018  0.00  0.00    -0.291 OA
BRANCH   3   5
ATOM      5  C   UNL     1       1.243   2.254   0.002  0.00  0.00    +0.019 A 
ATOM      6  C   UNL     1       2.467   1.573  -0.007  0.00  0.00    +0.015 A 
ATOM      7  C   UNL     1       3.642   2.280  -0.021  0.00  0.00    +0.046 A 
ATOM      8  C   UNL     1       3.620   3.670  -0.013  0.00  0.00    +0.127 A 
ATOM      9  C   UNL     1       2.408   4.351   0.002  0.00  0.00    +0.046 A 
ATOM     10  C   UNL     1       1.227   3.655   0.010  0.00  0.00    +0.015 A 
BRANCH   8  11
ATOM     11  O   UNL     1       4.786   4.364  -0.021  0.00  0.00    -0.434 OA
BRANCH  11  12
ATOM     12  C   UNL     1       5.995   3.603  -0.037  0.00  0.00    +0.541 C 
ATOM     13  F   UNL     1       6.049   2.789   1.100  0.00  0.00    -0.166 F 
ATOM     14  F   UNL     1       6.026   2.802  -1.184  0.00  0.00    -0.166 F 
ENDBRANCH  11  12
ENDBRANCH   8  11
ENDBRANCH   3   5
ENDBRANCH   2   3
BRANCH   2  15
ATOM     15  S   UNL     1      -1.543  -0.625  -0.708  0.00  0.00    -0.075 S 
BRANCH  15  16
ATOM     16  C   UNL     1      -1.195  -2.352  -0.736  0.00  0.00    +0.192 A 
ATOM     17  N   UNL     1      -0.022  -2.781  -0.293  0.00  0.00    -0.207 NA
ATOM     18  C   UNL     1       0.273  -4.079  -0.294  0.00  0.00    +0.122 A 
ATOM     19  C   UNL     1      -0.664  -4.986  -0.779  0.00  0.00    +0.086 A 
ATOM     20  C   UNL     1      -1.883  -4.498  -1.240  0.00  0.00    +0.122 A 
ATOM     21  N   UNL     1      -2.111  -3.187  -1.204  0.00  0.00    -0.207 NA
ATOM     22  N   UNL     1       1.501  -4.520   0.175  0.00  0.00    -0.343 N 
ATOM     23  H   UNL     1       1.711  -5.467   0.167  0.00  0.00    +0.144 HD
ATOM     24  H   UNL     1       2.149  -3.882   0.511  0.00  0.00    +0.144 HD
BRANCH  20  25
ATOM     25  N   UNL     1      -2.847  -5.365  -1.731  0.00  0.00    -0.343 N 
ATOM     26  H   UNL     1      -3.694  -5.017  -2.050  0.00  0.00    +0.144 HD
ATOM     27  H   UNL     1      -2.674  -6.319  -1.754  0.00  0.00    +0.144 HD
ENDBRANCH  20  25
ENDBRANCH  15  16
ENDBRANCH   2  15
TORSDOF 7
