REMARK  Name = ZINC12190994
REMARK  11 active torsions:
REMARK  status: ('A' for Active; 'I' for Inactive)
REMARK    1  A    between atoms: C_1  and  C_2
REMARK    2  A    between atoms: C_2  and  O_3
REMARK    3  A    between atoms: O_3  and  C_4
REMARK    4  A    between atoms: C_4  and  C_6
REMARK    5  A    between atoms: N_11  and  C_13
REMARK    6  A    between atoms: C_14  and  C_27
REMARK    7  A    between atoms: C_17  and  C_18
REMARK    8  A    between atoms: N_29  and  C_30
REMARK    9  A    between atoms: N_29  and  C_31
REMARK   10  A    between atoms: C_31  and  C_32
REMARK   11  A    between atoms: C_35  and  C_37
REMARK                            x       y       z     vdW  Elec       q    Type
REMARK                         _______ _______ _______ _____ _____    ______ ____
ROOT
ATOM      1  C   UNL     1      -2.142   5.692   0.009  0.00  0.00    +0.112 A 
ATOM      2  C   UNL     1      -3.260   6.545   0.044  0.00  0.00    +0.075 A 
ATOM      3  C   UNL     1      -3.067   7.909   0.310  0.00  0.00    +0.018 A 
ATOM      4  C   UNL     1      -1.792   8.362   0.516  0.00  0.00    +0.027 A 
ATOM      5  C   UNL     1      -0.724   7.463   0.462  0.00  0.00    +0.049 A 
ATOM      6  N   UNL     1      -0.866   6.124   0.211  0.00  0.00    -0.342 N 
ATOM      7  H   UNL     1      -0.062   5.486   0.178  0.00  0.00    +0.167 HD
ENDROOT
BRANCH   5   8
ATOM      8  C   UNL     1       0.651   7.953   0.684  0.00  0.00    +0.013 A 
ATOM      9  C   UNL     1       0.886   9.266   0.934  0.00  0.00    +0.056 A 
ATOM     10  S   UNL     1       2.656   9.343   1.126  0.00  0.00    -0.096 S 
ATOM     11  C   UNL     1       3.043   7.632   0.862  0.00  0.00    +0.020 A 
ATOM     12  C   UNL     1       1.788   7.033   0.633  0.00  0.00    -0.002 A 
ATOM     13  C   UNL     1       1.785   5.642   0.387  0.00  0.00    +0.010 A 
ATOM     14  C   UNL     1       2.957   4.931   0.375  0.00  0.00    +0.001 A 
ATOM     15  C   UNL     1       4.177   5.549   0.604  0.00  0.00    +0.001 A 
ATOM     16  C   UNL     1       4.216   6.907   0.849  0.00  0.00    +0.015 A 
ENDBRANCH   5   8
BRANCH   1  21
ATOM     17  C   UNL     1      -2.146   2.057   0.616  0.00  0.00    +0.115 C 
ATOM     18  C   UNL     1      -1.506   1.609  -0.701  0.00  0.00    +0.018 C 
ATOM     19  C   UNL     1      -2.011   2.505  -1.836  0.00  0.00    +0.020 C 
ATOM     20  C   UNL     1      -1.679   3.963  -1.514  0.00  0.00    +0.106 C 
ATOM     21  N   UNL     1      -2.314   4.344  -0.246  0.00  0.00    -0.315 N 
ATOM     22  C   UNL     1      -1.810   3.529   0.866  0.00  0.00    +0.121 C 
BRANCH  17  23
ATOM     23  C   UNL     1      -1.609   1.219   1.747  0.00  0.00    +0.312 C 
ATOM     24  O   UNL     1      -1.017   1.744   2.660  0.00  0.00    -0.250 OA
BRANCH  23  25
ATOM     25  O   UNL     1      -1.785  -0.112   1.738  0.00  0.00    -0.465 OA
BRANCH  25  27
ATOM     26  C   UNL     1      -1.532  -2.346   2.673  0.00  0.00    +0.048 C 
ATOM     27  C   UNL     1      -1.236  -0.857   2.857  0.00  0.00    +0.229 C 
ENDBRANCH  25  27
ENDBRANCH  23  25
ENDBRANCH  17  23
ENDBRANCH   1  21
BRANCH   2  28
ATOM     28  C   UNL     1      -4.612   6.014  -0.190  0.00  0.00    +0.250 C 
ATOM     29  O   UNL     1      -4.828   5.299  -1.150  0.00  0.00    -0.270 OA
ATOM     30  N   UNL     1      -5.613   6.321   0.660  0.00  0.00    -0.292 N 
ATOM     31  C   UNL     1      -5.379   7.263   1.758  0.00  0.00    +0.133 C 
BRANCH  30  32
ATOM     32  C   UNL     1      -6.934   5.712   0.486  0.00  0.00    +0.205 C 
BRANCH  32  33
ATOM     33  C   UNL     1      -7.001   4.426   1.269  0.00  0.00    +0.234 A 
ATOM     34  N   UNL     1      -7.383   4.296   2.508  0.00  0.00    -0.111 NA
ATOM     35  N   UNL     1      -7.317   3.057   2.848  0.00  0.00    -0.113 NA
ATOM     36  C   UNL     1      -6.882   2.355   1.840  0.00  0.00    +0.214 A 
ATOM     37  O   UNL     1      -6.672   3.203   0.819  0.00  0.00    -0.423 OA
ATOM     38  C   UNL     1      -6.656   0.865   1.823  0.00  0.00    +0.111 C 
ENDBRANCH  32  33
ENDBRANCH  30  32
ENDBRANCH   2  28
TORSDOF 8
