REMARK  Name = ZINC36027242
REMARK  8 active torsions:
REMARK  status: ('A' for Active; 'I' for Inactive)
REMARK    1  A    between atoms: C_1  and  C_2
REMARK    2  A    between atoms: N_6  and  C_27
REMARK    3  A    between atoms: N_11  and  S_14
REMARK    4  A    between atoms: S_14  and  C_17
REMARK    5  A    between atoms: C_27  and  C_29
REMARK    6  A    between atoms: C_27  and  C_30
REMARK    7  A    between atoms: C_30  and  C_31
REMARK    8  A    between atoms: C_31  and  C_32
REMARK                            x       y       z     vdW  Elec       q    Type
REMARK                         _______ _______ _______ _____ _____    ______ ____
ROOT
ATOM      1  C   UNL     1       0.066   1.634   0.307  0.00  0.00    -0.004 C 
ATOM      2  C   UNL     1      -0.012   0.122   0.084  0.00  0.00    +0.016 C 
ATOM      3  C   UNL     1      -1.428  -0.369   0.294  0.00  0.00    +0.200 C 
ATOM      4  O   UNL     1      -2.341  -0.259  -0.497  0.00  0.00    -0.277 OA
ATOM      5  N   UNL     1      -1.503  -0.951   1.509  0.00  0.00    -0.311 N 
ATOM      6  C   UNL     1      -0.195  -0.882   2.166  0.00  0.00    +0.006 C 
ATOM      7  N   UNL     1       0.794  -0.593   1.102  0.00  0.00    +0.401 N 
ATOM      8  C   UNL     1       0.135  -2.218   2.828  0.00  0.00    +0.023 C 
ATOM      9  C   UNL     1      -0.914  -2.527   3.900  0.00  0.00    +0.109 C 
ATOM     10  N   UNL     1      -0.994  -1.389   4.826  0.00  0.00    -0.177 NA
ATOM     11  C   UNL     1      -1.234  -0.047   4.277  0.00  0.00    +0.109 C 
ATOM     12  C   UNL     1      -0.182   0.241   3.201  0.00  0.00    +0.023 C 
ATOM     13  H   UNL     1       1.171  -1.449   0.723  0.00  0.00    -0.082 HD
ATOM     14  H   UNL     1       1.533  -0.001   1.452  0.00  0.00    -0.082 HD
ENDROOT
BRANCH  10  15
ATOM     15  S   UNL     1      -0.817  -1.614   6.457  0.00  0.00    +0.063 S 
ATOM     16  O   UNL     1      -1.474  -0.525   7.090  0.00  0.00    -0.153 OA
ATOM     17  O   UNL     1      -1.159  -2.967   6.720  0.00  0.00    -0.153 OA
BRANCH  15  18
ATOM     18  C   UNL     1       0.899  -1.448   6.822  0.00  0.00    +0.131 A 
ATOM     19  C   UNL     1       1.335  -0.426   7.608  0.00  0.00    +0.031 A 
ATOM     20  C   UNL     1       2.686  -0.276   7.909  0.00  0.00    +0.003 A 
ATOM     21  C   UNL     1       3.611  -1.151   7.425  0.00  0.00    +0.010 A 
ATOM     22  C   UNL     1       3.198  -2.217   6.611  0.00  0.00    +0.002 A 
ATOM     23  C   UNL     1       1.822  -2.374   6.307  0.00  0.00    +0.097 A 
ATOM     24  N   UNL     1       1.423  -3.391   5.536  0.00  0.00    -0.253 NA
ATOM     25  C   UNL     1       2.280  -4.257   5.053  0.00  0.00    +0.111 A 
ATOM     26  C   UNL     1       3.645  -4.164   5.318  0.00  0.00    +0.020 A 
ATOM     27  C   UNL     1       4.122  -3.142   6.089  0.00  0.00    +0.011 A 
ENDBRANCH  15  18
ENDBRANCH  10  15
BRANCH   5  28
ATOM     28  C   UNL     1      -2.707  -1.557   2.083  0.00  0.00    +0.072 C 
ATOM     29  C   UNL     1      -3.898  -0.620   1.875  0.00  0.00    +0.028 C 
BRANCH  28  30
ATOM     30  C   UNL     1      -2.983  -2.894   1.394  0.00  0.00    +0.027 C 
BRANCH  30  31
ATOM     31  C   UNL     1      -1.848  -3.873   1.706  0.00  0.00    +0.037 C 
BRANCH  31  32
ATOM     32  C   UNL     1      -2.120  -5.190   1.026  0.00  0.00    -0.047 A 
ATOM     33  C   UNL     1      -2.842  -6.170   1.682  0.00  0.00    +0.003 A 
ATOM     34  C   UNL     1      -3.092  -7.378   1.059  0.00  0.00    +0.000 A 
ATOM     35  C   UNL     1      -2.619  -7.607  -0.220  0.00  0.00    +0.000 A 
ATOM     36  C   UNL     1      -1.898  -6.627  -0.876  0.00  0.00    +0.000 A 
ATOM     37  C   UNL     1      -1.653  -5.417  -0.254  0.00  0.00    +0.003 A 
ENDBRANCH  31  32
ENDBRANCH  30  31
ENDBRANCH  28  30
ENDBRANCH   5  28
TORSDOF 6
