REMARK  Name = ZINC36658458
REMARK  7 active torsions:
REMARK  status: ('A' for Active; 'I' for Inactive)
REMARK    1  A    between atoms: C_1  and  S_2
REMARK    2  A    between atoms: S_2  and  C_3
REMARK    3  A    between atoms: C_6  and  C_9
REMARK    4  A    between atoms: C_9  and  C_10
REMARK    5  A    between atoms: C_16  and  C_18
REMARK    6  A    between atoms: N_24  and  S_25
REMARK    7  A    between atoms: S_25  and  C_28
REMARK                            x       y       z     vdW  Elec       q    Type
REMARK                         _______ _______ _______ _____ _____    ______ ____
ROOT
ATOM      1  C   UNL     1      -6.709  -2.165  -1.356  0.00  0.00    +0.223 A 
ATOM      2  N   UNL     1      -6.497  -3.134  -2.199  0.00  0.00    -0.111 NA
ATOM      3  N   UNL     1      -6.922  -2.790  -3.364  0.00  0.00    -0.092 NA
ATOM      4  C   UNL     1      -7.424  -1.582  -3.303  0.00  0.00    +0.314 A 
ATOM      5  O   UNL     1      -7.305  -1.163  -2.030  0.00  0.00    -0.409 OA
ATOM      6  N   UNL     1      -7.979  -0.869  -4.355  0.00  0.00    -0.237 N 
ATOM      7  C   UNL     1      -8.038  -1.418  -5.585  0.00  0.00    +0.239 C 
ATOM      8  O   UNL     1      -7.605  -2.535  -5.771  0.00  0.00    -0.274 OA
ATOM      9  H   UNL     1      -8.326   0.025  -4.206  0.00  0.00    +0.159 HD
ENDROOT
BRANCH   7  10
ATOM     10  C   UNL     1      -8.642  -0.643  -6.728  0.00  0.00    +0.166 C 
ATOM     11  C   UNL     1      -9.885  -1.374  -7.244  0.00  0.00    +0.030 C 
ATOM     12  C   UNL     1     -10.412  -0.658  -8.490  0.00  0.00    +0.003 C 
ATOM     13  C   UNL     1      -9.345  -0.687  -9.586  0.00  0.00    +0.017 C 
ATOM     14  C   UNL     1      -8.096   0.052  -9.097  0.00  0.00    +0.110 C 
ATOM     15  N   UNL     1      -7.665  -0.535  -7.820  0.00  0.00    -0.164 NA
BRANCH  15  16
ATOM     16  S   UNL     1      -6.111  -1.070  -7.618  0.00  0.00    +0.068 S 
ATOM     17  O   UNL     1      -5.308  -0.341  -8.536  0.00  0.00    -0.152 OA
ATOM     18  O   UNL     1      -5.860  -1.069  -6.219  0.00  0.00    -0.152 OA
BRANCH  16  19
ATOM     19  C   UNL     1      -6.068  -2.753  -8.137  0.00  0.00    +0.144 A 
ATOM     20  C   UNL     1      -5.808  -3.261  -9.366  0.00  0.00    +0.038 A 
ATOM     21  C   UNL     1      -5.829  -4.632  -9.544  0.00  0.00    +0.030 A 
ATOM     22  C   UNL     1      -6.109  -5.428  -8.482  0.00  0.00    +0.080 A 
ATOM     23  S   UNL     1      -6.347  -4.233  -7.177  0.00  0.00    -0.057 S 
ATOM     24 CL   UNL     1      -6.204  -7.160  -8.409  0.00  0.00    -0.076 Cl
ENDBRANCH  16  19
ENDBRANCH  15  16
ENDBRANCH   7  10
BRANCH   1  25
ATOM     25  C   UNL     1      -6.359  -2.168   0.110  0.00  0.00    +0.132 C 
BRANCH  25  29
ATOM     26  C   UNL     1      -2.416  -0.603   0.635  0.00  0.00    +0.008 A 
ATOM     27  C   UNL     1      -3.513   0.250   0.660  0.00  0.00    +0.015 A 
ATOM     28  C   UNL     1      -4.785  -0.259   0.490  0.00  0.00    +0.005 A 
ATOM     29  C   UNL     1      -4.969  -1.616   0.295  0.00  0.00    -0.038 A 
ATOM     30  C   UNL     1      -3.880  -2.468   0.270  0.00  0.00    +0.005 A 
ATOM     31  C   UNL     1      -2.604  -1.966   0.433  0.00  0.00    +0.015 A 
BRANCH  26  33
ATOM     32  C   UNL     1      -1.052   1.823   1.075  0.00  0.00    +0.090 C 
ATOM     33  S   UNL     1      -0.791   0.041   0.852  0.00  0.00    -0.129 S 
ENDBRANCH  26  33
ENDBRANCH  25  29
ENDBRANCH   1  25
TORSDOF 6
