REMARK  Name = ZINC12660267
REMARK  8 active torsions:
REMARK  status: ('A' for Active; 'I' for Inactive)
REMARK    1  A    between atoms: C_1  and  C_2
REMARK    2  A    between atoms: C_13  and  O_15
REMARK    3  A    between atoms: N_21  and  O_22
REMARK    4  A    between atoms: O_22  and  C_23
REMARK    5  A    between atoms: C_23  and  C_24
REMARK    6  A    between atoms: N_26  and  C_27
REMARK    7  A    between atoms: C_27  and  C_28
REMARK    8  A    between atoms: C_35  and  C_36
REMARK                            x       y       z     vdW  Elec       q    Type
REMARK                         _______ _______ _______ _____ _____    ______ ____
ROOT
ATOM      1  C   UNL     1       5.225   4.826   1.104  0.00  0.00    +0.014 C 
ATOM      2  C   UNL     1       5.135   3.828   2.263  0.00  0.00    -0.003 C 
ATOM      3  C   UNL     1       5.950   2.596   1.971  0.00  0.00    +0.010 C 
ATOM      4  C   UNL     1       5.120   1.547   1.222  0.00  0.00    +0.005 C 
ATOM      5  C   UNL     1       3.926   2.166   0.503  0.00  0.00    +0.002 C 
ATOM      6  C   UNL     1       2.951   2.764   1.515  0.00  0.00    -0.003 C 
ATOM      7  C   UNL     1       3.679   3.472   2.618  0.00  0.00    +0.001 C 
ATOM      8  C   UNL     1       3.121   4.827   3.078  0.00  0.00    +0.007 C 
ATOM      9  C   UNL     1       4.300   5.434   3.889  0.00  0.00    +0.032 C 
ATOM     10  C   UNL     1       5.553   4.591   3.540  0.00  0.00    +0.121 C 
ATOM     11  C   UNL     1       1.922   3.652   0.826  0.00  0.00    +0.008 C 
ATOM     12  C   UNL     1       1.473   3.030  -0.497  0.00  0.00    +0.031 C 
ATOM     13  C   UNL     1       1.759   1.547  -0.479  0.00  0.00    -0.062 C 
ATOM     14  C   UNL     1       0.769   0.677  -0.606  0.00  0.00    +0.026 C 
ATOM     15  C   UNL     1       1.019  -0.769  -0.578  0.00  0.00    +0.080 C 
ATOM     16  N   UNL     1       0.039  -1.596  -0.771  0.00  0.00    -0.089 NA
ATOM     17  C   UNL     1       2.409  -1.295  -0.330  0.00  0.00    +0.059 C 
ATOM     18  C   UNL     1       3.232  -0.246   0.421  0.00  0.00    +0.017 C 
ATOM     19  C   UNL     1       3.188   1.091  -0.312  0.00  0.00    -0.007 C 
ATOM     20  C   UNL     1       3.850   0.965  -1.687  0.00  0.00    +0.016 C 
ENDROOT
BRANCH  10  21
ATOM     21  O   UNL     1       5.842   3.672   4.590  0.00  0.00    -0.391 OA
ATOM     22  H   UNL     1       6.110   4.093   5.418  0.00  0.00    +0.210 HD
ENDBRANCH  10  21
BRANCH  16  23
ATOM     23  O   UNL     1      -1.267  -1.104  -1.008  0.00  0.00    -0.384 OA
BRANCH  23  24
ATOM     24  C   UNL     1      -2.247  -2.126  -1.203  0.00  0.00    +0.358 C 
BRANCH  24  25
ATOM     25  C   UNL     1      -3.592  -1.493  -1.445  0.00  0.00    +0.254 C 
ATOM     26  O   UNL     1      -3.702  -0.285  -1.450  0.00  0.00    -0.272 OA
ATOM     27  N   UNL     1      -4.674  -2.269  -1.656  0.00  0.00    -0.308 N 
ATOM     28  H   UNL     1      -4.587  -3.235  -1.652  0.00  0.00    +0.149 HD
BRANCH  27  29
ATOM     29  C   UNL     1      -5.982  -1.653  -1.892  0.00  0.00    +0.146 C 
BRANCH  29  30
ATOM     30  C   UNL     1      -7.015  -2.731  -2.098  0.00  0.00    +0.007 A 
ATOM     31  C   UNL     1      -7.793  -3.354  -1.179  0.00  0.00    +0.013 A 
ATOM     32  C   UNL     1      -8.683  -4.324  -1.602  0.00  0.00    +0.008 A 
ATOM     33  C   UNL     1      -8.751  -4.623  -2.922  0.00  0.00    +0.045 A 
ATOM     34  S   UNL     1      -7.538  -3.512  -3.616  0.00  0.00    -0.100 S 
ENDBRANCH  29  30
ENDBRANCH  27  29
ENDBRANCH  24  25
ENDBRANCH  23  24
ENDBRANCH  16  23
TORSDOF 6
