REMARK  Name = ZINC05197602
REMARK  7 active torsions:
REMARK  status: ('A' for Active; 'I' for Inactive)
REMARK    1  A    between atoms: C_1  and  O_2
REMARK    2  A    between atoms: O_2  and  C_3
REMARK    3  A    between atoms: C_7  and  C_9
REMARK    4  A    between atoms: C_16  and  N_30
REMARK    5  A    between atoms: C_17  and  C_28
REMARK    6  A    between atoms: C_18  and  C_20
REMARK    7  A    between atoms: C_25  and  O_26
REMARK                            x       y       z     vdW  Elec       q    Type
REMARK                         _______ _______ _______ _____ _____    ______ ____
ROOT
ATOM      1  C   UNL     1       1.530  -4.579  -2.353  0.00  0.00    +0.100 A 
ATOM      2  C   UNL     1       1.215  -5.114  -3.606  0.00  0.00    +0.054 A 
ATOM      3  C   UNL     1       1.250  -6.474  -3.505  0.00  0.00    +0.223 A 
ATOM      4  N   UNL     1       1.577  -6.784  -2.233  0.00  0.00    -0.246 N 
ATOM      5  H   UNL     1       1.676  -7.679  -1.872  0.00  0.00    +0.192 HD
ATOM      6  N   UNL     1       1.754  -5.584  -1.527  0.00  0.00    -0.171 NA
ATOM      7  O   UNL     1       0.985  -7.293  -4.554  0.00  0.00    -0.423 OA
ATOM      8  C   UNL     1       0.415  -6.745  -5.646  0.00  0.00    +0.200 C 
ATOM      9  C   UNL     1       0.333  -5.413  -5.863  0.00  0.00    +0.098 C 
ATOM     10  C   UNL     1       0.884  -4.400  -4.891  0.00  0.00    +0.105 C 
ENDROOT
BRANCH  10  11
ATOM     11  C   UNL     1       2.130  -3.774  -5.460  0.00  0.00    +0.008 A 
ATOM     12  C   UNL     1       3.257  -4.546  -5.671  0.00  0.00    +0.028 A 
ATOM     13  C   UNL     1       4.402  -3.971  -6.194  0.00  0.00    +0.041 A 
ATOM     14  C   UNL     1       4.421  -2.623  -6.508  0.00  0.00    +0.023 A 
ATOM     15  C   UNL     1       3.296  -1.849  -6.298  0.00  0.00    +0.047 A 
ATOM     16  C   UNL     1       2.146  -2.424  -5.779  0.00  0.00    +0.121 A 
ATOM     17 CL   UNL     1       5.816  -4.943  -6.458  0.00  0.00    -0.084 Cl
BRANCH  16  18
ATOM     18  O   UNL     1       1.036  -1.665  -5.578  0.00  0.00    -0.506 OA
ATOM     19  H   UNL     1       1.033  -1.188  -4.737  0.00  0.00    +0.292 HD
ENDBRANCH  16  18
ENDBRANCH  10  11
BRANCH   1  24
ATOM     20  C   UNL     1       0.707  -0.912  -2.158  0.00  0.00    +0.121 A 
ATOM     21  C   UNL     1       1.752  -0.443  -1.374  0.00  0.00    +0.045 A 
ATOM     22  C   UNL     1       2.719  -1.315  -0.911  0.00  0.00    +0.004 A 
ATOM     23  C   UNL     1       2.651  -2.658  -1.226  0.00  0.00    +0.010 A 
ATOM     24  C   UNL     1       1.605  -3.136  -2.013  0.00  0.00    +0.006 A 
ATOM     25  C   UNL     1       0.628  -2.258  -2.474  0.00  0.00    +0.055 A 
BRANCH  20  27
ATOM     26  C   UNL     1      -0.098   1.323  -2.247  0.00  0.00    +0.277 C 
ATOM     27  O   UNL     1      -0.242  -0.051  -2.611  0.00  0.00    -0.495 OA
ENDBRANCH  20  27
ENDBRANCH   1  24
BRANCH   8  28
ATOM     28  N   UNL     1      -0.112  -7.588  -6.593  0.00  0.00    -0.328 N 
ATOM     29  H   UNL     1      -0.068  -8.548  -6.465  0.00  0.00    +0.145 HD
ATOM     30  H   UNL     1      -0.528  -7.223  -7.389  0.00  0.00    +0.145 HD
ENDBRANCH   8  28
BRANCH   9  31
ATOM     31  C   UNL     1      -0.300  -4.947  -7.060  0.00  0.00    +0.101 C 
ATOM     32  N   UNL     1      -0.802  -4.577  -8.009  0.00  0.00    -0.191 NA
ENDBRANCH   9  31
TORSDOF 6
