REMARK  Name = ZINC45227579
REMARK  6 active torsions:
REMARK  status: ('A' for Active; 'I' for Inactive)
REMARK    1  A    between atoms: C_4  and  C_7
REMARK    2  A    between atoms: C_7  and  C_8
REMARK    3  A    between atoms: N_11  and  C_14
REMARK    4  A    between atoms: C_21  and  C_29
REMARK    5  A    between atoms: N_22  and  C_23
REMARK    6  A    between atoms: C_31  and  C_35
REMARK                            x       y       z     vdW  Elec       q    Type
REMARK                         _______ _______ _______ _____ _____    ______ ____
ROOT
ATOM      1  C   UNL     1       7.306  -0.710   4.111  0.00  0.00    +0.058 A 
ATOM      2  C   UNL     1       7.704  -1.649   5.044  0.00  0.00    +0.025 A 
ATOM      3  C   UNL     1       9.042  -1.778   5.385  0.00  0.00    +0.004 A 
ATOM      4  C   UNL     1       9.995  -0.971   4.799  0.00  0.00    +0.028 A 
ATOM      5  C   UNL     1       9.618  -0.021   3.859  0.00  0.00    +0.071 A 
ATOM      6  C   UNL     1       8.266   0.115   3.502  0.00  0.00    +0.111 A 
ATOM      7  N   UNL     1       8.193   1.100   2.574  0.00  0.00    -0.226 NA
ATOM      8  C   UNL     1       9.392   1.569   2.335  0.00  0.00    +0.144 A 
ATOM      9  N   UNL     1      10.309   0.914   3.113  0.00  0.00    -0.322 N 
ENDROOT
BRANCH   9  10
ATOM     10  C   UNL     1      11.755   1.149   3.137  0.00  0.00    +0.071 C 
ATOM     11  C   UNL     1      12.370   0.578   4.436  0.00  0.00    +0.004 C 
ATOM     12  C   UNL     1      12.898  -0.808   3.989  0.00  0.00    -0.081 C 
ATOM     13  N   UNL     1      13.409  -0.551   2.618  0.00  0.00    +0.380 N 
ATOM     14  C   UNL     1      12.441   0.379   1.993  0.00  0.00    -0.057 C 
ATOM     15  H   UNL     1      14.322  -0.125   2.661  0.00  0.00    -0.086 HD
ATOM     16  H   UNL     1      13.450  -1.413   2.095  0.00  0.00    -0.086 HD
ENDBRANCH   9  10
BRANCH   1  20
ATOM     17  C   UNL     1       3.674   0.432   2.447  0.00  0.00    -0.004 C 
ATOM     18  C   UNL     1       4.394   1.269   3.507  0.00  0.00    +0.023 C 
ATOM     19  C   UNL     1       5.082   0.337   4.508  0.00  0.00    +0.105 C 
ATOM     20  N   UNL     1       5.957  -0.585   3.772  0.00  0.00    -0.328 N 
ATOM     21  C   UNL     1       5.386  -1.373   2.671  0.00  0.00    +0.105 C 
ATOM     22  C   UNL     1       4.695  -0.422   1.690  0.00  0.00    +0.023 C 
BRANCH  17  23
ATOM     23  C   UNL     1       2.957   1.359   1.465  0.00  0.00    +0.038 C 
BRANCH  23  27
ATOM     24  C   UNL     1      -0.129   3.491   3.510  0.00  0.00    +0.000 A 
ATOM     25  C   UNL     1       1.147   4.020   3.439  0.00  0.00    +0.000 A 
ATOM     26  C   UNL     1       2.145   3.330   2.777  0.00  0.00    +0.003 A 
ATOM     27  C   UNL     1       1.869   2.111   2.187  0.00  0.00    -0.047 A 
ATOM     28  C   UNL     1       0.594   1.582   2.259  0.00  0.00    +0.003 A 
ATOM     29  C   UNL     1      -0.405   2.272   2.919  0.00  0.00    +0.000 A 
ENDBRANCH  23  27
ENDBRANCH  17  23
ENDBRANCH   1  20
BRANCH   8  30
ATOM     30  C   UNL     1       9.706   2.653   1.378  0.00  0.00    +0.037 A 
ATOM     31  C   UNL     1       8.990   2.775   0.185  0.00  0.00    +0.033 A 
ATOM     32  C   UNL     1       9.328   3.817  -0.684  0.00  0.00    +0.070 A 
ATOM     33  C   UNL     1      10.360   4.688  -0.328  0.00  0.00    +0.129 A 
ATOM     34  N   UNL     1      11.010   4.537   0.808  0.00  0.00    -0.261 NA
ATOM     35  C   UNL     1      10.719   3.572   1.657  0.00  0.00    +0.122 A 
BRANCH  32  36
ATOM     36  C   UNL     1       8.626   3.988  -1.921  0.00  0.00    +0.101 C 
ATOM     37  N   UNL     1       8.070   4.123  -2.902  0.00  0.00    -0.191 NA
ENDBRANCH  32  36
ENDBRANCH   8  30
TORSDOF 6
