REMARK  Name = ZINC20154824
REMARK  11 active torsions:
REMARK  status: ('A' for Active; 'I' for Inactive)
REMARK    1  A    between atoms: C_1  and  C_2
REMARK    2  A    between atoms: C_2  and  O_3
REMARK    3  A    between atoms: O_3  and  C_4
REMARK    4  A    between atoms: C_6  and  C_21
REMARK    5  A    between atoms: C_9  and  O_10
REMARK    6  A    between atoms: O_10  and  C_11
REMARK    7  A    between atoms: C_11  and  C_13
REMARK    8  A    between atoms: C_16  and  O_19
REMARK    9  A    between atoms: O_19  and  C_20
REMARK   10  A    between atoms: C_32  and  S_33
REMARK   11  A    between atoms: S_33  and  C_34
REMARK                            x       y       z     vdW  Elec       q    Type
REMARK                         _______ _______ _______ _____ _____    ______ ____
ROOT
ATOM      1  C   UNL     1       0.965  -1.939  -1.445  0.00  0.00    +0.163 A 
ATOM      2  C   UNL     1       0.376  -2.721  -0.472  0.00  0.00    +0.057 A 
ATOM      3  C   UNL     1       0.412  -4.118  -0.585  0.00  0.00    -0.021 A 
ATOM      4  C   UNL     1       1.047  -4.711  -1.685  0.00  0.00    +0.012 A 
ATOM      5  C   UNL     1       1.632  -3.922  -2.649  0.00  0.00    +0.051 A 
ATOM      6  C   UNL     1       1.590  -2.538  -2.539  0.00  0.00    +0.173 A 
ENDROOT
BRANCH   3   7
ATOM      7  C   UNL     1      -0.211  -4.955   0.444  0.00  0.00    +0.024 C 
ATOM      8  C   UNL     1      -0.851  -6.120   0.089  0.00  0.00    +0.079 C 
ATOM      9  C   UNL     1      -1.338  -7.093   1.109  0.00  0.00    +0.137 C 
ATOM     10  N   UNL     1      -1.772  -6.742   2.288  0.00  0.00    -0.284 NA
ATOM     11  N   UNL     1      -1.283  -8.431   0.668  0.00  0.00    -0.211 N 
ATOM     12  C   UNL     1      -1.287  -8.677  -0.690  0.00  0.00    +0.183 C 
ATOM     13  N   UNL     1      -1.235  -7.778  -1.649  0.00  0.00    -0.152 NA
ATOM     14  C   UNL     1      -1.100  -6.475  -1.331  0.00  0.00    +0.273 C 
ATOM     15  O   UNL     1      -1.176  -5.609  -2.187  0.00  0.00    -0.268 OA
ATOM     16  S   UNL     1      -1.351 -10.340  -0.781  0.00  0.00    +0.048 S 
ATOM     17  N   UNL     1      -1.265 -10.708   0.852  0.00  0.00    -0.185 NA
ATOM     18  C   UNL     1      -1.234  -9.545   1.443  0.00  0.00    +0.175 C 
ATOM     19  H   UNL     1      -1.788  -5.805   2.540  0.00  0.00    +0.188 HD
BRANCH  18  20
ATOM     20  S   UNL     1      -1.131  -9.423   3.198  0.00  0.00    -0.093 S 
ATOM     21  C   UNL     1      -1.093 -11.149   3.756  0.00  0.00    +0.093 C 
ENDBRANCH  18  20
ENDBRANCH   3   7
BRANCH   1  22
ATOM     22  O   UNL     1       0.931  -0.583  -1.339  0.00  0.00    -0.489 OA
BRANCH  22  24
ATOM     23  C   UNL     1       0.338   1.490  -0.248  0.00  0.00    +0.048 C 
ATOM     24  C   UNL     1       0.275  -0.038  -0.193  0.00  0.00    +0.226 C 
ENDBRANCH  22  24
ENDBRANCH   1  22
BRANCH   6  25
ATOM     25  O   UNL     1       2.164  -1.765  -3.496  0.00  0.00    -0.419 OA
BRANCH  25  26
ATOM     26  C   UNL     1       3.430  -1.347  -3.297  0.00  0.00    +0.345 C 
ATOM     27  O   UNL     1       4.054  -1.738  -2.331  0.00  0.00    -0.245 OA
BRANCH  26  28
ATOM     28  C   UNL     1       4.057  -0.415  -4.252  0.00  0.00    +0.060 A 
ATOM     29  C   UNL     1       3.339   0.041  -5.362  0.00  0.00    +0.018 A 
ATOM     30  C   UNL     1       3.929   0.911  -6.251  0.00  0.00    +0.046 A 
ATOM     31  C   UNL     1       5.236   1.337  -6.047  0.00  0.00    +0.120 A 
ATOM     32  C   UNL     1       5.954   0.886  -4.945  0.00  0.00    +0.046 A 
ATOM     33  C   UNL     1       5.370   0.020  -4.048  0.00  0.00    +0.018 A 
BRANCH  31  34
ATOM     34  O   UNL     1       5.814   2.195  -6.925  0.00  0.00    -0.495 OA
ATOM     35  C   UNL     1       7.160   2.591  -6.655  0.00  0.00    +0.277 C 
ENDBRANCH  31  34
ENDBRANCH  26  28
ENDBRANCH  25  26
ENDBRANCH   6  25
TORSDOF 8
