REMARK  Name = ZINC02132005
REMARK  5 active torsions:
REMARK  status: ('A' for Active; 'I' for Inactive)
REMARK    1  A    between atoms: C_1  and  C_2
REMARK    2  A    between atoms: C_16  and  C_18
REMARK    3  A    between atoms: C_18  and  C_19
REMARK    4  A    between atoms: C_19  and  C_20
REMARK    5  A    between atoms: N_24  and  C_27
REMARK                            x       y       z     vdW  Elec       q    Type
REMARK                         _______ _______ _______ _____ _____    ______ ____
ROOT
ATOM      1  C   UNL     1      -5.320   2.092  -2.060  0.00  0.00    +0.045 C 
ATOM      2  C   UNL     1      -4.148   1.145  -2.025  0.00  0.00    -0.029 A 
ATOM      3  C   UNL     1      -4.327  -0.184  -2.348  0.00  0.00    +0.005 A 
ATOM      4  C   UNL     1      -3.258  -1.060  -2.317  0.00  0.00    +0.001 A 
ATOM      5  C   UNL     1      -2.001  -0.602  -1.963  0.00  0.00    +0.004 A 
ATOM      6  C   UNL     1      -1.817   0.725  -1.643  0.00  0.00    -0.027 A 
ATOM      7  C   UNL     1      -2.886   1.615  -1.669  0.00  0.00    +0.039 A 
ATOM      8  N   UNL     1      -2.458   2.894  -1.306  0.00  0.00    -0.286 N 
ATOM      9  C   UNL     1      -1.139   2.930  -1.032  0.00  0.00    +0.211 C 
ATOM     10  O   UNL     1      -0.496   3.900  -0.692  0.00  0.00    -0.277 OA
ATOM     11  C   UNL     1      -0.620   1.532  -1.228  0.00  0.00    +0.050 C 
ATOM     12  C   UNL     1       0.484   1.489  -2.292  0.00  0.00    +0.088 C 
ATOM     13  C   UNL     1       1.809   1.497  -1.481  0.00  0.00    +0.073 C 
ATOM     14  C   UNL     1       1.369   1.557  -0.003  0.00  0.00    -0.057 C 
ATOM     15  C   UNL     1       2.420   0.144  -1.767  0.00  0.00    +0.224 C 
ATOM     16  O   UNL     1       3.471  -0.259  -1.317  0.00  0.00    -0.275 OA
ATOM     17  N   UNL     1       1.620  -0.539  -2.593  0.00  0.00    -0.239 N 
ATOM     18  C   UNL     1       0.507   0.111  -2.953  0.00  0.00    +0.225 C 
ATOM     19  O   UNL     1      -0.348  -0.322  -3.695  0.00  0.00    -0.275 OA
ATOM     20  H   UNL     1      -3.042   3.667  -1.257  0.00  0.00    +0.155 HD
ATOM     21  N   UNL     1       0.004   1.027  -0.018  0.00  0.00    +0.394 N 
ATOM     22  H   UNL     1       0.022   0.000  -0.029  0.00  0.00    -0.083 HD
ATOM     23  H   UNL     1      -0.511   1.350   0.809  0.00  0.00    -0.083 HD
ENDROOT
BRANCH  17  24
ATOM     24  C   UNL     1       1.936  -1.889  -3.066  0.00  0.00    +0.084 C 
ATOM     25  C   UNL     1       2.059  -2.833  -1.868  0.00  0.00    +0.023 C 
ATOM     26  C   UNL     1       2.389  -4.243  -2.361  0.00  0.00    +0.002 C 
ATOM     27  C   UNL     1       3.713  -4.218  -3.128  0.00  0.00    +0.000 C 
ATOM     28  C   UNL     1       3.590  -3.274  -4.326  0.00  0.00    +0.002 C 
ATOM     29  C   UNL     1       3.260  -1.864  -3.833  0.00  0.00    +0.023 C 
ENDBRANCH  17  24
BRANCH  14  30
ATOM     30  C   UNL     1       2.292   0.696   0.863  0.00  0.00    -0.004 C 
BRANCH  30  31
ATOM     31  C   UNL     1       1.868   0.808   2.328  0.00  0.00    +0.123 C 
BRANCH  31  32
ATOM     32  C   UNL     1       2.777  -0.039   3.180  0.00  0.00    +0.356 C 
ATOM     33  O   UNL     1       3.673  -0.668   2.668  0.00  0.00    -0.246 OA
ATOM     34  O   UNL     1       2.592  -0.096   4.509  0.00  0.00    -0.246 OA
ENDBRANCH  31  32
ENDBRANCH  30  31
ENDBRANCH  14  30
TORSDOF 4
