REMARK  Name = ZINC12414121
REMARK  9 active torsions:
REMARK  status: ('A' for Active; 'I' for Inactive)
REMARK    1  A    between atoms: C_1  and  C_2
REMARK    2  A    between atoms: C_7  and  N_12
REMARK    3  A    between atoms: C_9  and  C_11
REMARK    4  A    between atoms: C_13  and  C_15
REMARK    5  A    between atoms: C_18  and  C_21
REMARK    6  A    between atoms: C_21  and  N_22
REMARK    7  A    between atoms: C_28  and  C_35
REMARK    8  A    between atoms: C_35  and  O_37
REMARK    9  A    between atoms: O_37  and  C_38
REMARK                            x       y       z     vdW  Elec       q    Type
REMARK                         _______ _______ _______ _____ _____    ______ ____
ROOT
ATOM      1  C   UNL     1      -4.943  -1.359   4.074  0.00  0.00    +0.037 A 
ATOM      2  C   UNL     1      -5.306  -0.179   3.423  0.00  0.00    +0.013 A 
ATOM      3  C   UNL     1      -4.909   0.036   2.120  0.00  0.00    +0.006 A 
ATOM      4  C   UNL     1      -4.151  -0.914   1.458  0.00  0.00    -0.028 A 
ATOM      5  C   UNL     1      -3.792  -2.088   2.096  0.00  0.00    +0.006 A 
ATOM      6  C   UNL     1      -4.178  -2.314   3.401  0.00  0.00    +0.013 A 
ENDROOT
BRANCH   1   8
ATOM      7  N   UNL     1      -5.012  -2.737   6.097  0.00  0.00    -0.308 N 
ATOM      8  C   UNL     1      -5.365  -1.597   5.471  0.00  0.00    +0.244 C 
ATOM      9  O   UNL     1      -6.030  -0.763   6.055  0.00  0.00    -0.270 OA
ATOM     10  H   UNL     1      -4.481  -3.402   5.631  0.00  0.00    +0.149 HD
BRANCH   7  16
ATOM     11  C   UNL     1      -5.958  -6.228   9.468  0.00  0.00    +0.008 C 
ATOM     12  C   UNL     1      -5.913  -4.723   9.197  0.00  0.00    -0.009 C 
ATOM     13  C   UNL     1      -4.914  -4.063  10.151  0.00  0.00    +0.003 C 
ATOM     14  C   UNL     1      -4.869  -2.558   9.881  0.00  0.00    +0.002 C 
ATOM     15  C   UNL     1      -4.432  -2.312   8.435  0.00  0.00    +0.022 C 
ATOM     16  C   UNL     1      -5.430  -2.972   7.481  0.00  0.00    +0.076 C 
ATOM     17  C   UNL     1      -5.476  -4.477   7.752  0.00  0.00    +0.009 C 
ATOM     18  C   UNL     1      -4.086  -5.077   7.530  0.00  0.00    +0.009 C 
ENDBRANCH   7  16
ENDBRANCH   1   8
BRANCH   4  19
ATOM     19  C   UNL     1      -3.721  -0.672   0.034  0.00  0.00    +0.162 C 
BRANCH  19  20
ATOM     20  N   UNL     1      -2.426   0.012   0.025  0.00  0.00    -0.284 N 
ATOM     21  C   UNL     1      -1.290  -0.719   0.011  0.00  0.00    +0.263 A 
ATOM     22  O   UNL     1      -1.331  -1.934   0.005  0.00  0.00    -0.267 OA
ATOM     23  C   UNL     1       0.002  -0.004   0.002  0.00  0.00    +0.063 A 
ATOM     24  C   UNL     1       1.214  -0.690  -0.013  0.00  0.00    +0.016 A 
ATOM     25  C   UNL     1       2.398   0.015  -0.020  0.00  0.00    +0.016 A 
ATOM     26  C   UNL     1       2.385   1.413  -0.012  0.00  0.00    +0.061 A 
ATOM     27  C   UNL     1       1.176   2.106   0.002  0.00  0.00    +0.041 A 
ATOM     28  C   UNL     1      -0.017   1.401   0.010  0.00  0.00    +0.054 A 
ATOM     29  N   UNL     1      -1.242   2.053   0.031  0.00  0.00    -0.335 N 
ATOM     30  H   UNL     1      -1.270   3.022   0.036  0.00  0.00    +0.168 HD
ATOM     31  C   UNL     1      -2.390   1.354   0.032  0.00  0.00    +0.161 A 
ATOM     32  S   UNL     1      -3.872   2.212   0.051  0.00  0.00    -0.013 S 
BRANCH  26  33
ATOM     33  C   UNL     1       3.662   2.161  -0.018  0.00  0.00    +0.339 C 
ATOM     34  O   UNL     1       3.655   3.376  -0.011  0.00  0.00    -0.245 OA
BRANCH  33  35
ATOM     35  O   UNL     1       4.833   1.495  -0.032  0.00  0.00    -0.464 OA
ATOM     36  C   UNL     1       6.045   2.294  -0.038  0.00  0.00    +0.280 C 
ENDBRANCH  33  35
ENDBRANCH  26  33
ENDBRANCH  19  20
ENDBRANCH   4  19
TORSDOF 6
