REMARK  Name = ZINC09663186
REMARK  11 active torsions:
REMARK  status: ('A' for Active; 'I' for Inactive)
REMARK    1  A    between atoms: C_1  and  O_2
REMARK    2  A    between atoms: O_2  and  C_3
REMARK    3  A    between atoms: C_8  and  O_9
REMARK    4  A    between atoms: O_9  and  C_10
REMARK    5  A    between atoms: C_11  and  C_32
REMARK    6  A    between atoms: C_15  and  C_16
REMARK    7  A    between atoms: C_15  and  N_62
REMARK    8  A    between atoms: C_23  and  O_30
REMARK    9  A    between atoms: C_24  and  O_28
REMARK   10  A    between atoms: O_28  and  C_29
REMARK   11  A    between atoms: O_30  and  C_31
REMARK                            x       y       z     vdW  Elec       q    Type
REMARK                         _______ _______ _______ _____ _____    ______ ____
ROOT
ATOM      1  C   UNL     1      -0.101   2.943   0.407  0.00  0.00    +0.162 A 
ATOM      2  C   UNL     1       0.297   3.979  -0.419  0.00  0.00    +0.053 A 
ATOM      3  C   UNL     1       0.052   5.296  -0.060  0.00  0.00    -0.043 A 
ATOM      4  C   UNL     1      -0.580   5.579   1.133  0.00  0.00    -0.049 A 
ATOM      5  C   UNL     1      -0.977   4.543   1.966  0.00  0.00    +0.052 A 
ATOM      6  C   UNL     1      -0.741   3.227   1.609  0.00  0.00    +0.162 A 
ATOM      7  C   UNL     1      -0.856   6.994   1.570  0.00  0.00    +0.001 C 
ATOM      8  C   UNL     1       0.526   7.729  -0.263  0.00  0.00    -0.072 C 
ATOM      9  C   UNL     1       0.494   6.389  -0.999  0.00  0.00    +0.017 C 
ATOM     10  N   UNL     1      -0.775   7.903   0.415  0.00  0.00    +0.392 N 
ATOM     11  H   UNL     1      -1.530   7.676  -0.244  0.00  0.00    -0.080 HD
ENDROOT
BRANCH   7  12
ATOM     12  C   UNL     1      -2.242   7.072   2.155  0.00  0.00    -0.019 A 
ATOM     13  C   UNL     1      -2.620   7.080   3.457  0.00  0.00    +0.010 A 
ATOM     14  C   UNL     1      -3.965   7.160   3.764  0.00  0.00    +0.008 A 
ATOM     15  C   UNL     1      -4.867   7.228   2.755  0.00  0.00    +0.045 A 
ATOM     16  S   UNL     1      -3.813   7.187   1.315  0.00  0.00    -0.103 S 
ENDBRANCH   7  12
BRANCH   1  18
ATOM     17  C   UNL     1       0.798   1.438  -1.201  0.00  0.00    +0.277 C 
ATOM     18  O   UNL     1       0.137   1.653   0.048  0.00  0.00    -0.491 OA
ENDBRANCH   1  18
BRANCH   6  19
ATOM     19  O   UNL     1      -1.133   2.216   2.430  0.00  0.00    -0.491 OA
ATOM     20  C   UNL     1      -1.784   2.585   3.648  0.00  0.00    +0.277 C 
ENDBRANCH   6  19
BRANCH  10  21
ATOM     21  C   UNL     1      -0.932   9.305   0.861  0.00  0.00    -0.002 C 
BRANCH  21  22
ATOM     22  C   UNL     1       0.220   9.703   1.748  0.00  0.00    +0.094 A 
ATOM     23  N   UNL     1       0.303  10.998   2.154  0.00  0.00    -0.312 N 
ATOM     24  H   UNL     1      -0.370  11.635   1.870  0.00  0.00    +0.170 HD
ATOM     25  C   UNL     1       1.318  11.405   2.952  0.00  0.00    +0.259 A 
ATOM     26  O   UNL     1       1.404  12.562   3.323  0.00  0.00    -0.267 OA
ATOM     27  C   UNL     1       2.310  10.400   3.352  0.00  0.00    +0.068 A 
ATOM     28  C   UNL     1       3.392  10.720   4.173  0.00  0.00    +0.064 A 
ATOM     29  C   UNL     1       4.297   9.739   4.521  0.00  0.00    +0.162 A 
ATOM     30  C   UNL     1       4.133   8.429   4.056  0.00  0.00    +0.164 A 
ATOM     31  C   UNL     1       3.067   8.098   3.243  0.00  0.00    +0.078 A 
ATOM     32  C   UNL     1       2.143   9.078   2.881  0.00  0.00    +0.082 A 
ATOM     33  N   UNL     1       1.078   8.792   2.089  0.00  0.00    -0.236 NA
BRANCH  30  34
ATOM     34  O   UNL     1       5.033   7.474   4.409  0.00  0.00    -0.491 OA
ATOM     35  C   UNL     1       4.811   6.156   3.902  0.00  0.00    +0.277 C 
ENDBRANCH  30  34
BRANCH  29  36
ATOM     36  O   UNL     1       5.353  10.046   5.320  0.00  0.00    -0.491 OA
ATOM     37  C   UNL     1       5.461  11.401   5.761  0.00  0.00    +0.277 C 
ENDBRANCH  29  36
ENDBRANCH  21  22
ENDBRANCH  10  21
TORSDOF 7
