REMARK  Name = ZINC12895534
REMARK  8 active torsions:
REMARK  status: ('A' for Active; 'I' for Inactive)
REMARK    1  A    between atoms: C_1  and  N_2
REMARK    2  A    between atoms: N_2  and  S_3
REMARK    3  A    between atoms: S_3  and  C_6
REMARK    4  A    between atoms: C_6  and  C_7
REMARK    5  A    between atoms: C_12  and  C_13
REMARK    6  A    between atoms: C_13  and  N_14
REMARK    7  A    between atoms: C_15  and  C_17
REMARK    8  A    between atoms: C_17  and  N_18
REMARK                            x       y       z     vdW  Elec       q    Type
REMARK                         _______ _______ _______ _____ _____    ______ ____
ROOT
ATOM      1  N   UNL     1       5.382   1.159  -1.715  0.00  0.00    -0.310 N 
ATOM      2  C   UNL     1       4.066   1.031  -1.455  0.00  0.00    +0.231 C 
ATOM      3  O   UNL     1       3.271   0.961  -2.369  0.00  0.00    -0.274 OA
ATOM      4  H   UNL     1       6.017   1.215  -0.984  0.00  0.00    +0.149 HD
ENDROOT
BRANCH   1   5
ATOM      5  C   UNL     1       5.853   1.214  -3.101  0.00  0.00    +0.140 C 
BRANCH   5  11
ATOM      6  C   UNL     1       8.156   0.250  -2.923  0.00  0.00    -0.020 A 
ATOM      7  C   UNL     1       9.532   0.382  -2.938  0.00  0.00    +0.005 A 
ATOM      8  C   UNL     1      10.105   1.623  -3.145  0.00  0.00    +0.000 A 
ATOM      9  C   UNL     1       9.302   2.731  -3.338  0.00  0.00    +0.000 A 
ATOM     10  C   UNL     1       7.926   2.598  -3.329  0.00  0.00    +0.005 A 
ATOM     11  C   UNL     1       7.353   1.358  -3.116  0.00  0.00    -0.026 A 
BRANCH   6  12
ATOM     12  C   UNL     1       7.531  -1.103  -2.698  0.00  0.00    +0.220 C 
BRANCH  12  13
ATOM     13  S   UNL     1       7.291  -1.932  -4.293  0.00  0.00    +0.033 S 
ATOM     14  O   UNL     1       6.301  -1.252  -5.054  0.00  0.00    -0.158 OA
ATOM     15  O   UNL     1       8.549  -2.259  -4.869  0.00  0.00    -0.158 OA
BRANCH  13  17
ATOM     16  C   UNL     1       5.271  -3.440  -3.315  0.00  0.00    +0.127 C 
ATOM     17  N   UNL     1       6.606  -3.391  -3.916  0.00  0.00    -0.197 NA
ATOM     18  H   UNL     1       7.089  -4.214  -4.093  0.00  0.00    +0.147 HD
ENDBRANCH  13  17
ENDBRANCH  12  13
ENDBRANCH   6  12
ENDBRANCH   5  11
ENDBRANCH   1   5
BRANCH   2  19
ATOM     19  C   UNL     1       3.581   0.975  -0.029  0.00  0.00    +0.213 C 
BRANCH  19  20
ATOM     20  N   UNL     1       2.123   0.835  -0.015  0.00  0.00    -0.215 N 
ATOM     21  C   UNL     1       1.475  -0.348  -0.015  0.00  0.00    +0.251 C 
ATOM     22  O   UNL     1       1.969  -1.455  -0.025  0.00  0.00    -0.272 OA
ATOM     23  C   UNL     1       0.002  -0.004   0.002  0.00  0.00    +0.138 C 
ATOM     24  C   UNL     1      -0.679  -0.538  -1.252  0.00  0.00    +0.040 C 
ATOM     25  C   UNL     1      -2.193  -0.336  -1.106  0.00  0.00    +0.008 C 
ATOM     26  C   UNL     1      -2.704  -1.276  -0.015  0.00  0.00    +0.035 C 
ATOM     27  C   UNL     1      -1.891  -1.121   1.244  0.00  0.00    -0.042 A 
ATOM     28  C   UNL     1      -0.641  -0.542   1.250  0.00  0.00    -0.012 A 
ATOM     29  C   UNL     1       0.063  -0.441   2.442  0.00  0.00    +0.006 A 
ATOM     30  C   UNL     1      -0.479  -0.913   3.619  0.00  0.00    +0.000 A 
ATOM     31  C   UNL     1      -1.736  -1.490   3.614  0.00  0.00    +0.000 A 
ATOM     32  C   UNL     1      -2.437  -1.593   2.430  0.00  0.00    +0.004 A 
ATOM     33  N   UNL     1      -0.018   1.465   0.010  0.00  0.00    -0.281 N 
ATOM     34  C   UNL     1       1.268   1.865   0.000  0.00  0.00    +0.310 C 
ATOM     35  O   UNL     1       1.614   3.030   0.003  0.00  0.00    -0.252 OA
ATOM     36  H   UNL     1      -0.803   2.035   0.017  0.00  0.00    +0.152 HD
ENDBRANCH  19  20
ENDBRANCH   2  19
TORSDOF 7
