REMARK  Name = ZINC48846755
REMARK  8 active torsions:
REMARK  status: ('A' for Active; 'I' for Inactive)
REMARK    1  A    between atoms: C_1  and  C_2
REMARK    2  A    between atoms: C_2  and  C_3
REMARK    3  A    between atoms: C_3  and  C_4
REMARK    4  A    between atoms: C_3  and  C_11
REMARK    5  A    between atoms: C_3  and  N_14
REMARK    6  A    between atoms: C_7  and  C_10
REMARK    7  A    between atoms: N_14  and  C_15
REMARK    8  A    between atoms: C_21  and  N_23
REMARK                            x       y       z     vdW  Elec       q    Type
REMARK                         _______ _______ _______ _____ _____    ______ ____
ROOT
ATOM      1  C   UNL     1       0.756  -0.642  -1.352  0.00  0.00    +0.147 C 
ENDROOT
BRANCH   1   2
ATOM      2  C   UNL     1       2.195  -0.198  -1.405  0.00  0.00    -0.017 A 
ATOM      3  C   UNL     1       2.611   0.680  -2.388  0.00  0.00    +0.006 A 
ATOM      4  C   UNL     1       3.931   1.087  -2.436  0.00  0.00    +0.004 A 
ATOM      5  C   UNL     1       4.835   0.616  -1.502  0.00  0.00    -0.050 A 
ATOM      6  C   UNL     1       4.418  -0.262  -0.519  0.00  0.00    +0.004 A 
ATOM      7  C   UNL     1       3.097  -0.665  -0.468  0.00  0.00    +0.006 A 
ATOM      8  C   UNL     1       6.274   1.060  -1.556  0.00  0.00    +0.044 C 
ENDBRANCH   1   2
BRANCH   1   9
ATOM      9  C   UNL     1       0.687  -2.141  -1.495  0.00  0.00    +0.380 C 
ATOM     10  O   UNL     1       0.071  -2.637  -2.423  0.00  0.00    -0.244 OA
ATOM     11  O   UNL     1       1.246  -2.857  -0.682  0.00  0.00    -0.244 OA
ENDBRANCH   1   9
BRANCH   1  13
ATOM     12  C   UNL     1       0.294   1.282   0.174  0.00  0.00    +0.006 C 
ATOM     13  C   UNL     1       0.144  -0.229  -0.011  0.00  0.00    +0.035 C 
ENDBRANCH   1  13
BRANCH   1  14
ATOM     14  N   UNL     1       0.008  -0.011  -2.447  0.00  0.00    -0.297 NA
ATOM     15  H   UNL     1       0.107   0.993  -2.421  0.00  0.00    +0.123 HD
BRANCH  14  16
ATOM     16  C   UNL     1      -1.408  -0.401  -2.411  0.00  0.00    +0.040 C 
ATOM     17  C   UNL     1      -2.220   0.688  -1.707  0.00  0.00    +0.017 C 
ATOM     18  C   UNL     1      -3.694   0.281  -1.670  0.00  0.00    +0.001 C 
ATOM     19  C   UNL     1      -4.211   0.104  -3.099  0.00  0.00    -0.001 C 
ATOM     20  C   UNL     1      -3.399  -0.985  -3.803  0.00  0.00    -0.015 C 
ATOM     21  C   UNL     1      -1.924  -0.578  -3.840  0.00  0.00    -0.058 C 
BRANCH  21  22
ATOM     22  N   UNL     1      -1.145  -1.624  -4.517  0.00  0.00    +0.381 N 
ATOM     23  H   UNL     1      -1.242  -2.494  -4.014  0.00  0.00    -0.090 HD
ATOM     24  H   UNL     1      -1.486  -1.741  -5.459  0.00  0.00    -0.090 HD
ATOM     25  H   UNL     1      -0.173  -1.356  -4.541  0.00  0.00    -0.090 HD
ENDBRANCH  21  22
ENDBRANCH  14  16
ENDBRANCH   1  14
TORSDOF 6
