REMARK  Name = ZINC39674683
REMARK  7 active torsions:
REMARK  status: ('A' for Active; 'I' for Inactive)
REMARK    1  A    between atoms: C_1  and  C_2
REMARK    2  A    between atoms: C_4  and  C_14
REMARK    3  A    between atoms: C_7  and  C_12
REMARK    4  A    between atoms: C_14  and  C_15
REMARK    5  A    between atoms: C_15  and  N_16
REMARK    6  A    between atoms: C_17  and  C_19
REMARK    7  A    between atoms: C_30  and  C_32
REMARK                            x       y       z     vdW  Elec       q    Type
REMARK                         _______ _______ _______ _____ _____    ______ ____
ROOT
ATOM      1  C   UNL     1       1.001  -0.779  -7.940  0.00  0.00    +0.100 C 
ATOM      2  C   UNL     1       1.152   0.758  -7.939  0.00  0.00    +0.121 C 
ATOM      3  N   UNL     1       2.522   1.000  -8.449  0.00  0.00    -0.296 N 
ATOM      4  C   UNL     1       2.696  -0.003  -9.527  0.00  0.00    +0.115 C 
ATOM      5  C   UNL     1       2.013  -1.275  -8.986  0.00  0.00    -0.004 C 
ATOM      6  C   UNL     1       1.292  -2.007 -10.114  0.00  0.00    -0.010 C 
ATOM      7  C   UNL     1       2.324  -2.541 -11.112  0.00  0.00    -0.082 C 
ATOM      8  N   UNL     1       3.248  -3.450 -10.423  0.00  0.00    +0.379 N 
ATOM      9  C   UNL     1       4.005  -2.716  -9.402  0.00  0.00    -0.082 C 
ATOM     10  C   UNL     1       3.044  -2.190  -8.332  0.00  0.00    -0.010 C 
ATOM     11  C   UNL     1       3.410   1.923  -8.029  0.00  0.00    +0.247 C 
ATOM     12  O   UNL     1       3.167   2.596  -7.046  0.00  0.00    -0.270 OA
ATOM     13  H   UNL     1       2.723  -4.191  -9.983  0.00  0.00    -0.086 HD
ATOM     14  H   UNL     1       3.888  -3.848 -11.094  0.00  0.00    -0.086 HD
ENDROOT
BRANCH  11  15
ATOM     15  C   UNL     1       4.677   2.118  -8.763  0.00  0.00    +0.037 A 
ATOM     16  C   UNL     1       4.790   1.699 -10.090  0.00  0.00    +0.014 A 
ATOM     17  C   UNL     1       5.975   1.884 -10.770  0.00  0.00    +0.021 A 
ATOM     18  C   UNL     1       7.053   2.483 -10.139  0.00  0.00    +0.041 A 
ATOM     19  C   UNL     1       6.947   2.901  -8.823  0.00  0.00    +0.021 A 
ATOM     20  C   UNL     1       5.765   2.727  -8.134  0.00  0.00    +0.014 A 
ATOM     21 CL   UNL     1       8.542   2.711 -11.002  0.00  0.00    -0.084 Cl
ENDBRANCH  11  15
BRANCH   1  23
ATOM     22  N   UNL     1       0.833  -2.535  -6.205  0.00  0.00    -0.315 N 
ATOM     23  C   UNL     1       1.333  -1.341  -6.582  0.00  0.00    +0.218 C 
ATOM     24  O   UNL     1       2.049  -0.718  -5.827  0.00  0.00    -0.275 OA
ATOM     25  H   UNL     1       0.260  -3.033  -6.809  0.00  0.00    +0.149 HD
BRANCH  22  26
ATOM     26  C   UNL     1       1.156  -3.080  -4.885  0.00  0.00    +0.108 C 
BRANCH  26  27
ATOM     27  C   UNL     1       0.468  -4.436  -4.711  0.00  0.00    +0.052 C 
BRANCH  27  30
ATOM     28  C   UNL     1      -1.197  -6.329  -2.675  0.00  0.00    +0.035 C 
ATOM     29  C   UNL     1       0.329  -6.312  -2.772  0.00  0.00    +0.103 C 
ATOM     30  C   UNL     1       0.800  -4.997  -3.353  0.00  0.00    -0.037 C 
ATOM     31  C   UNL     1       1.581  -4.425  -2.401  0.00  0.00    +0.000 A 
ATOM     32  C   UNL     1       2.293  -3.197  -2.374  0.00  0.00    +0.028 A 
ATOM     33  C   UNL     1       3.025  -2.849  -1.262  0.00  0.00    +0.052 A 
ATOM     34  C   UNL     1       3.088  -3.720  -0.093  0.00  0.00    +0.021 A 
ATOM     35  C   UNL     1       2.432  -4.898  -0.063  0.00  0.00    +0.027 A 
ATOM     36  C   UNL     1       1.637  -5.318  -1.223  0.00  0.00    +0.043 A 
ATOM     37  N   UNL     1       0.923  -6.398  -1.434  0.00  0.00    -0.378 N 
ATOM     38  H   UNL     1       0.805  -7.131  -0.809  0.00  0.00    +0.160 HD
BRANCH  33  39
ATOM     39  C   UNL     1       3.737  -1.607  -1.251  0.00  0.00    +0.099 C 
ATOM     40  N   UNL     1       4.303  -0.621  -1.243  0.00  0.00    -0.191 NA
ENDBRANCH  33  39
ENDBRANCH  27  30
ENDBRANCH  26  27
ENDBRANCH  22  26
ENDBRANCH   1  23
TORSDOF 6
