REMARK  Name = ZINC06173208
REMARK  7 active torsions:
REMARK  status: ('A' for Active; 'I' for Inactive)
REMARK    1  A    between atoms: C_1  and  N_65
REMARK    2  A    between atoms: C_2  and  C_3
REMARK    3  A    between atoms: C_2  and  N_65
REMARK    4  A    between atoms: C_8  and  C_11
REMARK    5  A    between atoms: N_19  and  S_20
REMARK    6  A    between atoms: S_20  and  C_23
REMARK    7  A    between atoms: C_29  and  N_65
REMARK                            x       y       z     vdW  Elec       q    Type
REMARK                         _______ _______ _______ _____ _____    ______ ____
ROOT
ATOM      1  C   UNL     1      -0.718   1.572   1.248  0.00  0.00    +0.202 C 
ATOM      2  O   UNL     1      -1.714   2.256   1.150  0.00  0.00    -0.277 OA
ATOM      3  N   UNL     1      -0.242   1.246   2.466  0.00  0.00    -0.266 N 
ATOM      4  C   UNL     1      -0.892   1.694   3.609  0.00  0.00    +0.165 A 
ATOM      5  N   UNL     1      -0.589   1.488   4.877  0.00  0.00    -0.225 NA
ATOM      6  C   UNL     1      -1.328   1.996   5.852  0.00  0.00    +0.080 A 
ATOM      7  C   UNL     1      -2.425   2.749   5.539  0.00  0.00    +0.076 A 
ATOM      8  S   UNL     1      -2.356   2.709   3.753  0.00  0.00    -0.060 S 
ATOM      9  H   UNL     1       0.555   0.699   2.544  0.00  0.00    +0.157 HD
ENDROOT
BRANCH   6  10
ATOM     10  C   UNL     1      -0.969   1.750   7.270  0.00  0.00    +0.001 A 
ATOM     11  C   UNL     1      -1.744   2.291   8.294  0.00  0.00    +0.012 A 
ATOM     12  C   UNL     1      -1.412   2.057   9.609  0.00  0.00    +0.025 A 
ATOM     13  C   UNL     1      -0.291   1.286   9.930  0.00  0.00    +0.055 A 
ATOM     14  C   UNL     1       0.481   0.755   8.907  0.00  0.00    -0.023 A 
ATOM     15  C   UNL     1       0.150   0.982   7.587  0.00  0.00    +0.015 A 
ATOM     16  C   UNL     1       1.620  -0.028   9.521  0.00  0.00    +0.058 C 
ATOM     17  C   UNL     1       1.413   0.115  11.037  0.00  0.00    +0.136 C 
ATOM     18  N   UNL     1       0.212   0.940  11.186  0.00  0.00    -0.202 N 
BRANCH  18  19
ATOM     19  S   UNL     1      -0.452   1.398  12.632  0.00  0.00    +0.075 S 
ATOM     20  O   UNL     1      -1.823   1.672  12.381  0.00  0.00    -0.150 OA
ATOM     21  O   UNL     1      -0.030   0.440  13.593  0.00  0.00    -0.150 OA
BRANCH  19  22
ATOM     22  C   UNL     1       0.293   2.929  13.086  0.00  0.00    +0.109 A 
ATOM     23  C   UNL     1       1.444   2.937  13.852  0.00  0.00    +0.029 A 
ATOM     24  C   UNL     1       2.031   4.138  14.204  0.00  0.00    +0.002 A 
ATOM     25  C   UNL     1       1.461   5.331  13.800  0.00  0.00    +0.000 A 
ATOM     26  C   UNL     1       0.307   5.322  13.039  0.00  0.00    +0.002 A 
ATOM     27  C   UNL     1      -0.277   4.121  12.682  0.00  0.00    +0.029 A 
ENDBRANCH  19  22
ENDBRANCH  18  19
ENDBRANCH   6  10
BRANCH   1  28
ATOM     28  C   UNL     1      -0.013   1.086   0.008  0.00  0.00    +0.019 C 
BRANCH  28  30
ATOM     29  C   UNL     1      -2.059   0.969  -1.281  0.00  0.00    -0.095 C 
ATOM     30  N   UNL     1      -0.727   1.601  -1.179  0.00  0.00    +0.385 N 
ATOM     31  H   UNL     1      -0.845   2.616  -1.083  0.00  0.00    -0.081 HD
BRANCH  30  32
ATOM     32  C   UNL     1       0.059   1.323  -2.401  0.00  0.00    -0.068 C 
ATOM     33  C   UNL     1       1.403   2.047  -2.301  0.00  0.00    -0.015 C 
ATOM     34  C   UNL     1       2.217   1.787  -3.571  0.00  0.00    -0.002 C 
ATOM     35  C   UNL     1       1.446   2.307  -4.786  0.00  0.00    -0.000 C 
ATOM     36  C   UNL     1       0.102   1.582  -4.885  0.00  0.00    -0.002 C 
ATOM     37  C   UNL     1      -0.712   1.842  -3.616  0.00  0.00    -0.015 C 
ENDBRANCH  30  32
ENDBRANCH  28  30
ENDBRANCH   1  28
TORSDOF 6
