REMARK  Name = ZINC36525565
REMARK  15 active torsions:
REMARK  status: ('A' for Active; 'I' for Inactive)
REMARK    1  A    between atoms: C_1  and  C_2
REMARK    2  A    between atoms: C_2  and  C_3
REMARK    3  A    between atoms: C_3  and  C_4
REMARK    4  A    between atoms: C_4  and  N_5
REMARK    5  A    between atoms: C_6  and  C_8
REMARK    6  A    between atoms: C_8  and  C_10
REMARK    7  A    between atoms: C_8  and  N_19
REMARK    8  A    between atoms: C_11  and  O_18
REMARK    9  A    between atoms: C_13  and  O_17
REMARK   10  A    between atoms: C_15  and  O_16
REMARK   11  A    between atoms: N_19  and  C_20
REMARK   12  A    between atoms: C_21  and  C_23
REMARK   13  A    between atoms: C_31  and  C_33
REMARK   14  A    between atoms: C_34  and  C_35
REMARK   15  A    between atoms: C_34  and  C_36
REMARK                            x       y       z     vdW  Elec       q    Type
REMARK                         _______ _______ _______ _____ _____    ______ ____
ROOT
ATOM      1  C   UNL     1       2.550  -3.793   3.339  0.00  0.00    +0.199 C 
ENDROOT
BRANCH   1   2
ATOM      2  C   UNL     1       1.804  -2.709   4.074  0.00  0.00    +0.065 A 
ATOM      3  C   UNL     1       1.947  -2.577   5.447  0.00  0.00    +0.129 A 
ATOM      4  C   UNL     1       1.260  -1.580   6.123  0.00  0.00    +0.091 A 
ATOM      5  C   UNL     1       0.432  -0.713   5.425  0.00  0.00    +0.124 A 
ATOM      6  C   UNL     1       0.291  -0.844   4.052  0.00  0.00    +0.091 A 
ATOM      7  C   UNL     1       0.981  -1.839   3.376  0.00  0.00    +0.129 A 
BRANCH   7   8
ATOM      8  O   UNL     1       0.846  -1.964   2.029  0.00  0.00    -0.506 OA
ATOM      9  H   UNL     1       0.125  -2.550   1.759  0.00  0.00    +0.292 HD
ENDBRANCH   7   8
BRANCH   5  10
ATOM     10  O   UNL     1      -0.241   0.264   6.088  0.00  0.00    -0.507 OA
ATOM     11  H   UNL     1       0.244   1.098   6.157  0.00  0.00    +0.292 HD
ENDBRANCH   5  10
BRANCH   3  12
ATOM     12  O   UNL     1       2.758  -3.427   6.130  0.00  0.00    -0.506 OA
ATOM     13  H   UNL     1       3.687  -3.158   6.144  0.00  0.00    +0.292 HD
ENDBRANCH   3  12
ENDBRANCH   1   2
BRANCH   1  15
ATOM     14  N   UNL     1       3.798  -2.348   1.766  0.00  0.00    -0.313 N 
ATOM     15  C   UNL     1       2.882  -3.321   1.947  0.00  0.00    +0.238 C 
ATOM     16  O   UNL     1       2.325  -3.815   0.990  0.00  0.00    -0.273 OA
ATOM     17  H   UNL     1       4.243  -1.953   2.531  0.00  0.00    +0.149 HD
BRANCH  14  18
ATOM     18  C   UNL     1       4.120  -1.889   0.413  0.00  0.00    +0.104 C 
BRANCH  18  19
ATOM     19  C   UNL     1       5.181  -0.789   0.487  0.00  0.00    +0.018 C 
BRANCH  19  21
ATOM     20  C   UNL     1       6.578   0.791  -0.852  0.00  0.00    +0.004 C 
ATOM     21  C   UNL     1       5.517  -0.309  -0.926  0.00  0.00    -0.002 C 
ENDBRANCH  19  21
ENDBRANCH  18  19
ENDBRANCH  14  18
ENDBRANCH   1  15
BRANCH   1  22
ATOM     22  N   UNL     1       1.714  -4.994   3.261  0.00  0.00    -0.289 N 
ATOM     23  C   UNL     1       0.393  -4.927   2.632  0.00  0.00    +0.133 C 
ATOM     24  C   UNL     1       2.161  -6.160   3.769  0.00  0.00    +0.220 C 
ATOM     25  O   UNL     1       3.208  -6.194   4.380  0.00  0.00    -0.275 OA
BRANCH  24  26
ATOM     26  C   UNL     1       1.353  -7.431   3.575  0.00  0.00    +0.079 C 
ATOM     27  C   UNL     1       0.230  -7.457   4.607  0.00  0.00    +0.017 C 
ATOM     28  C   UNL     1      -0.053  -8.863   5.136  0.00  0.00    -0.004 C 
ATOM     29  C   UNL     1       1.202  -9.471   5.800  0.00  0.00    +0.008 C 
ATOM     30  C   UNL     1       1.604  -9.831   4.348  0.00  0.00    -0.001 C 
ATOM     31  C   UNL     1       2.286  -8.628   3.698  0.00  0.00    +0.001 C 
ATOM     32  C   UNL     1       2.864  -9.005   2.330  0.00  0.00    +0.008 C 
ATOM     33  C   UNL     1       0.103  -9.970   4.086  0.00  0.00    -0.029 C 
ATOM     34  C   UNL     1      -0.392  -9.626   2.685  0.00  0.00    +0.011 C 
ATOM     35  C   UNL     1      -0.469 -11.324   4.551  0.00  0.00    +0.011 C 
ENDBRANCH  24  26
ENDBRANCH   1  22
TORSDOF 10
