REMARK  Name = ZINC36541090
REMARK  15 active torsions:
REMARK  status: ('A' for Active; 'I' for Inactive)
REMARK    1  A    between atoms: C_1  and  C_2
REMARK    2  A    between atoms: C_2  and  C_3
REMARK    3  A    between atoms: C_2  and  C_4
REMARK    4  A    between atoms: C_4  and  C_5
REMARK    5  A    between atoms: N_7  and  C_8
REMARK    6  A    between atoms: N_7  and  C_15
REMARK    7  A    between atoms: C_15  and  C_17
REMARK    8  A    between atoms: C_15  and  C_26
REMARK    9  A    between atoms: C_18  and  O_25
REMARK   10  A    between atoms: C_20  and  O_24
REMARK   11  A    between atoms: C_22  and  O_23
REMARK   12  A    between atoms: N_28  and  C_29
REMARK   13  A    between atoms: C_29  and  C_30
REMARK   14  A    between atoms: C_29  and  C_31
REMARK   15  A    between atoms: C_29  and  C_32
REMARK                            x       y       z     vdW  Elec       q    Type
REMARK                         _______ _______ _______ _____ _____    ______ ____
ROOT
ATOM      1  C   UNL     1      -2.582  -4.133  -0.382  0.00  0.00    +0.204 C 
ENDROOT
BRANCH   1   2
ATOM      2  C   UNL     1      -3.437  -4.792   0.669  0.00  0.00    +0.065 A 
ATOM      3  C   UNL     1      -4.710  -4.308   0.932  0.00  0.00    +0.129 A 
ATOM      4  C   UNL     1      -5.497  -4.915   1.899  0.00  0.00    +0.091 A 
ATOM      5  C   UNL     1      -5.012  -6.007   2.603  0.00  0.00    +0.124 A 
ATOM      6  C   UNL     1      -3.739  -6.492   2.340  0.00  0.00    +0.091 A 
ATOM      7  C   UNL     1      -2.954  -5.887   1.370  0.00  0.00    +0.129 A 
BRANCH   7   8
ATOM      8  O   UNL     1      -1.709  -6.365   1.109  0.00  0.00    -0.506 OA
ATOM      9  H   UNL     1      -1.012  -5.963   1.646  0.00  0.00    +0.292 HD
ENDBRANCH   7   8
BRANCH   5  10
ATOM     10  O   UNL     1      -5.783  -6.601   3.551  0.00  0.00    -0.507 OA
ATOM     11  H   UNL     1      -6.340  -7.316   3.213  0.00  0.00    +0.292 HD
ENDBRANCH   5  10
BRANCH   3  12
ATOM     12  O   UNL     1      -5.186  -3.238   0.242  0.00  0.00    -0.506 OA
ATOM     13  H   UNL     1      -5.656  -3.472  -0.570  0.00  0.00    +0.292 HD
ENDBRANCH   3  12
ENDBRANCH   1   2
BRANCH   1  14
ATOM     14  C   UNL     1      -3.351  -4.048  -1.675  0.00  0.00    +0.239 C 
ATOM     15  O   UNL     1      -3.574  -2.967  -2.178  0.00  0.00    -0.273 OA
ATOM     16  N   UNL     1      -3.790  -5.173  -2.272  0.00  0.00    -0.309 N 
ATOM     17  H   UNL     1      -3.612  -6.038  -1.870  0.00  0.00    +0.149 HD
BRANCH  16  18
ATOM     18  C   UNL     1      -4.538  -5.091  -3.530  0.00  0.00    +0.026 C 
ATOM     19  C   UNL     1      -3.669  -4.421  -4.596  0.00  0.00    +0.031 C 
ATOM     20  C   UNL     1      -4.917  -6.500  -3.991  0.00  0.00    +0.031 C 
ATOM     21  C   UNL     1      -5.808  -4.266  -3.314  0.00  0.00    +0.031 C 
ENDBRANCH  16  18
ENDBRANCH   1  14
BRANCH   1  24
ATOM     22  C   UNL     1      -0.926  -2.406   0.081  0.00  0.00    +0.221 C 
ATOM     23  O   UNL     1      -0.061  -3.183  -0.267  0.00  0.00    -0.275 OA
ATOM     24  N   UNL     1      -2.219  -2.784   0.060  0.00  0.00    -0.254 N 
BRANCH  24  25
ATOM     25  C   UNL     1      -3.216  -1.887   0.461  0.00  0.00    +0.056 A 
ATOM     26  C   UNL     1      -3.823  -1.058  -0.473  0.00  0.00    +0.025 A 
ATOM     27  C   UNL     1      -4.807  -0.175  -0.074  0.00  0.00    +0.002 A 
ATOM     28  C   UNL     1      -5.188  -0.114   1.254  0.00  0.00    +0.002 A 
ATOM     29  C   UNL     1      -4.586  -0.938   2.187  0.00  0.00    +0.022 A 
ATOM     30  C   UNL     1      -3.605  -1.828   1.794  0.00  0.00    +0.062 A 
ATOM     31 CL   UNL     1      -2.854  -2.868   2.965  0.00  0.00    -0.082 Cl
ENDBRANCH  24  25
BRANCH  22  32
ATOM     32  C   UNL     1      -0.553  -1.019   0.535  0.00  0.00    +0.099 C 
BRANCH  32  34
ATOM     33  C   UNL     1       1.335   0.596   0.804  0.00  0.00    +0.008 C 
ATOM     34  C   UNL     1       0.966  -0.849   0.463  0.00  0.00    -0.008 C 
ATOM     35  C   UNL     1       1.633  -1.796   1.463  0.00  0.00    +0.008 C 
ENDBRANCH  32  34
ENDBRANCH  22  32
ENDBRANCH   1  24
TORSDOF 10
