REMARK  Name = ZINC44713574
REMARK  6 active torsions:
REMARK  status: ('A' for Active; 'I' for Inactive)
REMARK    1  A    between atoms: C_1  and  C_2
REMARK    2  A    between atoms: C_4  and  C_11
REMARK    3  A    between atoms: C_5  and  C_7
REMARK    4  A    between atoms: C_15  and  C_24
REMARK    5  A    between atoms: N_26  and  C_27
REMARK    6  A    between atoms: C_27  and  C_28
REMARK                            x       y       z     vdW  Elec       q    Type
REMARK                         _______ _______ _______ _____ _____    ______ ____
ROOT
ATOM      1  C   UNL     1      -1.367  -3.430  -0.015  0.00  0.00    +0.250 C 
ATOM      2  O   UNL     1      -0.814  -4.508  -0.125  0.00  0.00    -0.270 OA
ATOM      3  N   UNL     1      -2.708  -3.369   0.094  0.00  0.00    -0.296 N 
ATOM      4  C   UNL     1      -3.563  -2.159   0.118  0.00  0.00    +0.121 C 
ATOM      5  C   UNL     1      -4.807  -2.543  -0.715  0.00  0.00    +0.100 C 
ATOM      6  C   UNL     1      -4.868  -4.078  -0.643  0.00  0.00    -0.004 C 
ATOM      7  C   UNL     1      -3.663  -4.497   0.212  0.00  0.00    +0.115 C 
ATOM      8  C   UNL     1      -6.168  -4.525   0.019  0.00  0.00    -0.010 C 
ATOM      9  C   UNL     1      -6.231  -6.055   0.026  0.00  0.00    -0.082 C 
ATOM     10  N   UNL     1      -6.163  -6.556  -1.352  0.00  0.00    +0.379 N 
ATOM     11  C   UNL     1      -4.870  -6.201  -1.950  0.00  0.00    -0.082 C 
ATOM     12  C   UNL     1      -4.749  -4.677  -2.041  0.00  0.00    -0.010 C 
ATOM     13  H   UNL     1      -6.266  -7.560  -1.349  0.00  0.00    -0.086 HD
ATOM     14  H   UNL     1      -6.908  -6.146  -1.895  0.00  0.00    -0.086 HD
ENDROOT
BRANCH   1  18
ATOM     15  C   UNL     1       0.177   1.363   0.807  0.00  0.00    +0.086 C 
ATOM     16  C   UNL     1       0.094  -0.077   0.370  0.00  0.00    +0.103 A 
ATOM     17  C   UNL     1      -0.934  -0.905   0.609  0.00  0.00    +0.058 A 
ATOM     18  C   UNL     1      -0.569  -2.191  -0.002  0.00  0.00    +0.087 A 
ATOM     19  C   UNL     1       0.664  -1.998  -0.555  0.00  0.00    +0.220 A 
ATOM     20  O   UNL     1       1.035  -0.735  -0.326  0.00  0.00    -0.455 OA
BRANCH  19  21
ATOM     21  C   UNL     1       1.467  -3.032  -1.301  0.00  0.00    +0.451 C 
ATOM     22  F   UNL     1       1.150  -2.975  -2.662  0.00  0.00    -0.163 F 
ATOM     23  F   UNL     1       2.832  -2.775  -1.129  0.00  0.00    -0.163 F 
ATOM     24  F   UNL     1       1.166  -4.304  -0.804  0.00  0.00    -0.163 F 
ENDBRANCH  19  21
ENDBRANCH   1  18
BRANCH   5  25
ATOM     25  C   UNL     1      -4.644  -2.088  -2.142  0.00  0.00    +0.219 C 
ATOM     26  O   UNL     1      -3.549  -2.104  -2.663  0.00  0.00    -0.275 OA
ATOM     27  N   UNL     1      -5.716  -1.664  -2.840  0.00  0.00    -0.309 N 
ATOM     28  H   UNL     1      -6.592  -1.651  -2.424  0.00  0.00    +0.149 HD
BRANCH  27  29
ATOM     29  C   UNL     1      -5.558  -1.221  -4.228  0.00  0.00    +0.157 C 
BRANCH  29  30
ATOM     30  C   UNL     1      -6.897  -0.800  -4.777  0.00  0.00    +0.034 A 
ATOM     31  C   UNL     1      -7.723  -1.589  -5.483  0.00  0.00    +0.032 A 
ATOM     32  C   UNL     1      -8.903  -0.786  -5.813  0.00  0.00    -0.000 A 
ATOM     33  C   UNL     1     -10.083  -1.039  -6.515  0.00  0.00    +0.010 A 
ATOM     34  C   UNL     1     -11.016  -0.050  -6.652  0.00  0.00    +0.001 A 
ATOM     35  C   UNL     1     -10.800   1.205  -6.099  0.00  0.00    +0.002 A 
ATOM     36  C   UNL     1      -9.642   1.476  -5.403  0.00  0.00    +0.026 A 
ATOM     37  C   UNL     1      -8.679   0.484  -5.251  0.00  0.00    +0.047 A 
ATOM     38  N   UNL     1      -7.454   0.440  -4.624  0.00  0.00    -0.357 N 
ATOM     39  H   UNL     1      -7.046   1.179  -4.146  0.00  0.00    +0.166 HD
ENDBRANCH  29  30
ENDBRANCH  27  29
ENDBRANCH   5  25
TORSDOF 5
