REMARK  Name = ZINC09291743
REMARK  8 active torsions:
REMARK  status: ('A' for Active; 'I' for Inactive)
REMARK    1  A    between atoms: C_4  and  C_7
REMARK    2  A    between atoms: C_7  and  O_8
REMARK    3  A    between atoms: O_8  and  C_9
REMARK    4  A    between atoms: C_12  and  C_15
REMARK    5  A    between atoms: C_22  and  N_35
REMARK    6  A    between atoms: C_23  and  C_33
REMARK    7  A    between atoms: C_24  and  C_26
REMARK    8  A    between atoms: C_29  and  O_32
REMARK                            x       y       z     vdW  Elec       q    Type
REMARK                         _______ _______ _______ _____ _____    ______ ____
ROOT
ATOM      1  C   UNL     1       9.256  -3.973   2.098  0.00  0.00    +0.100 A 
ATOM      2  C   UNL     1      10.146  -3.484   3.059  0.00  0.00    +0.054 A 
ATOM      3  C   UNL     1      11.273  -4.252   3.020  0.00  0.00    +0.223 A 
ATOM      4  N   UNL     1      11.096  -5.192   2.068  0.00  0.00    -0.246 N 
ATOM      5  H   UNL     1      11.734  -5.880   1.820  0.00  0.00    +0.192 HD
ATOM      6  N   UNL     1       9.825  -5.005   1.505  0.00  0.00    -0.171 NA
ATOM      7  O   UNL     1      12.337  -4.033   3.832  0.00  0.00    -0.423 OA
ATOM      8  C   UNL     1      12.380  -2.865   4.504  0.00  0.00    +0.200 C 
ATOM      9  C   UNL     1      11.327  -2.027   4.623  0.00  0.00    +0.098 C 
ATOM     10  C   UNL     1       9.982  -2.327   4.011  0.00  0.00    +0.102 C 
ENDROOT
BRANCH   1  14
ATOM     11  C   UNL     1       5.387  -2.419   1.250  0.00  0.00    +0.121 A 
ATOM     12  C   UNL     1       6.449  -1.552   1.468  0.00  0.00    +0.046 A 
ATOM     13  C   UNL     1       7.705  -2.053   1.743  0.00  0.00    +0.013 A 
ATOM     14  C   UNL     1       7.906  -3.430   1.803  0.00  0.00    +0.003 A 
ATOM     15  C   UNL     1       6.838  -4.298   1.584  0.00  0.00    +0.013 A 
ATOM     16  C   UNL     1       5.584  -3.791   1.314  0.00  0.00    +0.046 A 
BRANCH  11  17
ATOM     17  O   UNL     1       4.152  -1.922   0.979  0.00  0.00    -0.487 OA
BRANCH  17  18
ATOM     18  C   UNL     1       4.021  -0.500   0.928  0.00  0.00    +0.264 C 
BRANCH  18  22
ATOM     19  C   UNL     1      -0.031   0.528   0.049  0.00  0.00    +0.000 A 
ATOM     20  C   UNL     1       0.375   0.379   1.362  0.00  0.00    +0.000 A 
ATOM     21  C   UNL     1       1.686   0.047   1.646  0.00  0.00    +0.007 A 
ATOM     22  C   UNL     1       2.591  -0.138   0.618  0.00  0.00    -0.010 A 
ATOM     23  C   UNL     1       2.185   0.009  -0.696  0.00  0.00    +0.007 A 
ATOM     24  C   UNL     1       0.874   0.343  -0.980  0.00  0.00    +0.000 A 
ENDBRANCH  18  22
ENDBRANCH  17  18
ENDBRANCH  11  17
ENDBRANCH   1  14
BRANCH  10  25
ATOM     25  C   UNL     1       9.000  -2.695   5.093  0.00  0.00    -0.034 A 
ATOM     26  C   UNL     1       9.217  -3.819   5.869  0.00  0.00    +0.008 A 
ATOM     27  C   UNL     1       8.319  -4.159   6.862  0.00  0.00    +0.046 A 
ATOM     28  C   UNL     1       7.199  -3.371   7.081  0.00  0.00    +0.117 A 
ATOM     29  C   UNL     1       6.983  -2.243   6.302  0.00  0.00    +0.046 A 
ATOM     30  C   UNL     1       7.887  -1.905   5.314  0.00  0.00    +0.008 A 
BRANCH  28  31
ATOM     31  O   UNL     1       6.313  -3.703   8.057  0.00  0.00    -0.507 OA
ATOM     32  H   UNL     1       6.513  -3.313   8.919  0.00  0.00    +0.292 HD
ENDBRANCH  28  31
ENDBRANCH  10  25
BRANCH   8  33
ATOM     33  N   UNL     1      13.563  -2.506   5.101  0.00  0.00    -0.328 N 
ATOM     34  H   UNL     1      14.337  -3.087   5.032  0.00  0.00    +0.145 HD
ATOM     35  H   UNL     1      13.625  -1.671   5.591  0.00  0.00    +0.145 HD
ENDBRANCH   8  33
BRANCH   9  36
ATOM     36  C   UNL     1      11.493  -0.810   5.359  0.00  0.00    +0.101 C 
ATOM     37  N   UNL     1      11.626   0.156   5.943  0.00  0.00    -0.191 NA
ENDBRANCH   9  36
TORSDOF 8
