REMARK  Name = ZINC31635896
REMARK  5 active torsions:
REMARK  status: ('A' for Active; 'I' for Inactive)
REMARK    1  A    between atoms: C_1  and  C_2
REMARK    2  A    between atoms: N_11  and  C_15
REMARK    3  A    between atoms: C_15  and  C_16
REMARK    4  A    between atoms: N_18  and  C_19
REMARK    5  A    between atoms: C_20  and  C_28
REMARK                            x       y       z     vdW  Elec       q    Type
REMARK                         _______ _______ _______ _____ _____    ______ ____
ROOT
ATOM      1  C   UNL     1      -2.051   1.839   5.843  0.00  0.00    +0.236 C 
ATOM      2  O   UNL     1      -2.747   2.760   5.470  0.00  0.00    -0.274 OA
ATOM      3  N   UNL     1      -1.276   1.178   4.960  0.00  0.00    -0.278 N 
ATOM      4  H   UNL     1      -0.646   0.343   5.299  0.00  0.00    +0.155 HD
ENDROOT
BRANCH   3   5
ATOM      5  C   UNL     1      -1.274   1.551   3.625  0.00  0.00    +0.084 A 
ATOM      6  C   UNL     1      -0.552   0.999   2.577  0.00  0.00    +0.068 A 
ATOM      7  C   UNL     1      -0.732   1.580   1.257  0.00  0.00    -0.023 A 
ATOM      8  C   UNL     1      -1.601   2.614   1.194  0.00  0.00    -0.004 A 
ATOM      9  S   UNL     1      -2.179   2.820   2.854  0.00  0.00    -0.077 S 
ATOM     10  C   UNL     1      -1.980   3.404  -0.021  0.00  0.00    +0.043 C 
ATOM     11  C   UNL     1      -0.956   3.111  -1.127  0.00  0.00    +0.005 C 
ATOM     12  C   UNL     1      -0.758   1.595  -1.227  0.00  0.00    +0.005 C 
ATOM     13  C   UNL     1      -0.013   1.086   0.008  0.00  0.00    +0.037 C 
BRANCH   6  14
ATOM     14  C   UNL     1       0.359  -0.130   2.792  0.00  0.00    +0.244 C 
ATOM     15  O   UNL     1       1.526   0.075   3.071  0.00  0.00    -0.270 OA
ATOM     16  N   UNL     1      -0.096  -1.394   2.682  0.00  0.00    -0.325 N 
ATOM     17  H   UNL     1       0.588  -2.240   2.844  0.00  0.00    +0.145 HD
ATOM     18  H   UNL     1      -1.150  -1.579   2.430  0.00  0.00    +0.145 HD
ENDBRANCH   6  14
ENDBRANCH   3   5
BRANCH   1  19
ATOM     19  C   UNL     1      -2.054   1.434   7.295  0.00  0.00    +0.214 C 
BRANCH  19  29
ATOM     20  C   UNL     1      -4.245   1.926  11.120  0.00  0.00    +0.010 C 
ATOM     21  C   UNL     1      -5.347   2.691  10.383  0.00  0.00    +0.018 C 
ATOM     22  C   UNL     1      -6.540   1.761  10.143  0.00  0.00    +0.006 C 
ATOM     23  C   UNL     1      -7.633   2.522   9.389  0.00  0.00    +0.000 C 
ATOM     24  C   UNL     1      -7.089   2.998   8.041  0.00  0.00    +0.003 C 
ATOM     25  C   UNL     1      -5.898   3.931   8.273  0.00  0.00    +0.035 C 
ATOM     26  C   UNL     1      -4.812   3.189   9.046  0.00  0.00    +0.115 C 
ATOM     27  C   UNL     1      -4.280   2.035   8.228  0.00  0.00    +0.247 C 
ATOM     28  O   UNL     1      -4.899   1.073   7.825  0.00  0.00    -0.273 OA
ATOM     29  N   UNL     1      -2.970   2.299   8.042  0.00  0.00    -0.215 N 
ATOM     30  C   UNL     1      -2.611   3.447   8.629  0.00  0.00    +0.310 C 
ATOM     31  O   UNL     1      -1.481   3.894   8.603  0.00  0.00    -0.252 OA
ATOM     32  N   UNL     1      -3.642   4.053   9.248  0.00  0.00    -0.285 N 
ATOM     33  H   UNL     1      -3.741   4.988   9.818  0.00  0.00    +0.151 HD
ENDBRANCH  19  29
ENDBRANCH   1  19
TORSDOF 4
