REMARK  Name = ZINC64623161
REMARK  8 active torsions:
REMARK  status: ('A' for Active; 'I' for Inactive)
REMARK    1  A    between atoms: C_1  and  C_2
REMARK    2  A    between atoms: C_2  and  O_3
REMARK    3  A    between atoms: O_3  and  C_4
REMARK    4  A    between atoms: C_4  and  C_6
REMARK    5  A    between atoms: C_11  and  N_12
REMARK    6  A    between atoms: C_21  and  O_37
REMARK    7  A    between atoms: C_28  and  C_30
REMARK    8  A    between atoms: O_37  and  C_38
REMARK                            x       y       z     vdW  Elec       q    Type
REMARK                         _______ _______ _______ _____ _____    ______ ____
ROOT
ATOM      1  N   UNL     1      -0.230  -5.291  -2.609  0.00  0.00    -0.269 N 
ATOM      2  C   UNL     1       0.576  -6.356  -2.424  0.00  0.00    +0.307 C 
ATOM      3  O   UNL     1       1.386  -6.661  -3.277  0.00  0.00    -0.252 OA
ATOM      4  N   UNL     1       0.483  -7.082  -1.292  0.00  0.00    -0.276 N 
ATOM      5  C   UNL     1      -0.418  -6.643  -0.221  0.00  0.00    +0.114 C 
ATOM      6  C   UNL     1       0.387  -6.447   1.077  0.00  0.00    +0.052 C 
ATOM      7  C   UNL     1       1.284  -7.652   1.216  0.00  0.00    -0.035 C 
ATOM      8  C   UNL     1       1.472  -8.496   2.222  0.00  0.00    +0.003 A 
ATOM      9  C   UNL     1       0.961  -8.509   3.602  0.00  0.00    +0.055 A 
ATOM     10  C   UNL     1       1.343  -9.556   4.384  0.00  0.00    +0.121 A 
ATOM     11  C   UNL     1       2.177 -10.596   3.950  0.00  0.00    +0.047 A 
ATOM     12  C   UNL     1       2.709 -10.679   2.704  0.00  0.00    +0.029 A 
ATOM     13  C   UNL     1       2.375  -9.598   1.766  0.00  0.00    +0.043 A 
ATOM     14  N   UNL     1       2.749  -9.402   0.538  0.00  0.00    -0.375 N 
ATOM     15  C   UNL     1       2.186  -8.130   0.083  0.00  0.00    +0.131 C 
ATOM     16  C   UNL     1       1.281  -8.309  -1.147  0.00  0.00    +0.134 C 
ATOM     17  H   UNL     1      -0.822  -5.001  -1.898  0.00  0.00    +0.156 HD
ATOM     18  H   UNL     1       3.306  -9.997   0.013  0.00  0.00    +0.160 HD
ENDROOT
BRANCH  16  19
ATOM     19  C   UNL     1       2.124  -8.518  -2.378  0.00  0.00    -0.025 A 
ATOM     20  C   UNL     1       3.236  -7.726  -2.597  0.00  0.00    +0.008 A 
ATOM     21  C   UNL     1       4.010  -7.917  -3.725  0.00  0.00    +0.038 A 
ATOM     22  C   UNL     1       3.672  -8.902  -4.638  0.00  0.00    +0.123 A 
ATOM     23  C   UNL     1       2.558  -9.694  -4.418  0.00  0.00    +0.038 A 
ATOM     24  C   UNL     1       1.789  -9.505  -3.286  0.00  0.00    +0.008 A 
ATOM     25  F   UNL     1       4.428  -9.089  -5.742  0.00  0.00    -0.205 F 
ENDBRANCH  16  19
BRANCH   1  31
ATOM     26  C   UNL     1      -0.406  -3.218  -3.852  0.00  0.00    +0.080 A 
ATOM     27  C   UNL     1      -0.380  -2.543  -5.076  0.00  0.00    +0.017 A 
ATOM     28  C   UNL     1      -0.170  -3.245  -6.243  0.00  0.00    +0.001 A 
ATOM     29  C   UNL     1       0.017  -4.618  -6.210  0.00  0.00    +0.002 A 
ATOM     30  C   UNL     1      -0.006  -5.298  -5.010  0.00  0.00    +0.024 A 
ATOM     31  C   UNL     1      -0.212  -4.607  -3.822  0.00  0.00    +0.049 A 
BRANCH  26  32
ATOM     32  C   UNL     1      -0.631  -2.474  -2.600  0.00  0.00    +0.341 C 
ATOM     33  O   UNL     1      -0.737  -3.073  -1.548  0.00  0.00    -0.245 OA
BRANCH  32  34
ATOM     34  O   UNL     1      -0.720  -1.130  -2.622  0.00  0.00    -0.461 OA
BRANCH  34  36
ATOM     35  C   UNL     1      -1.011   1.038  -1.595  0.00  0.00    +0.048 C 
ATOM     36  C   UNL     1      -0.939  -0.473  -1.371  0.00  0.00    +0.229 C 
ENDBRANCH  34  36
ENDBRANCH  32  34
ENDBRANCH  26  32
ENDBRANCH   1  31
BRANCH  10  37
ATOM     37  O   UNL     1       0.887  -9.595   5.664  0.00  0.00    -0.495 OA
ATOM     38  C   UNL     1       1.301 -10.703   6.466  0.00  0.00    +0.277 C 
ENDBRANCH  10  37
TORSDOF 6
