REMARK  Name = ZINC44783912
REMARK  6 active torsions:
REMARK  status: ('A' for Active; 'I' for Inactive)
REMARK    1  A    between atoms: C_1  and  C_2
REMARK    2  A    between atoms: C_2  and  C_3
REMARK    3  A    between atoms: C_2  and  C_4
REMARK    4  A    between atoms: C_2  and  C_8
REMARK    5  A    between atoms: N_5  and  O_6
REMARK    6  A    between atoms: N_10  and  C_11
REMARK                            x       y       z     vdW  Elec       q    Type
REMARK                         _______ _______ _______ _____ _____    ______ ____
ROOT
ATOM      1  C   UNL     1       1.008  -0.886  -0.912  0.00  0.00    +0.230 C 
ATOM      2  O   UNL     1       0.698  -1.948  -1.410  0.00  0.00    -0.274 OA
ATOM      3  N   UNL     1       1.991  -0.146  -1.462  0.00  0.00    -0.284 N 
ATOM      4  H   UNL     1       2.195   0.732  -1.103  0.00  0.00    +0.155 HD
ENDROOT
BRANCH   3   5
ATOM      5  C   UNL     1       2.717  -0.643  -2.550  0.00  0.00    +0.037 A 
ATOM      6  C   UNL     1       2.085  -1.436  -3.495  0.00  0.00    +0.023 A 
ATOM      7  C   UNL     1       2.804  -1.927  -4.567  0.00  0.00    +0.002 A 
ATOM      8  C   UNL     1       4.145  -1.628  -4.689  0.00  0.00    +0.004 A 
ATOM      9  C   UNL     1       4.784  -0.835  -3.744  0.00  0.00    -0.042 A 
ATOM     10  C   UNL     1       4.071  -0.334  -2.679  0.00  0.00    -0.023 A 
ATOM     11  C   UNL     1       4.693   0.549  -1.630  0.00  0.00    +0.037 C 
ATOM     12  C   UNL     1       6.215   0.439  -1.668  0.00  0.00    +0.005 C 
ATOM     13  C   UNL     1       6.681   0.657  -3.112  0.00  0.00    +0.005 C 
ATOM     14  C   UNL     1       6.252  -0.558  -3.938  0.00  0.00    +0.035 C 
ENDBRANCH   3   5
BRANCH   1  16
ATOM     15  C   UNL     1      -0.376   0.946   0.024  0.00  0.00    +0.029 C 
ATOM     16  C   UNL     1       0.296  -0.396   0.322  0.00  0.00    +0.100 C 
ATOM     17  C   UNL     1       1.305  -0.219   1.458  0.00  0.00    +0.029 C 
BRANCH  16  18
ATOM     18  C   UNL     1      -0.750  -1.401   0.731  0.00  0.00    +0.146 C 
ATOM     19  N   UNL     1      -1.994  -1.054   0.782  0.00  0.00    -0.076 NA
ATOM     20  N   UNL     1      -0.380  -2.688   1.051  0.00  0.00    -0.343 N 
ATOM     21  H   UNL     1       0.554  -2.948   1.012  0.00  0.00    +0.144 HD
ATOM     22  H   UNL     1      -1.053  -3.335   1.314  0.00  0.00    +0.144 HD
BRANCH  19  23
ATOM     23  O   UNL     1      -2.976  -1.999   1.167  0.00  0.00    -0.408 OA
ATOM     24  H   UNL     1      -3.877  -1.647   1.175  0.00  0.00    +0.328 HD
ENDBRANCH  19  23
ENDBRANCH  16  18
ENDBRANCH   1  16
TORSDOF 4
