REMARK  Name = ZINC38845431
REMARK  10 active torsions:
REMARK  status: ('A' for Active; 'I' for Inactive)
REMARK    1  A    between atoms: C_1  and  C_2
REMARK    2  A    between atoms: C_2  and  N_3
REMARK    3  A    between atoms: N_3  and  C_4
REMARK    4  A    between atoms: N_3  and  C_6
REMARK    5  A    between atoms: C_4  and  C_5
REMARK    6  A    between atoms: C_6  and  C_7
REMARK    7  A    between atoms: C_7  and  N_8
REMARK    8  A    between atoms: C_14  and  S_18
REMARK    9  A    between atoms: S_18  and  C_21
REMARK   10  A    between atoms: C_22  and  C_24
REMARK                            x       y       z     vdW  Elec       q    Type
REMARK                         _______ _______ _______ _____ _____    ______ ____
ROOT
ATOM      1  N   UNL     1       0.667  -3.531  -2.576  0.00  0.00    -0.248 N 
ATOM      2  C   UNL     1      -0.579  -3.829  -3.099  0.00  0.00    +0.168 A 
ATOM      3  N   UNL     1      -1.468  -3.016  -3.621  0.00  0.00    -0.224 NA
ATOM      4  C   UNL     1      -2.655  -3.450  -4.098  0.00  0.00    +0.080 A 
ATOM      5  C   UNL     1      -3.694  -2.686  -4.681  0.00  0.00    +0.031 A 
ATOM      6  C   UNL     1      -4.845  -3.288  -5.116  0.00  0.00    +0.029 A 
ATOM      7  C   UNL     1      -5.035  -4.657  -5.003  0.00  0.00    +0.089 A 
ATOM      8  C   UNL     1      -4.041  -5.435  -4.439  0.00  0.00    +0.044 A 
ATOM      9  C   UNL     1      -2.884  -4.841  -4.000  0.00  0.00    +0.043 A 
ATOM     10  S   UNL     1      -1.384  -5.418  -3.242  0.00  0.00    -0.052 S 
ATOM     11  C   UNL     1       1.446  -4.516  -2.086  0.00  0.00    +0.259 C 
ATOM     12  O   UNL     1       1.097  -5.677  -2.195  0.00  0.00    -0.269 OA
ENDROOT
BRANCH  11  13
ATOM     13  C   UNL     1       2.710  -4.189  -1.424  0.00  0.00    +0.075 A 
ATOM     14  C   UNL     1       3.705  -5.043  -0.969  0.00  0.00    +0.022 A 
ATOM     15  C   UNL     1       4.789  -4.437  -0.382  0.00  0.00    +0.024 A 
ATOM     16  C   UNL     1       4.816  -3.083  -0.289  0.00  0.00    +0.056 A 
ATOM     17  S   UNL     1       3.376  -2.591  -0.999  0.00  0.00    -0.077 S 
ATOM     18 BR   UNL     1       6.170  -1.998   0.463  0.00  0.00    -0.043 Br
ENDBRANCH  11  13
BRANCH   7  19
ATOM     19  S   UNL     1      -6.529  -5.399  -5.572  0.00  0.00    -0.006 S 
ATOM     20  O   UNL     1      -6.667  -6.580  -4.795  0.00  0.00    -0.170 OA
ATOM     21  O   UNL     1      -7.500  -4.364  -5.495  0.00  0.00    -0.170 OA
ATOM     22  C   UNL     1      -6.207  -5.825  -7.306  0.00  0.00    +0.200 C 
ENDBRANCH   7  19
BRANCH   1  23
ATOM     23  C   UNL     1       1.141  -2.144  -2.555  0.00  0.00    +0.097 C 
BRANCH  23  24
ATOM     24  C   UNL     1       0.751  -1.492  -1.227  0.00  0.00    -0.059 C 
BRANCH  24  25
ATOM     25  N   UNL     1       1.336  -0.147  -1.151  0.00  0.00    +0.380 N 
ATOM     26  H   UNL     1       2.333  -0.206  -1.291  0.00  0.00    -0.082 HD
BRANCH  25  28
ATOM     27  C   UNL     1       1.442   2.065  -2.196  0.00  0.00    -0.017 C 
ATOM     28  C   UNL     1       0.745   0.703  -2.193  0.00  0.00    -0.082 C 
ENDBRANCH  25  28
BRANCH  25  29
ATOM     29  C   UNL     1       1.060   0.433   0.169  0.00  0.00    -0.082 C 
ATOM     30  C   UNL     1       1.797  -0.368   1.244  0.00  0.00    -0.017 C 
ENDBRANCH  25  29
ENDBRANCH  24  25
ENDBRANCH  23  24
ENDBRANCH   1  23
TORSDOF 7
