REMARK  Name = ZINC62424689
REMARK  4 active torsions:
REMARK  status: ('A' for Active; 'I' for Inactive)
REMARK    1  A    between atoms: C_1  and  C_2
REMARK    2  A    between atoms: CA_10  and  C_18
REMARK    3  A    between atoms: C_11  and  C_12
REMARK    4  A    between atoms: C_18  and  O_19
REMARK                            x       y       z     vdW  Elec       q    Type
REMARK                         _______ _______ _______ _____ _____    ______ ____
ROOT
ATOM      1  C   UNL     1      -0.018   1.503   0.010  0.00  0.00    +0.046 C 
ATOM      2  C   UNL     1       0.002  -0.004   0.002  0.00  0.00    -0.025 A 
ATOM      3  C   UNL     1       0.006  -0.687  -1.194  0.00  0.00    +0.025 A 
ATOM      4  C   UNL     1       0.025  -2.075  -1.217  0.00  0.00    +0.042 A 
ATOM      5  C   UNL     1       0.041  -2.790  -0.039  0.00  0.00    +0.030 A 
ATOM      6  C   UNL     1       0.037  -2.112   1.180  0.00  0.00    +0.011 A 
ATOM      7  C   UNL     1       0.023  -0.707   1.202  0.00  0.00    +0.050 A 
ATOM      8  N   UNL     1       0.030  -0.317   2.525  0.00  0.00    -0.355 N 
ATOM      9  H   UNL     1       0.020   0.603   2.833  0.00  0.00    +0.166 HD
ATOM     10  CA  UNL     1       0.053  -1.416   3.339  0.00  0.00    +0.052 A 
ATOM     11  C   UNL     1       0.050  -2.542   2.587  0.00  0.00    +0.031 A 
ATOM     12 CL   UNL     1       0.029  -2.915  -2.736  0.00  0.00    -0.084 Cl
ENDROOT
BRANCH  11  13
ATOM     13  C   UNL     1       0.071  -3.939   3.085  0.00  0.00    +0.083 A 
ATOM     14  C   UNL     1       0.076  -4.193   4.427  0.00  0.00    +0.077 A 
ATOM     15  S   UNL     1       0.102  -5.980   4.429  0.00  0.00    -0.060 S 
ATOM     16  C   UNL     1       0.104  -6.208   2.656  0.00  0.00    +0.156 A 
ATOM     17  N   UNL     1       0.081  -4.958   2.229  0.00  0.00    -0.225 NA
ATOM     18  N   UNL     1       0.122  -7.384   1.924  0.00  0.00    -0.338 N 
ATOM     19  H   UNL     1       0.135  -8.239   2.380  0.00  0.00    +0.144 HD
ATOM     20  H   UNL     1       0.121  -7.351   0.954  0.00  0.00    +0.144 HD
ENDBRANCH  11  13
BRANCH  10  21
ATOM     21  C   UNL     1       0.068  -1.379   4.845  0.00  0.00    +0.209 C 
BRANCH  21  22
ATOM     22  O   UNL     1       0.053  -0.020   5.289  0.00  0.00    -0.389 OA
ATOM     23  H   UNL     1       0.061   0.080   6.250  0.00  0.00    +0.210 HD
ENDBRANCH  21  22
ENDBRANCH  10  21
TORSDOF 3
