REMARK  Name = ZINC37357804
REMARK  4 active torsions:
REMARK  status: ('A' for Active; 'I' for Inactive)
REMARK    1  A    between atoms: C_4  and  C_7
REMARK    2  A    between atoms: C_7  and  N_8
REMARK    3  A    between atoms: C_9  and  N_30
REMARK    4  A    between atoms: C_11  and  C_23
REMARK                            x       y       z     vdW  Elec       q    Type
REMARK                         _______ _______ _______ _____ _____    ______ ____
ROOT
ATOM      1  N   UNL     1       4.623  -1.142   1.319  0.00  0.00    -0.244 N 
ATOM      2  C   UNL     1       4.985  -0.127   2.123  0.00  0.00    +0.126 A 
ATOM      3  C   UNL     1       4.748  -0.525   3.433  0.00  0.00    +0.086 A 
ATOM      4  C   UNL     1       4.907   0.054   4.712  0.00  0.00    +0.089 A 
ATOM      5  N   UNL     1       4.557  -0.660   5.774  0.00  0.00    -0.214 NA
ATOM      6  C   UNL     1       4.067  -1.892   5.667  0.00  0.00    +0.220 A 
ATOM      7  N   UNL     1       3.886  -2.507   4.517  0.00  0.00    -0.193 NA
ATOM      8  C   UNL     1       4.201  -1.892   3.360  0.00  0.00    +0.188 A 
ATOM      9  N   UNL     1       4.142  -2.209   2.086  0.00  0.00    -0.149 NA
ATOM     10  N   UNL     1       3.729  -2.563   6.828  0.00  0.00    -0.303 N 
ATOM     11  C   UNL     1       3.901  -1.931   8.145  0.00  0.00    +0.089 C 
ATOM     12  C   UNL     1       2.590  -2.071   8.926  0.00  0.00    -0.063 C 
ATOM     13  N   UNL     1       2.201  -3.486   8.979  0.00  0.00    +0.381 N 
ATOM     14  C   UNL     1       1.910  -3.976   7.626  0.00  0.00    -0.063 C 
ATOM     15  C   UNL     1       3.182  -3.928   6.781  0.00  0.00    +0.089 C 
ATOM     16  H   UNL     1       2.956  -4.026   9.376  0.00  0.00    -0.086 HD
ATOM     17  H   UNL     1       1.380  -3.587   9.557  0.00  0.00    -0.086 HD
ENDROOT
BRANCH   4  18
ATOM     18  C   UNL     1       5.450   1.423   4.863  0.00  0.00    +0.001 A 
ATOM     19  C   UNL     1       4.983   2.456   4.049  0.00  0.00    +0.011 A 
ATOM     20  C   UNL     1       5.493   3.729   4.194  0.00  0.00    +0.020 A 
ATOM     21  C   UNL     1       6.466   3.984   5.146  0.00  0.00    +0.041 A 
ATOM     22  C   UNL     1       6.934   2.962   5.957  0.00  0.00    +0.020 A 
ATOM     23  C   UNL     1       6.427   1.687   5.824  0.00  0.00    +0.011 A 
ATOM     24 CL   UNL     1       7.104   5.588   5.323  0.00  0.00    -0.084 Cl
ENDBRANCH   4  18
BRANCH   2  25
ATOM     25  N   UNL     1       5.500   1.091   1.719  0.00  0.00    -0.343 N 
ATOM     26  H   UNL     1       5.379   1.389   0.804  0.00  0.00    +0.144 HD
ATOM     27  H   UNL     1       5.982   1.647   2.351  0.00  0.00    +0.144 HD
ENDBRANCH   2  25
BRANCH   1  28
ATOM     28  C   UNL     1       4.714  -1.131  -0.143  0.00  0.00    +0.180 C 
BRANCH  28  32
ATOM     29  C   UNL     1       1.080   0.402  -1.785  0.00  0.00    +0.000 A 
ATOM     30  C   UNL     1       2.119   1.262  -1.481  0.00  0.00    +0.000 A 
ATOM     31  C   UNL     1       3.294   0.767  -0.950  0.00  0.00    +0.005 A 
ATOM     32  C   UNL     1       3.432  -0.590  -0.721  0.00  0.00    -0.026 A 
ATOM     33  C   UNL     1       2.393  -1.450  -1.024  0.00  0.00    +0.005 A 
ATOM     34  C   UNL     1       1.218  -0.955  -1.556  0.00  0.00    +0.000 A 
ENDBRANCH  28  32
ENDBRANCH   1  28
TORSDOF 4
