REMARK  Name = ZINC39460449
REMARK  5 active torsions:
REMARK  status: ('A' for Active; 'I' for Inactive)
REMARK    1  A    between atoms: C_1  and  C_2
REMARK    2  A    between atoms: C_2  and  C_4
REMARK    3  A    between atoms: C_2  and  S_16
REMARK    4  A    between atoms: C_8  and  C_10
REMARK    5  A    between atoms: S_16  and  C_17
REMARK                            x       y       z     vdW  Elec       q    Type
REMARK                         _______ _______ _______ _____ _____    ______ ____
ROOT
ATOM      1  C   UNL     1      -0.019   1.526   0.010  0.00  0.00    +0.025 C 
ATOM      2  C   UNL     1       0.002  -0.004   0.002  0.00  0.00    +0.112 C 
ENDROOT
BRANCH   2   3
ATOM      3  C   UNL     1      -1.433  -0.534   0.013  0.00  0.00    +0.290 C 
ATOM      4  N   UNL     1      -1.439  -2.005   0.081  0.00  0.00    -0.227 N 
ATOM      5  N   UNL     1      -2.078  -2.430  -1.093  0.00  0.00    -0.146 NA
ATOM      6  C   UNL     1      -2.430  -1.413  -1.806  0.00  0.00    +0.239 C 
ATOM      7  O   UNL     1      -2.089  -0.233  -1.228  0.00  0.00    -0.451 OA
ATOM      8  H   UNL     1      -1.078  -2.562   0.788  0.00  0.00    +0.172 HD
BRANCH   6   9
ATOM      9  C   UNL     1      -3.126  -1.520  -3.105  0.00  0.00    +0.038 A 
ATOM     10  C   UNL     1      -3.465  -0.367  -3.816  0.00  0.00    +0.013 A 
ATOM     11  C   UNL     1      -4.115  -0.475  -5.029  0.00  0.00    +0.001 A 
ATOM     12  C   UNL     1      -4.431  -1.721  -5.540  0.00  0.00    +0.000 A 
ATOM     13  C   UNL     1      -4.098  -2.867  -4.840  0.00  0.00    +0.001 A 
ATOM     14  C   UNL     1      -3.442  -2.775  -3.630  0.00  0.00    +0.013 A 
ENDBRANCH   6   9
ENDBRANCH   2   3
BRANCH   2  15
ATOM     15  S   UNL     1       0.879  -0.605   1.472  0.00  0.00    -0.079 S 
BRANCH  15  16
ATOM     16  C   UNL     1       2.533  -0.042   1.241  0.00  0.00    +0.168 A 
ATOM     17  H   UNL     1       3.517  -0.740   2.951  0.00  0.00    +0.168 HD
ATOM     18  N   UNL     1       2.956   0.650   0.212  0.00  0.00    -0.222 NA
ATOM     19  C   UNL     1       4.281   0.917   0.355  0.00  0.00    +0.090 A 
ATOM     20  C   UNL     1       5.211   1.603  -0.429  0.00  0.00    +0.031 A 
ATOM     21  C   UNL     1       6.518   1.707  -0.007  0.00  0.00    +0.022 A 
ATOM     22  C   UNL     1       6.918   1.134   1.192  0.00  0.00    +0.043 A 
ATOM     23  C   UNL     1       6.010   0.452   1.978  0.00  0.00    +0.047 A 
ATOM     24  C   UNL     1       4.691   0.338   1.567  0.00  0.00    +0.068 A 
ATOM     25  N   UNL     1       3.565  -0.258   2.111  0.00  0.00    -0.333 N 
ATOM     26 CL   UNL     1       8.570   1.275   1.706  0.00  0.00    -0.083 Cl
ENDBRANCH  15  16
ENDBRANCH   2  15
TORSDOF 4
