REMARK  Name = ZINC38564224
REMARK  10 active torsions:
REMARK  status: ('A' for Active; 'I' for Inactive)
REMARK    1  A    between atoms: C_1  and  O_2
REMARK    2  A    between atoms: O_2  and  C_3
REMARK    3  A    between atoms: C_7  and  C_11
REMARK    4  A    between atoms: C_8  and  O_9
REMARK    5  A    between atoms: O_9  and  C_10
REMARK    6  A    between atoms: C_13  and  C_25
REMARK    7  A    between atoms: N_27  and  C_28
REMARK    8  A    between atoms: C_28  and  C_29
REMARK    9  A    between atoms: C_29  and  C_31
REMARK   10  A    between atoms: C_29  and  O_37
REMARK                            x       y       z     vdW  Elec       q    Type
REMARK                         _______ _______ _______ _____ _____    ______ ____
ROOT
ATOM      1  C   UNL     1      -2.574  -4.138   0.016  0.00  0.00    +0.080 C 
ATOM      2  N   UNL     1      -1.478  -4.858  -0.086  0.00  0.00    -0.244 NA
ATOM      3  C   UNL     1      -1.436  -6.192   0.046  0.00  0.00    +0.126 C 
ATOM      4  C   UNL     1      -2.508  -6.902   0.591  0.00  0.00    +0.039 C 
ATOM      5  C   UNL     1      -3.676  -6.181   0.791  0.00  0.00    -0.008 C 
ATOM      6  C   UNL     1      -4.799  -6.367   1.554  0.00  0.00    +0.004 A 
ATOM      7  C   UNL     1      -5.305  -7.498   2.235  0.00  0.00    +0.010 A 
ATOM      8  C   UNL     1      -6.447  -7.322   2.959  0.00  0.00    +0.001 A 
ATOM      9  C   UNL     1      -7.117  -6.102   3.051  0.00  0.00    +0.002 A 
ATOM     10  C   UNL     1      -6.711  -4.972   2.409  0.00  0.00    +0.026 A 
ATOM     11  C   UNL     1      -5.535  -5.073   1.613  0.00  0.00    +0.044 A 
ATOM     12  N   UNL     1      -4.959  -4.177   0.850  0.00  0.00    -0.372 N 
ATOM     13  C   UNL     1      -3.886  -4.828   0.137  0.00  0.00    +0.160 C 
ATOM     14  H   UNL     1      -5.208  -3.242   0.779  0.00  0.00    +0.161 HD
ENDROOT
BRANCH   1  19
ATOM     15  C   UNL     1      -2.993  -0.550  -1.024  0.00  0.00    +0.162 A 
ATOM     16  C   UNL     1      -2.362   0.101   0.023  0.00  0.00    +0.049 A 
ATOM     17  C   UNL     1      -1.802  -0.624   1.064  0.00  0.00    +0.004 A 
ATOM     18  C   UNL     1      -1.867  -1.999   1.069  0.00  0.00    +0.013 A 
ATOM     19  C   UNL     1      -2.502  -2.674   0.017  0.00  0.00    +0.044 A 
ATOM     20  C   UNL     1      -3.074  -1.938  -1.035  0.00  0.00    +0.170 A 
BRANCH  15  22
ATOM     21  C   UNL     1      -3.419   1.592  -1.966  0.00  0.00    +0.277 C 
ATOM     22  O   UNL     1      -3.539   0.170  -2.041  0.00  0.00    -0.491 OA
ENDBRANCH  15  22
BRANCH  20  23
ATOM     23  O   UNL     1      -3.696  -2.578  -2.057  0.00  0.00    -0.491 OA
ATOM     24  C   UNL     1      -2.890  -2.943  -3.180  0.00  0.00    +0.277 C 
ENDBRANCH  20  23
ENDBRANCH   1  19
BRANCH   3  25
ATOM     25  C   UNL     1      -0.229  -6.926  -0.396  0.00  0.00    +0.262 C 
ATOM     26  O   UNL     1      -0.178  -8.135  -0.282  0.00  0.00    -0.269 OA
ATOM     27  N   UNL     1       0.813  -6.255  -0.924  0.00  0.00    -0.307 N 
ATOM     28  H   UNL     1       0.772  -5.290  -1.015  0.00  0.00    +0.149 HD
BRANCH  27  29
ATOM     29  C   UNL     1       2.008  -6.981  -1.361  0.00  0.00    +0.140 C 
BRANCH  29  30
ATOM     30  C   UNL     1       3.033  -5.991  -1.917  0.00  0.00    +0.162 C 
BRANCH  30  31
ATOM     31  C   UNL     1       4.209  -6.747  -2.478  0.00  0.00    -0.018 A 
ATOM     32  C   UNL     1       5.185  -7.236  -1.630  0.00  0.00    +0.006 A 
ATOM     33  C   UNL     1       6.264  -7.930  -2.145  0.00  0.00    +0.000 A 
ATOM     34  C   UNL     1       6.367  -8.136  -3.508  0.00  0.00    +0.000 A 
ATOM     35  C   UNL     1       5.390  -7.648  -4.356  0.00  0.00    +0.000 A 
ATOM     36  C   UNL     1       4.309  -6.958  -3.841  0.00  0.00    +0.006 A 
ENDBRANCH  30  31
BRANCH  30  37
ATOM     37  O   UNL     1       3.478  -5.127  -0.869  0.00  0.00    -0.386 OA
ATOM     38  H   UNL     1       3.899  -5.589  -0.131  0.00  0.00    +0.210 HD
ENDBRANCH  30  37
ENDBRANCH  29  30
ENDBRANCH  27  29
ENDBRANCH   3  25
TORSDOF 8
