REMARK  Name = ZINC36020334
REMARK  10 active torsions:
REMARK  status: ('A' for Active; 'I' for Inactive)
REMARK    1  A    between atoms: C_1  and  C_2
REMARK    2  A    between atoms: C_2  and  O_4
REMARK    3  A    between atoms: O_4  and  C_5
REMARK    4  A    between atoms: C_9  and  C_35
REMARK    5  A    between atoms: C_21  and  C_34
REMARK    6  A    between atoms: C_22  and  O_33
REMARK    7  A    between atoms: C_23  and  O_32
REMARK    8  A    between atoms: C_26  and  C_28
REMARK    9  A    between atoms: C_28  and  O_30
REMARK   10  A    between atoms: O_30  and  C_31
REMARK                            x       y       z     vdW  Elec       q    Type
REMARK                         _______ _______ _______ _____ _____    ______ ____
ROOT
ATOM      1  C   UNL     1      -0.288  -2.136  -0.936  0.00  0.00    +0.177 C 
ATOM      2  C   UNL     1      -1.680  -2.739  -0.734  0.00  0.00    +0.045 C 
ATOM      3  C   UNL     1      -1.576  -4.265  -0.716  0.00  0.00    +0.011 C 
ATOM      4  C   UNL     1      -0.997  -4.753  -2.046  0.00  0.00    -0.026 C 
ATOM      5  C   UNL     1       0.394  -4.149  -2.250  0.00  0.00    -0.001 C 
ATOM      6  C   UNL     1       0.290  -2.623  -2.266  0.00  0.00    +0.048 C 
ATOM      7  C   UNL     1       0.968  -4.633  -3.583  0.00  0.00    +0.004 C 
ATOM      8  C   UNL     1       1.060  -6.159  -3.577  0.00  0.00    +0.007 C 
ATOM      9  C   UNL     1       0.558  -6.701  -2.237  0.00  0.00    +0.027 C 
ATOM     10  C   UNL     1      -0.894  -6.280  -2.025  0.00  0.00    +0.001 C 
ATOM     11  C   UNL     1      -1.359  -6.793  -0.656  0.00  0.00    +0.005 C 
ATOM     12  C   UNL     1      -1.319  -8.320  -0.673  0.00  0.00    +0.010 C 
ATOM     13  C   UNL     1       0.076  -8.827  -0.958  0.00  0.00    +0.012 C 
ATOM     14  C   UNL     1       0.687  -8.227  -2.236  0.00  0.00    +0.101 C 
ATOM     15  C   UNL     1       2.199  -8.544  -2.041  0.00  0.00    +0.148 C 
ATOM     16  C   UNL     1       2.437  -8.302  -0.534  0.00  0.00    +0.049 C 
ATOM     17  C   UNL     1       1.070  -8.478   0.158  0.00  0.00    +0.109 C 
ATOM     18  C   UNL     1       0.029 -10.348  -1.122  0.00  0.00    +0.015 C 
ATOM     19  C   UNL     1      -1.914  -4.319  -3.191  0.00  0.00    +0.012 C 
ENDROOT
BRANCH  17  20
ATOM     20  C   UNL     1       1.137  -9.599   1.163  0.00  0.00    +0.311 C 
ATOM     21  O   UNL     1       1.959 -10.476   1.035  0.00  0.00    -0.251 OA
BRANCH  20  22
ATOM     22  O   UNL     1       0.285  -9.624   2.200  0.00  0.00    -0.468 OA
ATOM     23  C   UNL     1       0.406 -10.716   3.113  0.00  0.00    +0.280 C 
ENDBRANCH  20  22
ENDBRANCH  17  20
BRANCH  15  24
ATOM     24  O   UNL     1       3.003  -7.661  -2.826  0.00  0.00    -0.389 OA
ATOM     25  H   UNL     1       3.954  -7.815  -2.742  0.00  0.00    +0.210 HD
ENDBRANCH  15  24
BRANCH  14  26
ATOM     26  O   UNL     1       0.144  -8.813  -3.421  0.00  0.00    -0.385 OA
ATOM     27  H   UNL     1       0.562  -8.507  -4.238  0.00  0.00    +0.210 HD
ENDBRANCH  14  26
BRANCH   1  28
ATOM     28  O   UNL     1      -0.384  -0.710  -0.952  0.00  0.00    -0.462 OA
BRANCH  28  30
ATOM     29  C   UNL     1      -0.354   1.425   0.288  0.00  0.00    +0.136 C 
ATOM     30  C   UNL     1      -0.264  -0.078   0.226  0.00  0.00    +0.304 C 
ATOM     31  O   UNL     1      -0.083  -0.714   1.238  0.00  0.00    -0.251 OA
ENDBRANCH  28  30
ENDBRANCH   1  28
TORSDOF 6
