REMARK  Name = ZINC23448170
REMARK  13 active torsions:
REMARK  status: ('A' for Active; 'I' for Inactive)
REMARK    1  A    between atoms: C_1  and  C_2
REMARK    2  A    between atoms: C_5  and  C_8
REMARK    3  A    between atoms: C_8  and  O_9
REMARK    4  A    between atoms: O_9  and  C_10
REMARK    5  A    between atoms: C_10  and  C_12
REMARK    6  A    between atoms: C_10  and  C_30
REMARK    7  A    between atoms: C_12  and  N_13
REMARK    8  A    between atoms: N_16  and  S_19
REMARK    9  A    between atoms: S_19  and  C_22
REMARK   10  A    between atoms: C_26  and  O_28
REMARK   11  A    between atoms: O_28  and  C_29
REMARK   12  A    between atoms: C_34  and  O_36
REMARK   13  A    between atoms: O_36  and  C_37
REMARK                            x       y       z     vdW  Elec       q    Type
REMARK                         _______ _______ _______ _____ _____    ______ ____
ROOT
ATOM      1  C   UNL     1      -0.348   5.863  -1.386  0.00  0.00    -0.042 C 
ENDROOT
BRANCH   1   2
ATOM      2  N   UNL     1      -0.372   7.332  -1.379  0.00  0.00    +0.383 N 
ATOM      3  C   UNL     1      -1.064   7.853  -2.566  0.00  0.00    -0.061 C 
ATOM      4  C   UNL     1      -1.227   9.370  -2.433  0.00  0.00    +0.091 C 
ATOM      5  N   UNL     1       0.095   9.962  -2.173  0.00  0.00    -0.180 NA
ATOM      6  C   UNL     1       0.906   9.399  -1.084  0.00  0.00    +0.091 C 
ATOM      7  C   UNL     1       0.986   7.880  -1.270  0.00  0.00    -0.061 C 
ATOM      8  H   UNL     1      -0.937   7.658  -0.493  0.00  0.00    -0.082 HD
BRANCH   5   9
ATOM      9  S   UNL     1       0.653  11.227  -3.084  0.00  0.00    +0.061 S 
ATOM     10  O   UNL     1      -0.490  11.878  -3.619  0.00  0.00    -0.153 OA
ATOM     11  O   UNL     1       1.615  11.906  -2.288  0.00  0.00    -0.153 OA
BRANCH   9  12
ATOM     12  C   UNL     1       1.527  10.539  -4.451  0.00  0.00    +0.109 A 
ATOM     13  C   UNL     1       2.883  10.287  -4.349  0.00  0.00    +0.029 A 
ATOM     14  C   UNL     1       3.570   9.742  -5.418  0.00  0.00    +0.005 A 
ATOM     15  C   UNL     1       2.905   9.458  -6.595  0.00  0.00    +0.046 A 
ATOM     16  C   UNL     1       1.546   9.714  -6.702  0.00  0.00    +0.122 A 
ATOM     17  C   UNL     1       0.858  10.256  -5.626  0.00  0.00    +0.074 A 
BRANCH  16  18
ATOM     18  O   UNL     1       0.890   9.435  -7.859  0.00  0.00    -0.495 OA
ATOM     19  C   UNL     1       1.662   8.879  -8.925  0.00  0.00    +0.277 C 
ENDBRANCH  16  18
ENDBRANCH   9  12
ENDBRANCH   5   9
ENDBRANCH   1   2
BRANCH   1  20
ATOM     20  C   UNL     1      -0.098   5.350   0.033  0.00  0.00    +0.132 C 
BRANCH  20  21
ATOM     21  C   UNL     1      -0.060   3.844   0.024  0.00  0.00    -0.017 A 
ATOM     22  C   UNL     1      -1.241   3.123   0.009  0.00  0.00    +0.006 A 
ATOM     23  C   UNL     1      -1.210   1.741  -0.006  0.00  0.00    +0.004 A 
ATOM     24  C   UNL     1       0.001   1.076   0.006  0.00  0.00    +0.045 A 
ATOM     25  C   UNL     1       1.187   1.796   0.021  0.00  0.00    +0.120 A 
ATOM     26  C   UNL     1       1.153   3.183   0.030  0.00  0.00    +0.051 A 
BRANCH  25  27
ATOM     27  O   UNL     1       2.379   1.144   0.027  0.00  0.00    -0.495 OA
ATOM     28  C   UNL     1       2.338  -0.284   0.016  0.00  0.00    +0.277 C 
ENDBRANCH  25  27
ENDBRANCH  20  21
BRANCH  20  29
ATOM     29  O   UNL     1      -1.149   5.795   0.893  0.00  0.00    -0.369 OA
BRANCH  29  30
ATOM     30  C   UNL     1      -0.746   5.990   2.250  0.00  0.00    +0.195 C 
BRANCH  30  35
ATOM     31  C   UNL     1      -5.272   7.780   5.365  0.00  0.00    +0.044 C 
ATOM     32  C   UNL     1      -4.092   7.313   4.553  0.00  0.00    -0.050 A 
ATOM     33  C   UNL     1      -3.831   5.962   4.427  0.00  0.00    +0.004 A 
ATOM     34  C   UNL     1      -2.748   5.534   3.682  0.00  0.00    +0.006 A 
ATOM     35  C   UNL     1      -1.926   6.457   3.062  0.00  0.00    -0.022 A 
ATOM     36  C   UNL     1      -2.185   7.809   3.193  0.00  0.00    +0.006 A 
ATOM     37  C   UNL     1      -3.270   8.237   3.934  0.00  0.00    +0.004 A 
ENDBRANCH  30  35
ENDBRANCH  29  30
ENDBRANCH  20  29
ENDBRANCH   1  20
TORSDOF 10
