REMARK  Name = ZINC21280856
REMARK  11 active torsions:
REMARK  status: ('A' for Active; 'I' for Inactive)
REMARK    1  A    between atoms: C_1  and  C_2
REMARK    2  A    between atoms: C_2  and  C_4
REMARK    3  A    between atoms: C_9  and  N_10
REMARK    4  A    between atoms: C_11  and  C_13
REMARK    5  A    between atoms: C_13  and  N_14
REMARK    6  A    between atoms: C_17  and  C_21
REMARK    7  A    between atoms: C_17  and  C_22
REMARK    8  A    between atoms: C_25  and  C_28
REMARK    9  A    between atoms: C_28  and  C_29
REMARK   10  A    between atoms: C_28  and  C_30
REMARK   11  A    between atoms: C_28  and  C_31
REMARK                            x       y       z     vdW  Elec       q    Type
REMARK                         _______ _______ _______ _____ _____    ______ ____
ROOT
ATOM      1  N   UNL     1      -0.006   0.004  -0.016  0.00  0.00    -0.215 N 
ATOM      2  C   UNL     1       0.000  -0.756   1.097  0.00  0.00    +0.251 C 
ATOM      3  O   UNL     1      -0.006  -0.371   2.246  0.00  0.00    -0.272 OA
ATOM      4  C   UNL     1       0.017  -2.192   0.612  0.00  0.00    +0.135 C 
ATOM      5  N   UNL     1       0.019  -2.062  -0.855  0.00  0.00    -0.281 N 
ATOM      6  C   UNL     1      -0.000  -0.745  -1.125  0.00  0.00    +0.310 C 
ATOM      7  O   UNL     1      -0.008  -0.285  -2.250  0.00  0.00    -0.252 OA
ATOM      8  C   UNL     1       1.280  -2.908   1.094  0.00  0.00    +0.047 C 
ATOM      9  H   UNL     1       0.034  -2.963  -1.487  0.00  0.00    +0.152 HD
ENDROOT
BRANCH   4  10
ATOM     10  C   UNL     1      -1.215  -2.923   1.079  0.00  0.00    -0.015 A 
ATOM     11  C   UNL     1      -1.822  -2.567   2.269  0.00  0.00    +0.006 A 
ATOM     12  C   UNL     1      -2.954  -3.235   2.695  0.00  0.00    +0.004 A 
ATOM     13  C   UNL     1      -3.476  -4.266   1.934  0.00  0.00    -0.042 A 
ATOM     14  C   UNL     1      -2.867  -4.625   0.747  0.00  0.00    +0.004 A 
ATOM     15  C   UNL     1      -1.736  -3.954   0.319  0.00  0.00    +0.006 A 
BRANCH  13  16
ATOM     16  C   UNL     1      -4.708  -4.997   2.401  0.00  0.00    -0.013 C 
ATOM     17  C   UNL     1      -4.380  -6.480   2.587  0.00  0.00    +0.015 C 
ATOM     18  C   UNL     1      -5.178  -4.407   3.732  0.00  0.00    +0.015 C 
ATOM     19  C   UNL     1      -5.816  -4.847   1.357  0.00  0.00    +0.015 C 
ENDBRANCH  13  16
ENDBRANCH   4  10
BRANCH   1  20
ATOM     20  C   UNL     1      -0.023   1.469  -0.012  0.00  0.00    +0.214 C 
BRANCH  20  22
ATOM     21  N   UNL     1       1.623   3.316  -0.004  0.00  0.00    -0.283 N 
ATOM     22  C   UNL     1       1.392   1.988  -0.008  0.00  0.00    +0.235 C 
ATOM     23  O   UNL     1       2.323   1.210  -0.007  0.00  0.00    -0.274 OA
ATOM     24  H   UNL     1       0.782   4.021  -0.079  0.00  0.00    +0.155 HD
BRANCH  21  30
ATOM     25  C   UNL     1       3.190   4.982   0.804  0.00  0.00    +0.042 A 
ATOM     26  C   UNL     1       4.507   5.454   0.901  0.00  0.00    +0.062 A 
ATOM     27  C   UNL     1       5.533   4.761   0.297  0.00  0.00    +0.167 A 
ATOM     28  C   UNL     1       5.266   3.585  -0.410  0.00  0.00    +0.168 A 
ATOM     29  C   UNL     1       3.968   3.109  -0.508  0.00  0.00    +0.073 A 
ATOM     30  C   UNL     1       2.927   3.796   0.096  0.00  0.00    +0.048 A 
ATOM     31  O   UNL     1       6.441   3.100  -0.905  0.00  0.00    -0.453 OA
ATOM     32  C   UNL     1       7.367   4.200  -0.847  0.00  0.00    +0.466 C 
ATOM     33  O   UNL     1       6.876   5.007   0.240  0.00  0.00    -0.453 OA
BRANCH  25  35
ATOM     34  C   UNL     1       2.363   7.048   2.096  0.00  0.00    +0.091 C 
ATOM     35  C   UNL     1       2.095   5.718   1.440  0.00  0.00    +0.162 C 
ATOM     36  O   UNL     1       0.973   5.256   1.439  0.00  0.00    -0.292 OA
ENDBRANCH  25  35
ENDBRANCH  21  30
ENDBRANCH  20  22
ENDBRANCH   1  20
TORSDOF 6
