REMARK  Name = ZINC52840007
REMARK  6 active torsions:
REMARK  status: ('A' for Active; 'I' for Inactive)
REMARK    1  A    between atoms: C_1  and  C_2
REMARK    2  A    between atoms: C_2  and  C_3
REMARK    3  A    between atoms: C_2  and  C_4
REMARK    4  A    between atoms: C_6  and  C_11
REMARK    5  A    between atoms: C_7  and  N_10
REMARK    6  A    between atoms: N_8  and  N_9
REMARK                            x       y       z     vdW  Elec       q    Type
REMARK                         _______ _______ _______ _____ _____    ______ ____
ROOT
ATOM      1  C   UNL     1      -1.391  -0.589   0.054  0.00  0.00    +0.131 A 
ATOM      2  N   UNL     1      -2.264  -0.412   1.004  0.00  0.00    -0.228 NA
ATOM      3  C   UNL     1      -3.451  -0.932   0.623  0.00  0.00    +0.115 A 
ATOM      4  C   UNL     1      -3.293  -1.456  -0.630  0.00  0.00    +0.141 A 
ATOM      5  N   UNL     1      -1.991  -1.231  -0.987  0.00  0.00    -0.238 N 
ENDROOT
BRANCH   3   6
ATOM      6  C   UNL     1      -4.700  -0.935   1.420  0.00  0.00    +0.039 A 
ATOM      7  C   UNL     1      -5.449  -2.104   1.543  0.00  0.00    +0.014 A 
ATOM      8  C   UNL     1      -6.611  -2.102   2.287  0.00  0.00    +0.016 A 
ATOM      9  C   UNL     1      -7.034  -0.941   2.912  0.00  0.00    +0.021 A 
ATOM     10  C   UNL     1      -6.296   0.224   2.794  0.00  0.00    +0.054 A 
ATOM     11  C   UNL     1      -5.128   0.232   2.056  0.00  0.00    +0.134 A 
ATOM     12  F   UNL     1      -4.405   1.368   1.946  0.00  0.00    -0.205 F 
ATOM     13 BR   UNL     1      -8.628  -0.947   3.929  0.00  0.00    -0.050 Br
ENDBRANCH   3   6
BRANCH   1  15
ATOM     14  C   UNL     1       0.113   1.370   0.280  0.00  0.00    +0.015 C 
ATOM     15  C   UNL     1       0.049  -0.148   0.097  0.00  0.00    +0.051 C 
ATOM     16  C   UNL     1       0.758  -0.833   1.267  0.00  0.00    +0.015 C 
ENDBRANCH   1  15
BRANCH   5  17
ATOM     17  N   UNL     1      -1.402  -1.588  -2.166  0.00  0.00    -0.295 N 
ATOM     18  H   UNL     1      -1.003  -2.513  -2.106  0.00  0.00    +0.163 HD
ATOM     19  H   UNL     1      -2.057  -1.526  -2.931  0.00  0.00    +0.163 HD
ENDBRANCH   5  17
BRANCH   4  20
ATOM     20  N   UNL     1      -4.268  -2.088  -1.395  0.00  0.00    -0.342 N 
ATOM     21  H   UNL     1      -5.186  -2.117  -1.084  0.00  0.00    +0.144 HD
ATOM     22  H   UNL     1      -4.029  -2.500  -2.240  0.00  0.00    +0.144 HD
ENDBRANCH   4  20
TORSDOF 4
