REMARK  Name = ZINC04279679
REMARK  8 active torsions:
REMARK  status: ('A' for Active; 'I' for Inactive)
REMARK    1  A    between atoms: C_1  and  C_2
REMARK    2  A    between atoms: C_2  and  C_3
REMARK    3  A    between atoms: C_2  and  C_4
REMARK    4  A    between atoms: C_2  and  C_5
REMARK    5  A    between atoms: N_8  and  N_22
REMARK    6  A    between atoms: N_12  and  N_13
REMARK    7  A    between atoms: C_14  and  C_15
REMARK    8  A    between atoms: C_20  and  O_21
REMARK                            x       y       z     vdW  Elec       q    Type
REMARK                         _______ _______ _______ _____ _____    ______ ____
ROOT
ATOM      1  C   UNL     1       0.716  -0.417  -1.267  0.00  0.00    +0.106 A 
ATOM      2  C   UNL     1       0.826  -1.815  -1.432  0.00  0.00    +0.292 A 
ATOM      3  O   UNL     1       0.362  -2.582  -0.606  0.00  0.00    -0.264 OA
ATOM      4  N   UNL     1       1.460  -2.279  -2.534  0.00  0.00    -0.198 N 
ATOM      5  C   UNL     1       1.960  -1.378  -3.426  0.00  0.00    +0.253 A 
ATOM      6  N   UNL     1       1.824  -0.080  -3.214  0.00  0.00    -0.136 NA
ATOM      7  N   UNL     1       1.221   0.382  -2.177  0.00  0.00    -0.273 N 
ATOM      8  N   UNL     1       2.606  -1.819  -4.549  0.00  0.00    -0.204 N 
ATOM      9  H   UNL     1       2.643  -2.768  -4.746  0.00  0.00    +0.177 HD
ATOM     10  H   UNL     1       1.141   1.342  -2.063  0.00  0.00    +0.189 HD
ENDROOT
BRANCH   1  12
ATOM     11  C   UNL     1       0.037   1.681  -0.132  0.00  0.00    +0.017 C 
ATOM     12  C   UNL     1       0.019   0.153  -0.058  0.00  0.00    +0.009 C 
ATOM     13  C   UNL     1       0.743  -0.305   1.210  0.00  0.00    +0.017 C 
ATOM     14  C   UNL     1      -1.429  -0.339  -0.025  0.00  0.00    +0.017 C 
ENDBRANCH   1  12
BRANCH   4  15
ATOM     15  N   UNL     1       1.597  -3.621  -2.747  0.00  0.00    -0.293 N 
ATOM     16  H   UNL     1       2.014  -3.804  -3.647  0.00  0.00    +0.163 HD
ATOM     17  H   UNL     1       2.130  -4.052  -2.006  0.00  0.00    +0.163 HD
ENDBRANCH   4  15
BRANCH   8  18
ATOM     18  N   UNL     1       3.215  -0.900  -5.413  0.00  0.00    -0.187 NA
ATOM     19  C   UNL     1       3.829  -1.319  -6.478  0.00  0.00    +0.142 C 
BRANCH  19  20
ATOM     20  C   UNL     1       4.469  -0.353  -7.388  0.00  0.00    +0.036 A 
ATOM     21  C   UNL     1       5.125  -0.798  -8.537  0.00  0.00    +0.013 A 
ATOM     22  C   UNL     1       5.722   0.111  -9.384  0.00  0.00    +0.001 A 
ATOM     23  C   UNL     1       5.675   1.465  -9.100  0.00  0.00    +0.004 A 
ATOM     24  C   UNL     1       5.029   1.919  -7.965  0.00  0.00    +0.046 A 
ATOM     25  C   UNL     1       4.419   1.020  -7.107  0.00  0.00    +0.125 A 
BRANCH  25  26
ATOM     26  O   UNL     1       3.780   1.465  -5.994  0.00  0.00    -0.506 OA
ATOM     27  H   UNL     1       4.346   1.528  -5.213  0.00  0.00    +0.292 HD
ENDBRANCH  25  26
ENDBRANCH  19  20
ENDBRANCH   8  18
TORSDOF 5
