REMARK  Name = ZINC46875498
REMARK  3 active torsions:
REMARK  status: ('A' for Active; 'I' for Inactive)
REMARK    1  A    between atoms: C_8  and  C_11
REMARK    2  A    between atoms: C_11  and  N_12
REMARK    3  A    between atoms: C_18  and  N_21
REMARK                            x       y       z     vdW  Elec       q    Type
REMARK                         _______ _______ _______ _____ _____    ______ ____
ROOT
ATOM      1  N   UNL     1       5.193  -3.270   0.115  0.00  0.00    -0.296 N 
ATOM      2  C   UNL     1       6.058  -4.168  -0.397  0.00  0.00    +0.302 C 
ATOM      3  O   UNL     1       5.667  -5.008  -1.184  0.00  0.00    -0.253 OA
ATOM      4  N   UNL     1       7.356  -4.135  -0.037  0.00  0.00    -0.286 N 
ATOM      5  C   UNL     1       7.822  -3.202   0.999  0.00  0.00    +0.111 C 
ATOM      6  C   UNL     1       8.987  -2.382   0.436  0.00  0.00    +0.044 C 
ATOM      7  C   UNL     1      10.067  -3.330  -0.087  0.00  0.00    +0.095 C 
ATOM      8  C   UNL     1       9.492  -4.189  -1.216  0.00  0.00    +0.044 C 
ATOM      9  C   UNL     1       8.332  -5.034  -0.668  0.00  0.00    +0.111 C 
ATOM     10  H   UNL     1       5.488  -2.647   0.797  0.00  0.00    +0.150 HD
ENDROOT
BRANCH   7  11
ATOM     11  N   UNL     1      11.198  -2.549  -0.596  0.00  0.00    -0.289 N 
ATOM     12  C   UNL     1      12.509  -2.616  -0.132  0.00  0.00    +0.070 A 
ATOM     13  C   UNL     1      13.131  -3.359   0.860  0.00  0.00    +0.028 A 
ATOM     14  C   UNL     1      14.483  -3.200   1.092  0.00  0.00    +0.002 A 
ATOM     15  C   UNL     1      15.220  -2.302   0.339  0.00  0.00    +0.002 A 
ATOM     16  C   UNL     1      14.609  -1.557  -0.650  0.00  0.00    +0.028 A 
ATOM     17  C   UNL     1      13.252  -1.710  -0.891  0.00  0.00    +0.067 A 
ATOM     18  N   UNL     1      12.370  -1.121  -1.794  0.00  0.00    -0.306 N 
ATOM     19  H   UNL     1      12.598  -0.449  -2.454  0.00  0.00    +0.170 HD
ATOM     20  C   UNL     1      11.147  -1.649  -1.596  0.00  0.00    +0.328 A 
ATOM     21  O   UNL     1      10.147  -1.355  -2.224  0.00  0.00    -0.247 OA
ENDBRANCH   7  11
BRANCH   1  22
ATOM     22  C   UNL     1       3.807  -3.235  -0.360  0.00  0.00    +0.150 C 
BRANCH  22  30
ATOM     23  C   UNL     1      -0.013   1.383   0.004  0.00  0.00    +0.000 A 
ATOM     24  C   UNL     1       1.178   2.086  -0.002  0.00  0.00    +0.004 A 
ATOM     25  C   UNL     1       2.383   1.414  -0.020  0.00  0.00    +0.046 A 
ATOM     26  C   UNL     1       2.409   0.021  -0.031  0.00  0.00    +0.124 A 
ATOM     27  C   UNL     1       1.206  -0.673  -0.017  0.00  0.00    -0.002 A 
ATOM     28  C   UNL     1       0.005   0.000  -0.003  0.00  0.00    +0.007 A 
ATOM     29  C   UNL     1       1.546  -2.151  -0.009  0.00  0.00    +0.085 C 
ATOM     30  C   UNL     1       3.044  -2.133   0.378  0.00  0.00    +0.195 C 
ATOM     31  O   UNL     1       3.470  -0.832  -0.061  0.00  0.00    -0.487 OA
ENDBRANCH  22  30
ENDBRANCH   1  22
TORSDOF 3
