REMARK  Name = ZINC01099551
REMARK  3 active torsions:
REMARK  status: ('A' for Active; 'I' for Inactive)
REMARK    1  A    between atoms: C_4  and  C_8
REMARK    2  A    between atoms: C_8  and  C_9
REMARK    3  A    between atoms: C_15  and  O_19
REMARK                            x       y       z     vdW  Elec       q    Type
REMARK                         _______ _______ _______ _____ _____    ______ ____
ROOT
ATOM      1  C   UNL     1      -1.057   5.420   1.993  0.00  0.00    +0.156 A 
ATOM      2  N   UNL     1      -0.856   5.438   0.674  0.00  0.00    -0.205 NA
ATOM      3  C   UNL     1      -0.705   4.209   0.237  0.00  0.00    +0.187 A 
ATOM      4  N   UNL     1      -0.816   3.371   1.291  0.00  0.00    -0.237 N 
ATOM      5  N   UNL     1      -1.040   4.182   2.413  0.00  0.00    -0.154 NA
ATOM      6  C   UNL     1      -0.726   1.914   1.269  0.00  0.00    +0.178 C 
ATOM      7  C   UNL     1      -0.017   1.425   0.010  0.00  0.00    +0.146 C 
ATOM      8  C   UNL     1      -0.753   1.930  -1.236  0.00  0.00    +0.110 C 
ATOM      9  S   UNL     1      -0.404   3.702  -1.426  0.00  0.00    -0.084 S 
ENDROOT
BRANCH   7  10
ATOM     10  O   UNL     1       0.002  -0.004   0.002  0.00  0.00    -0.389 OA
ATOM     11  H   UNL     1       0.442  -0.387  -0.769  0.00  0.00    +0.210 HD
ENDBRANCH   7  10
BRANCH   1  12
ATOM     12  C   UNL     1      -1.270   6.633   2.861  0.00  0.00    +0.116 C 
BRANCH  12  16
ATOM     13  C   UNL     1      -5.445   7.521   3.069  0.00  0.00    +0.003 A 
ATOM     14  C   UNL     1      -4.872   6.672   3.997  0.00  0.00    +0.020 A 
ATOM     15  C   UNL     1      -3.521   6.384   3.930  0.00  0.00    +0.046 A 
ATOM     16  C   UNL     1      -2.743   6.946   2.934  0.00  0.00    -0.003 A 
ATOM     17  C   UNL     1      -3.316   7.800   2.009  0.00  0.00    +0.046 A 
ATOM     18  C   UNL     1      -4.669   8.082   2.074  0.00  0.00    +0.020 A 
ATOM     19 CL   UNL     1      -2.339   8.511   0.763  0.00  0.00    -0.083 Cl
ATOM     20 CL   UNL     1      -2.801   5.318   5.096  0.00  0.00    -0.083 Cl
ENDBRANCH  12  16
ENDBRANCH   1  12
TORSDOF 3
