REMARK  Name = ZINC56806549
REMARK  4 active torsions:
REMARK  status: ('A' for Active; 'I' for Inactive)
REMARK    1  A    between atoms: C_5  and  C_7
REMARK    2  A    between atoms: N_9  and  N_10
REMARK    3  A    between atoms: N_13  and  C_14
REMARK    4  A    between atoms: N_23  and  C_25
REMARK                            x       y       z     vdW  Elec       q    Type
REMARK                         _______ _______ _______ _____ _____    ______ ____
ROOT
ATOM      1  N   UNL     1       0.121  -4.256  -0.024  0.00  0.00    -0.218 N 
ATOM      2  C   UNL     1      -1.033  -4.952  -0.017  0.00  0.00    +0.316 C 
ATOM      3  O   UNL     1      -1.010  -6.168  -0.025  0.00  0.00    -0.251 OA
ATOM      4  N   UNL     1      -2.212  -4.300  -0.001  0.00  0.00    -0.295 N 
ATOM      5  H   UNL     1       0.970  -4.726  -0.036  0.00  0.00    +0.174 HD
ATOM      6  H   UNL     1      -2.231  -3.330   0.005  0.00  0.00    +0.151 HD
ENDROOT
BRANCH   4   7
ATOM      7  C   UNL     1      -3.465  -5.055   0.006  0.00  0.00    +0.077 C 
ATOM      8  C   UNL     1      -3.862  -5.412   1.441  0.00  0.00    -0.007 C 
ATOM      9  C   UNL     1      -5.105  -6.293   1.416  0.00  0.00    +0.003 C 
ATOM     10  C   UNL     1      -6.265  -5.653   0.670  0.00  0.00    +0.001 C 
ATOM     11  C   UNL     1      -5.864  -5.057  -0.670  0.00  0.00    +0.003 C 
ATOM     12  C   UNL     1      -4.598  -4.212  -0.584  0.00  0.00    -0.007 C 
ATOM     13  C   UNL     1      -4.814  -2.959   0.252  0.00  0.00    -0.073 C 
ATOM     14  N   UNL     1      -5.062  -3.241   1.662  0.00  0.00    +0.382 N 
ATOM     15  C   UNL     1      -4.086  -4.148   2.256  0.00  0.00    -0.073 C 
ATOM     16  H   UNL     1      -5.996  -3.601   1.788  0.00  0.00    -0.081 HD
BRANCH  14  17
ATOM     17  C   UNL     1      -5.008  -1.970   2.396  0.00  0.00    -0.069 C 
ATOM     18  C   UNL     1      -6.184  -1.635   3.316  0.00  0.00    -0.017 C 
ATOM     19  C   UNL     1      -6.005  -0.881   1.996  0.00  0.00    -0.017 C 
ENDBRANCH  14  17
ENDBRANCH   4   7
BRANCH   1  22
ATOM     20  C   UNL     1       1.250  -2.160  -0.023  0.00  0.00    +0.262 C 
ATOM     21  O   UNL     1       2.313  -2.748  -0.037  0.00  0.00    -0.269 OA
ATOM     22  N   UNL     1       0.095  -2.856  -0.016  0.00  0.00    -0.229 N 
ATOM     23  H   UNL     1      -0.754  -2.386  -0.004  0.00  0.00    +0.173 HD
BRANCH  20  28
ATOM     24  C   UNL     1      -0.017   1.375   0.010  0.00  0.00    +0.001 A 
ATOM     25  C   UNL     1       1.170   2.087   0.002  0.00  0.00    +0.001 A 
ATOM     26  C   UNL     1       2.383   1.423  -0.013  0.00  0.00    +0.021 A 
ATOM     27  C   UNL     1       2.417   0.041  -0.021  0.00  0.00    +0.053 A 
ATOM     28  C   UNL     1       1.222  -0.683  -0.014  0.00  0.00    +0.056 A 
ATOM     29  C   UNL     1       0.002  -0.004   0.002  0.00  0.00    +0.014 A 
ATOM     30 CL   UNL     1       3.940  -0.792  -0.042  0.00  0.00    -0.083 Cl
ENDBRANCH  20  28
ENDBRANCH   1  22
TORSDOF 4
