REMARK  Name = ZINC36591061
REMARK  19 active torsions:
REMARK  status: ('A' for Active; 'I' for Inactive)
REMARK    1  A    between atoms: C_1  and  C_2
REMARK    2  A    between atoms: C_2  and  C_3
REMARK    3  A    between atoms: C_3  and  C_4
REMARK    4  A    between atoms: C_4  and  C_5
REMARK    5  A    between atoms: C_5  and  C_6
REMARK    6  A    between atoms: N_8  and  C_9
REMARK    7  A    between atoms: N_8  and  C_34
REMARK    8  A    between atoms: C_9  and  C_11
REMARK    9  A    between atoms: C_9  and  C_20
REMARK   10  A    between atoms: C_14  and  O_19
REMARK   11  A    between atoms: C_15  and  O_17
REMARK   12  A    between atoms: O_17  and  C_18
REMARK   13  A    between atoms: N_22  and  C_23
REMARK   14  A    between atoms: C_23  and  S_24
REMARK   15  A    between atoms: S_24  and  C_27
REMARK   16  A    between atoms: C_30  and  C_33
REMARK   17  A    between atoms: C_34  and  C_35
REMARK   18  A    between atoms: C_34  and  C_36
REMARK   19  A    between atoms: C_34  and  C_37
REMARK                            x       y       z     vdW  Elec       q    Type
REMARK                         _______ _______ _______ _____ _____    ______ ____
ROOT
ATOM      1  C   UNL     1      -2.692  -6.418  -0.092  0.00  0.00    +0.193 C 
ENDROOT
BRANCH   1   2
ATOM      2  C   UNL     1      -2.582  -7.317   1.112  0.00  0.00    -0.015 A 
ATOM      3  C   UNL     1      -3.721  -7.691   1.800  0.00  0.00    +0.010 A 
ATOM      4  C   UNL     1      -3.626  -8.516   2.905  0.00  0.00    +0.049 A 
ATOM      5  C   UNL     1      -2.386  -8.970   3.325  0.00  0.00    +0.158 A 
ATOM      6  C   UNL     1      -1.239  -8.595   2.632  0.00  0.00    +0.162 A 
ATOM      7  C   UNL     1      -1.343  -7.772   1.523  0.00  0.00    +0.055 A 
BRANCH   6   8
ATOM      8  O   UNL     1      -0.020  -9.039   3.041  0.00  0.00    -0.491 OA
ATOM      9  C   UNL     1       1.113  -8.613   2.281  0.00  0.00    +0.277 C 
ENDBRANCH   6   8
BRANCH   5  10
ATOM     10  O   UNL     1      -2.290  -9.782   4.413  0.00  0.00    -0.503 OA
ATOM     11  H   UNL     1      -2.346 -10.725   4.206  0.00  0.00    +0.292 HD
ENDBRANCH   5  10
ENDBRANCH   1   2
BRANCH   1  12
ATOM     12  C   UNL     1      -3.168  -7.219  -1.276  0.00  0.00    +0.239 C 
ATOM     13  O   UNL     1      -4.062  -6.793  -1.977  0.00  0.00    -0.273 OA
ATOM     14  N   UNL     1      -2.601  -8.409  -1.556  0.00  0.00    -0.294 N 
ATOM     15  H   UNL     1      -1.887  -8.750  -0.995  0.00  0.00    +0.150 HD
BRANCH  14  16
ATOM     16  C   UNL     1      -3.064  -9.189  -2.707  0.00  0.00    +0.278 C 
BRANCH  16  17
ATOM     17  S   UNL     1      -2.008  -8.837  -4.139  0.00  0.00    +0.013 S 
ATOM     18  O   UNL     1      -2.405  -9.633  -5.247  0.00  0.00    -0.168 OA
ATOM     19  O   UNL     1      -1.828  -7.435  -4.282  0.00  0.00    -0.168 OA
BRANCH  17  20
ATOM     20  C   UNL     1      -0.418  -9.452  -3.691  0.00  0.00    +0.090 A 
ATOM     21  C   UNL     1       0.483  -8.628  -3.043  0.00  0.00    +0.027 A 
ATOM     22  C   UNL     1       1.730  -9.110  -2.691  0.00  0.00    +0.005 A 
ATOM     23  C   UNL     1       2.075 -10.415  -2.988  0.00  0.00    -0.050 A 
ATOM     24  C   UNL     1       1.174 -11.239  -3.636  0.00  0.00    +0.005 A 
ATOM     25  C   UNL     1      -0.075 -10.758  -3.983  0.00  0.00    +0.027 A 
ATOM     26  C   UNL     1       3.435 -10.941  -2.606  0.00  0.00    +0.044 C 
ENDBRANCH  17  20
ENDBRANCH  16  17
ENDBRANCH  14  16
ENDBRANCH   1  12
BRANCH   1  29
ATOM     27  C   UNL     1      -4.972  -5.587   0.124  0.00  0.00    +0.217 C 
ATOM     28  O   UNL     1      -5.372  -6.704  -0.125  0.00  0.00    -0.276 OA
ATOM     29  N   UNL     1      -3.648  -5.343   0.187  0.00  0.00    -0.281 N 
BRANCH  29  30
ATOM     30  C   UNL     1      -3.165  -4.004   0.533  0.00  0.00    +0.030 C 
ATOM     31  C   UNL     1      -3.966  -3.464   1.720  0.00  0.00    +0.031 C 
ATOM     32  C   UNL     1      -1.684  -4.078   0.909  0.00  0.00    +0.031 C 
ATOM     33  C   UNL     1      -3.340  -3.072  -0.667  0.00  0.00    +0.031 C 
ENDBRANCH  29  30
BRANCH  27  34
ATOM     34  C   UNL     1      -5.956  -4.470   0.364  0.00  0.00    +0.096 C 
BRANCH  34  35
ATOM     35  C   UNL     1      -7.343  -4.900  -0.118  0.00  0.00    +0.009 C 
BRANCH  35  36
ATOM     36  C   UNL     1      -8.341  -3.766   0.125  0.00  0.00    +0.000 C 
BRANCH  36  38
ATOM     37  C   UNL     1     -10.726  -3.062  -0.114  0.00  0.00    +0.004 C 
ATOM     38  C   UNL     1      -9.728  -4.196  -0.357  0.00  0.00    -0.003 C 
ENDBRANCH  36  38
ENDBRANCH  35  36
ENDBRANCH  34  35
ENDBRANCH  27  34
ENDBRANCH   1  29
TORSDOF 13
