REMARK  Name = ZINC21240507
REMARK  7 active torsions:
REMARK  status: ('A' for Active; 'I' for Inactive)
REMARK    1  A    between atoms: C_1  and  C_2
REMARK    2  A    between atoms: C_2  and  C_3
REMARK    3  A    between atoms: C_2  and  O_4
REMARK    4  A    between atoms: O_4  and  C_5
REMARK    5  A    between atoms: C_8  and  C_11
REMARK    6  A    between atoms: C_16  and  C_26
REMARK    7  A    between atoms: C_31  and  N_32
REMARK                            x       y       z     vdW  Elec       q    Type
REMARK                         _______ _______ _______ _____ _____    ______ ____
ROOT
ATOM      1  C   UNL     1      -3.995   6.564   0.720  0.00  0.00    +0.032 C 
ATOM      2  C   UNL     1      -3.032   7.649   0.240  0.00  0.00    +0.059 C 
ATOM      3  C   UNL     1      -3.776   8.966   0.083  0.00  0.00    +0.017 C 
ATOM      4  C   UNL     1      -5.063   8.977  -0.301  0.00  0.00    +0.036 C 
ATOM      5  C   UNL     1      -5.912  10.206  -0.519  0.00  0.00    +0.138 C 
ATOM      6  N   UNL     1      -5.324  11.434  -0.029  0.00  0.00    -0.331 N 
ATOM      7  C   UNL     1      -4.150  11.942  -0.583  0.00  0.00    +0.049 A 
ATOM      8  C   UNL     1      -4.146  13.120  -1.313  0.00  0.00    +0.025 A 
ATOM      9  C   UNL     1      -2.980  13.529  -1.936  0.00  0.00    +0.002 A 
ATOM     10  C   UNL     1      -1.827  12.773  -1.831  0.00  0.00    +0.002 A 
ATOM     11  C   UNL     1      -1.822  11.607  -1.084  0.00  0.00    +0.025 A 
ATOM     12  C   UNL     1      -2.983  11.205  -0.446  0.00  0.00    +0.052 A 
ATOM     13  N   UNL     1      -3.036  10.070   0.355  0.00  0.00    -0.316 N 
ATOM     14  C   UNL     1      -5.749   7.760  -0.528  0.00  0.00    +0.163 C 
ATOM     15  O   UNL     1      -6.908   7.801  -0.894  0.00  0.00    -0.292 OA
ATOM     16  C   UNL     1      -5.101   6.423  -0.332  0.00  0.00    +0.088 C 
ATOM     17  H   UNL     1      -5.804  11.984   0.795  0.00  0.00    +0.147 HD
ATOM     18  H   UNL     1      -2.421  10.110   1.266  0.00  0.00    +0.152 HD
ENDROOT
BRANCH   1  22
ATOM     19  C   UNL     1      -1.908   2.857   1.133  0.00  0.00    +0.121 A 
ATOM     20  C   UNL     1      -1.960   3.492  -0.099  0.00  0.00    +0.046 A 
ATOM     21  C   UNL     1      -2.640   4.687  -0.231  0.00  0.00    +0.007 A 
ATOM     22  C   UNL     1      -3.259   5.257   0.866  0.00  0.00    -0.043 A 
ATOM     23  C   UNL     1      -3.204   4.630   2.097  0.00  0.00    +0.007 A 
ATOM     24  C   UNL     1      -2.530   3.431   2.233  0.00  0.00    +0.046 A 
BRANCH  19  25
ATOM     25  O   UNL     1      -1.245   1.679   1.265  0.00  0.00    -0.489 OA
BRANCH  25  27
ATOM     26  C   UNL     1      -0.097   0.107   2.698  0.00  0.00    +0.051 C 
ATOM     27  C   UNL     1      -1.296   1.044   2.544  0.00  0.00    +0.167 C 
ATOM     28  C   UNL     1      -2.591   0.238   2.662  0.00  0.00    +0.051 C 
ENDBRANCH  25  27
ENDBRANCH  19  25
ENDBRANCH   1  22
BRANCH   5  29
ATOM     29  C   UNL     1      -6.165  10.353  -1.997  0.00  0.00    +0.007 A 
ATOM     30  C   UNL     1      -5.350   9.704  -2.906  0.00  0.00    +0.008 A 
ATOM     31  C   UNL     1      -5.582   9.839  -4.261  0.00  0.00    +0.000 A 
ATOM     32  C   UNL     1      -6.628  10.623  -4.709  0.00  0.00    +0.002 A 
ATOM     33  C   UNL     1      -7.443  11.273  -3.801  0.00  0.00    +0.033 A 
ATOM     34  C   UNL     1      -7.214  11.133  -2.444  0.00  0.00    +0.131 A 
BRANCH  34  35
ATOM     35  N   UNL     1      -8.090  11.824  -1.472  0.00  0.00    +0.057 N 
ATOM     36  O   UNL     1      -8.955  12.587  -1.865  0.00  0.00    -0.126 OA
ATOM     37  O   UNL     1      -7.947  11.629  -0.278  0.00  0.00    -0.126 OA
ENDBRANCH  34  35
ENDBRANCH   5  29
TORSDOF 5
