REMARK  Name = ZINC09860216
REMARK  12 active torsions:
REMARK  status: ('A' for Active; 'I' for Inactive)
REMARK    1  A    between atoms: C_1  and  C_2
REMARK    2  A    between atoms: C_12  and  C_18
REMARK    3  A    between atoms: C_18  and  C_19
REMARK    4  A    between atoms: C_19  and  C_20
REMARK    5  A    between atoms: C_20  and  C_21
REMARK    6  A    between atoms: N_23  and  C_24
REMARK    7  A    between atoms: C_24  and  C_25
REMARK    8  A    between atoms: C_25  and  C_26
REMARK    9  A    between atoms: C_26  and  N_65
REMARK   10  A    between atoms: C_27  and  N_65
REMARK   11  A    between atoms: C_28  and  C_29
REMARK   12  A    between atoms: C_28  and  N_65
REMARK                            x       y       z     vdW  Elec       q    Type
REMARK                         _______ _______ _______ _____ _____    ______ ____
ROOT
ATOM      1  C   UNL     1       0.148  -0.520   1.435  0.00  0.00    +0.017 C 
ENDROOT
BRANCH   1   2
ATOM      2  C   UNL     1       0.002  -0.004   0.002  0.00  0.00    +0.077 C 
BRANCH   2  14
ATOM      3  C   UNL     1      -2.750   8.075   0.633  0.00  0.00    +0.090 C 
ATOM      4  C   UNL     1      -2.483   6.593   0.569  0.00  0.00    +0.149 A 
ATOM      5  N   UNL     1      -3.389   5.639   0.766  0.00  0.00    -0.211 NA
ATOM      6  C   UNL     1      -2.825   4.457   0.638  0.00  0.00    +0.169 A 
ATOM      7  C   UNL     1      -3.329   3.076   0.745  0.00  0.00    +0.043 A 
ATOM      8  C   UNL     1      -4.665   2.812   1.038  0.00  0.00    +0.013 A 
ATOM      9  C   UNL     1      -5.097   1.505   1.128  0.00  0.00    +0.001 A 
ATOM     10  C   UNL     1      -4.210   0.459   0.930  0.00  0.00    +0.002 A 
ATOM     11  C   UNL     1      -2.884   0.709   0.639  0.00  0.00    +0.027 A 
ATOM     12  C   UNL     1      -2.431   2.016   0.544  0.00  0.00    +0.062 A 
ATOM     13  N   UNL     1      -1.101   2.296   0.251  0.00  0.00    -0.263 N 
ATOM     14  C   UNL     1      -0.018   1.503   0.010  0.00  0.00    +0.139 A 
ATOM     15  N   UNL     1       0.998   2.292  -0.206  0.00  0.00    -0.132 NA
ATOM     16  N   UNL     1       0.627   3.520  -0.126  0.00  0.00    -0.108 NA
ATOM     17  C   UNL     1      -0.655   3.582   0.157  0.00  0.00    +0.259 A 
ATOM     18  N   UNL     1      -1.508   4.655   0.348  0.00  0.00    -0.177 N 
ATOM     19  N   UNL     1      -1.322   6.044   0.311  0.00  0.00    -0.147 NA
ENDBRANCH   2  14
ENDBRANCH   1   2
BRANCH   1  20
ATOM     20  C   UNL     1       0.169  -2.050   1.427  0.00  0.00    +0.096 C 
BRANCH  20  21
ATOM     21  C   UNL     1       0.313  -2.558   2.838  0.00  0.00    +0.213 C 
ATOM     22  O   UNL     1       0.392  -1.774   3.760  0.00  0.00    -0.276 OA
ATOM     23  N   UNL     1       0.355  -3.884   3.076  0.00  0.00    -0.315 N 
ATOM     24  H   UNL     1       0.292  -4.511   2.338  0.00  0.00    +0.149 HD
BRANCH  23  25
ATOM     25  C   UNL     1       0.495  -4.378   4.448  0.00  0.00    +0.102 C 
BRANCH  25  26
ATOM     26  C   UNL     1       0.516  -5.908   4.439  0.00  0.00    +0.000 C 
BRANCH  26  27
ATOM     27  C   UNL     1       0.662  -6.424   5.872  0.00  0.00    -0.077 C 
BRANCH  27  29
ATOM     28  C   UNL     1       1.883  -8.399   5.186  0.00  0.00    -0.096 C 
ATOM     29  N   UNL     1       0.659  -7.902   5.849  0.00  0.00    +0.381 N 
ATOM     30  H   UNL     1      -0.161  -8.226   5.323  0.00  0.00    -0.082 HD
BRANCH  29  31
ATOM     31  C   UNL     1       0.583  -8.428   7.229  0.00  0.00    -0.043 C 
BRANCH  31  32
ATOM     32  C   UNL     1       0.360  -9.917   7.169  0.00  0.00    -0.064 A 
ATOM     33  C   UNL     1      -0.927 -10.422   7.131  0.00  0.00    +0.002 A 
ATOM     34  C   UNL     1      -1.131 -11.788   7.071  0.00  0.00    +0.000 A 
ATOM     35  C   UNL     1      -0.050 -12.649   7.060  0.00  0.00    +0.000 A 
ATOM     36  C   UNL     1       1.236 -12.144   7.103  0.00  0.00    +0.000 A 
ATOM     37  C   UNL     1       1.441 -10.778   7.158  0.00  0.00    +0.002 A 
ENDBRANCH  31  32
ENDBRANCH  29  31
ENDBRANCH  27  29
ENDBRANCH  26  27
ENDBRANCH  25  26
ENDBRANCH  23  25
ENDBRANCH  20  21
ENDBRANCH   1  20
TORSDOF 10
