REMARK  Name = ZINC54650262
REMARK  6 active torsions:
REMARK  status: ('A' for Active; 'I' for Inactive)
REMARK    1  A    between atoms: C_4  and  C_24
REMARK    2  A    between atoms: C_5  and  C_7
REMARK    3  A    between atoms: C_7  and  C_8
REMARK    4  A    between atoms: C_8  and  N_9
REMARK    5  A    between atoms: N_12  and  N_13
REMARK    6  A    between atoms: C_14  and  C_16
REMARK                            x       y       z     vdW  Elec       q    Type
REMARK                         _______ _______ _______ _____ _____    ______ ____
ROOT
ATOM      1  N   UNL     1       1.397  -4.167   1.404  0.00  0.00    -0.298 N 
ATOM      2  C   UNL     1       1.520  -4.846   2.562  0.00  0.00    +0.316 C 
ATOM      3  O   UNL     1       1.614  -4.243   3.613  0.00  0.00    -0.251 OA
ATOM      4  N   UNL     1       1.538  -6.194   2.554  0.00  0.00    -0.218 N 
ATOM      5  H   UNL     1       1.321  -4.648   0.565  0.00  0.00    +0.150 HD
ATOM      6  H   UNL     1       1.627  -6.682   3.387  0.00  0.00    +0.174 HD
ENDROOT
BRANCH   4   7
ATOM      7  N   UNL     1       1.429  -6.889   1.342  0.00  0.00    -0.233 N 
ATOM      8  C   UNL     1       1.447  -8.236   1.334  0.00  0.00    +0.234 C 
ATOM      9  O   UNL     1       1.558  -8.847   2.376  0.00  0.00    -0.274 OA
ATOM     10  H   UNL     1       1.341  -6.400   0.509  0.00  0.00    +0.173 HD
BRANCH   8  11
ATOM     11  C   UNL     1       1.330  -8.984   0.031  0.00  0.00    +0.099 C 
ATOM     12  C   UNL     1      -0.016  -8.657  -0.636  0.00  0.00    +0.037 C 
ATOM     13  C   UNL     1      -0.286  -9.648  -1.794  0.00  0.00    +0.166 C 
ATOM     14  S   UNL     1       0.625 -11.153  -1.258  0.00  0.00    -0.030 S 
ATOM     15  O   UNL     1       1.659 -11.426  -2.195  0.00  0.00    -0.174 OA
ATOM     16  O   UNL     1      -0.312 -12.171  -0.935  0.00  0.00    -0.174 OA
ATOM     17  C   UNL     1       1.379 -10.515   0.298  0.00  0.00    +0.178 C 
ENDBRANCH   8  11
ENDBRANCH   4   7
BRANCH   1  18
ATOM     18  C   UNL     1       1.377  -2.702   1.412  0.00  0.00    +0.110 C 
BRANCH  18  19
ATOM     19  C   UNL     1       1.229  -2.186  -0.020  0.00  0.00    +0.054 C 
BRANCH  19  24
ATOM     20  C   UNL     1      -0.017   1.378   0.010  0.00  0.00    +0.000 A 
ATOM     21  C   UNL     1       1.171   2.085   0.002  0.00  0.00    +0.001 A 
ATOM     22  C   UNL     1       2.377   1.411  -0.013  0.00  0.00    +0.012 A 
ATOM     23  C   UNL     1       2.396   0.028  -0.020  0.00  0.00    +0.058 A 
ATOM     24  C   UNL     1       1.209  -0.679  -0.012  0.00  0.00    -0.034 A 
ATOM     25  C   UNL     1       0.002  -0.004   0.002  0.00  0.00    +0.004 A 
BRANCH  23  26
ATOM     26  C   UNL     1       3.711  -0.707  -0.038  0.00  0.00    +0.418 C 
ATOM     27  F   UNL     1       4.762   0.216  -0.044  0.00  0.00    -0.166 F 
ATOM     28  F   UNL     1       3.808  -1.516   1.100  0.00  0.00    -0.166 F 
ATOM     29  F   UNL     1       3.784  -1.505  -1.185  0.00  0.00    -0.166 F 
ENDBRANCH  23  26
ENDBRANCH  19  24
ENDBRANCH  18  19
ENDBRANCH   1  18
TORSDOF 6
