REMARK  Name = ZINC39609359
REMARK  11 active torsions:
REMARK  status: ('A' for Active; 'I' for Inactive)
REMARK    1  A    between atoms: C_1  and  C_2
REMARK    2  A    between atoms: C_5  and  C_9
REMARK    3  A    between atoms: C_7  and  C_8
REMARK    4  A    between atoms: C_9  and  C_10
REMARK    5  A    between atoms: C_10  and  N_11
REMARK    6  A    between atoms: C_12  and  C_14
REMARK    7  A    between atoms: C_25  and  C_27
REMARK    8  A    between atoms: C_27  and  C_28
REMARK    9  A    between atoms: C_28  and  C_29
REMARK   10  A    between atoms: C_32  and  O_35
REMARK   11  A    between atoms: O_35  and  C_36
REMARK                            x       y       z     vdW  Elec       q    Type
REMARK                         _______ _______ _______ _____ _____    ______ ____
ROOT
ATOM      1  C   UNL     1       2.723  -8.397  -0.059  0.00  0.00    +0.100 C 
ATOM      2  C   UNL     1       1.954  -8.938  -1.285  0.00  0.00    +0.121 C 
ATOM      3  N   UNL     1       2.999  -9.168  -2.310  0.00  0.00    -0.300 N 
ATOM      4  C   UNL     1       4.148  -9.716  -1.550  0.00  0.00    +0.115 C 
ATOM      5  C   UNL     1       4.161  -8.913  -0.234  0.00  0.00    -0.004 C 
ATOM      6  C   UNL     1       4.544  -9.818   0.933  0.00  0.00    -0.010 C 
ATOM      7  C   UNL     1       5.997 -10.271   0.767  0.00  0.00    -0.082 C 
ATOM      8  N   UNL     1       6.876  -9.096   0.723  0.00  0.00    +0.379 N 
ATOM      9  C   UNL     1       6.562  -8.280  -0.456  0.00  0.00    -0.082 C 
ATOM     10  C   UNL     1       5.133  -7.742  -0.341  0.00  0.00    -0.010 C 
ATOM     11  C   UNL     1       2.923  -8.931  -3.635  0.00  0.00    +0.216 C 
ATOM     12  O   UNL     1       3.873  -9.173  -4.350  0.00  0.00    -0.276 OA
ATOM     13  H   UNL     1       6.741  -8.545   1.557  0.00  0.00    -0.086 HD
ATOM     14  H   UNL     1       7.837  -9.399   0.674  0.00  0.00    -0.086 HD
ENDROOT
BRANCH   1  16
ATOM     15  N   UNL     1       2.779  -6.222   1.117  0.00  0.00    -0.315 N 
ATOM     16  C   UNL     1       2.703  -6.890  -0.050  0.00  0.00    +0.218 C 
ATOM     17  O   UNL     1       2.619  -6.279  -1.095  0.00  0.00    -0.275 OA
ATOM     18  H   UNL     1       2.846  -6.710   1.953  0.00  0.00    +0.149 HD
BRANCH  15  19
ATOM     19  C   UNL     1       2.760  -4.757   1.126  0.00  0.00    +0.109 C 
BRANCH  19  20
ATOM     20  C   UNL     1       2.858  -4.253   2.567  0.00  0.00    +0.054 C 
BRANCH  20  25
ATOM     21  C   UNL     1       2.783   1.525   2.602  0.00  0.00    +0.044 C 
ATOM     22  C   UNL     1       2.803   0.018   2.593  0.00  0.00    -0.048 A 
ATOM     23  C   UNL     1       1.617  -0.689   2.674  0.00  0.00    +0.004 A 
ATOM     24  C   UNL     1       1.635  -2.071   2.666  0.00  0.00    +0.004 A 
ATOM     25  C   UNL     1       2.838  -2.747   2.575  0.00  0.00    -0.046 A 
ATOM     26  C   UNL     1       4.023  -2.040   2.493  0.00  0.00    +0.007 A 
ATOM     27  C   UNL     1       4.005  -0.657   2.497  0.00  0.00    -0.047 A 
ATOM     28  C   UNL     1       5.296   0.114   2.402  0.00  0.00    +0.044 C 
ENDBRANCH  20  25
ENDBRANCH  19  20
ENDBRANCH  15  19
ENDBRANCH   1  16
BRANCH  11  29
ATOM     29  C   UNL     1       1.659  -8.365  -4.228  0.00  0.00    +0.100 C 
BRANCH  29  30
ATOM     30  C   UNL     1       1.836  -8.193  -5.738  0.00  0.00    +0.044 C 
BRANCH  30  31
ATOM     31  C   UNL     1       0.571  -7.627  -6.331  0.00  0.00    -0.047 A 
ATOM     32  C   UNL     1      -0.425  -8.478  -6.772  0.00  0.00    +0.007 A 
ATOM     33  C   UNL     1      -1.585  -7.962  -7.316  0.00  0.00    +0.046 A 
ATOM     34  C   UNL     1      -1.750  -6.588  -7.420  0.00  0.00    +0.120 A 
ATOM     35  C   UNL     1      -0.749  -5.737  -6.976  0.00  0.00    +0.046 A 
ATOM     36  C   UNL     1       0.407  -6.258  -6.428  0.00  0.00    +0.007 A 
BRANCH  34  37
ATOM     37  O   UNL     1      -2.890  -6.078  -7.955  0.00  0.00    -0.495 OA
ATOM     38  C   UNL     1      -2.991  -4.654  -8.030  0.00  0.00    +0.277 C 
ENDBRANCH  34  37
ENDBRANCH  30  31
ENDBRANCH  29  30
ENDBRANCH  11  29
TORSDOF 8
