REMARK  Name = ZINC45820078
REMARK  8 active torsions:
REMARK  status: ('A' for Active; 'I' for Inactive)
REMARK    1  A    between atoms: C_3  and  C_6
REMARK    2  A    between atoms: C_6  and  C_8
REMARK    3  A    between atoms: C_6  and  N_26
REMARK    4  A    between atoms: C_8  and  N_9
REMARK    5  A    between atoms: C_10  and  C_12
REMARK    6  A    between atoms: C_14  and  S_19
REMARK    7  A    between atoms: S_19  and  N_22
REMARK    8  A    between atoms: N_22  and  C_23
REMARK                            x       y       z     vdW  Elec       q    Type
REMARK                         _______ _______ _______ _____ _____    ______ ____
ROOT
ATOM      1  N   UNL     1       5.596  -0.128   1.223  0.00  0.00    -0.312 N 
ATOM      2  C   UNL     1       6.276  -0.601   2.286  0.00  0.00    +0.245 C 
ATOM      3  O   UNL     1       5.717  -0.728   3.357  0.00  0.00    -0.270 OA
ATOM      4  H   UNL     1       6.042  -0.025   0.368  0.00  0.00    +0.149 HD
ENDROOT
BRANCH   2   5
ATOM      5  C   UNL     1       7.702  -0.964   2.148  0.00  0.00    +0.052 A 
ATOM      6  C   UNL     1       8.349  -0.813   0.920  0.00  0.00    +0.042 A 
ATOM      7  C   UNL     1       9.680  -1.154   0.798  0.00  0.00    +0.106 A 
ATOM      8  C   UNL     1      10.375  -1.645   1.890  0.00  0.00    +0.029 A 
ATOM      9  C   UNL     1       9.741  -1.798   3.110  0.00  0.00    +0.018 A 
ATOM     10  C   UNL     1       8.410  -1.455   3.247  0.00  0.00    +0.030 A 
ATOM     11 BR   UNL     1       7.547  -1.656   4.918  0.00  0.00    -0.050 Br
BRANCH   7  12
ATOM     12  S   UNL     1      10.497  -0.964  -0.751  0.00  0.00    +0.059 S 
ATOM     13  O   UNL     1      11.596  -1.865  -0.744  0.00  0.00    -0.153 OA
ATOM     14  O   UNL     1       9.488  -1.001  -1.750  0.00  0.00    -0.153 OA
BRANCH  12  15
ATOM     15  N   UNL     1      11.138   0.563  -0.782  0.00  0.00    -0.187 NA
ATOM     16  H   UNL     1      10.812   1.213  -1.424  0.00  0.00    +0.148 HD
BRANCH  15  17
ATOM     17  C   UNL     1      12.199   0.931   0.159  0.00  0.00    +0.077 C 
ATOM     18  C   UNL     1      12.225   2.376   0.663  0.00  0.00    +0.022 C 
ATOM     19  C   UNL     1      13.279   1.895  -0.337  0.00  0.00    +0.022 C 
ENDBRANCH  15  17
ENDBRANCH  12  15
ENDBRANCH   7  12
ENDBRANCH   2   5
BRANCH   1  20
ATOM     20  C   UNL     1       4.182   0.233   1.359  0.00  0.00    +0.097 C 
BRANCH  20  21
ATOM     21  C   UNL     1       3.625   0.638  -0.007  0.00  0.00    +0.016 C 
BRANCH  21  22
ATOM     22  N   UNL     1       4.457   1.706  -0.578  0.00  0.00    +0.387 N 
ATOM     23  C   UNL     1       3.929   2.085  -1.894  0.00  0.00    -0.078 C 
ATOM     24  C   UNL     1       4.839   3.139  -2.528  0.00  0.00    -0.019 C 
ATOM     25  C   UNL     1       4.889   4.373  -1.622  0.00  0.00    -0.004 C 
ATOM     26  C   UNL     1       5.370   3.953  -0.231  0.00  0.00    -0.019 C 
ATOM     27  C   UNL     1       4.441   2.869   0.319  0.00  0.00    -0.078 C 
ATOM     28  H   UNL     1       5.405   1.375  -0.680  0.00  0.00    -0.081 HD
ENDBRANCH  21  22
BRANCH  21  31
ATOM     29  C   UNL     1       3.037  -2.325  -2.118  0.00  0.00    +0.041 A 
ATOM     30  C   UNL     1       2.579  -1.332  -1.221  0.00  0.00    +0.043 A 
ATOM     31  C   UNL     1       3.637  -0.554  -0.928  0.00  0.00    +0.093 A 
ATOM     32  O   UNL     1       4.705  -1.020  -1.596  0.00  0.00    -0.469 OA
ATOM     33  C   UNL     1       4.347  -2.094  -2.319  0.00  0.00    +0.195 A 
ENDBRANCH  21  31
ENDBRANCH  20  21
ENDBRANCH   1  20
TORSDOF 8
