REMARK  Name = ZINC04689224
REMARK  17 active torsions:
REMARK  status: ('A' for Active; 'I' for Inactive)
REMARK    1  A    between atoms: C_1  and  C_2
REMARK    2  A    between atoms: C_2  and  O_3
REMARK    3  A    between atoms: O_3  and  C_4
REMARK    4  A    between atoms: C_4  and  C_6
REMARK    5  A    between atoms: C_7  and  C_22
REMARK    6  A    between atoms: C_12  and  C_14
REMARK    7  A    between atoms: C_16  and  C_21
REMARK    8  A    between atoms: C_19  and  C_20
REMARK    9  A    between atoms: C_22  and  N_66
REMARK   10  A    between atoms: C_23  and  C_24
REMARK   11  A    between atoms: C_23  and  C_25
REMARK   12  A    between atoms: C_23  and  C_26
REMARK   13  A    between atoms: C_23  and  N_66
REMARK   14  A    between atoms: C_26  and  C_27
REMARK   15  A    between atoms: C_27  and  C_28
REMARK   16  A    between atoms: C_27  and  C_29
REMARK   17  A    between atoms: C_27  and  C_30
REMARK                            x       y       z     vdW  Elec       q    Type
REMARK                         _______ _______ _______ _____ _____    ______ ____
ROOT
ATOM      1  C   UNL     1       0.525   2.835  -0.257  0.00  0.00    +0.076 C 
ATOM      2  C   UNL     1       1.254   3.915  -0.610  0.00  0.00    +0.007 C 
ATOM      3  N   UNL     1       0.671   5.140  -0.766  0.00  0.00    -0.274 N 
ATOM      4  C   UNL     1      -0.637   5.367  -0.588  0.00  0.00    +0.304 C 
ATOM      5  O   UNL     1      -1.065   6.493  -0.750  0.00  0.00    -0.252 OA
ATOM      6  N   UNL     1      -1.493   4.389  -0.234  0.00  0.00    -0.288 N 
ATOM      7  C   UNL     1      -0.964   3.028  -0.046  0.00  0.00    +0.144 C 
ATOM      8  H   UNL     1       1.235   5.887  -1.021  0.00  0.00    +0.156 HD
ATOM      9  H   UNL     1      -2.437   4.576  -0.111  0.00  0.00    +0.151 HD
ENDROOT
BRANCH   7  10
ATOM     10  C   UNL     1      -1.690   2.107  -0.992  0.00  0.00    -0.019 A 
ATOM     11  C   UNL     1      -1.937   2.507  -2.292  0.00  0.00    +0.009 A 
ATOM     12  C   UNL     1      -2.600   1.661  -3.161  0.00  0.00    -0.050 A 
ATOM     13  C   UNL     1      -3.023   0.418  -2.728  0.00  0.00    +0.003 A 
ATOM     14  C   UNL     1      -2.780   0.020  -1.427  0.00  0.00    +0.004 A 
ATOM     15  C   UNL     1      -2.114   0.865  -0.559  0.00  0.00    -0.045 A 
ATOM     16  C   UNL     1      -1.849   0.431   0.860  0.00  0.00    +0.044 C 
ATOM     17  C   UNL     1      -2.864   2.094  -4.580  0.00  0.00    +0.044 C 
ENDBRANCH   7  10
BRANCH   1  18
ATOM     18  C   UNL     1       1.128   1.566  -0.095  0.00  0.00    +0.339 C 
ATOM     19  O   UNL     1       1.045   0.736  -0.981  0.00  0.00    -0.245 OA
BRANCH  18  20
ATOM     20  O   UNL     1       1.796   1.276   1.041  0.00  0.00    -0.462 OA
BRANCH  20  22
ATOM     21  C   UNL     1       3.071  -0.182   2.486  0.00  0.00    +0.048 C 
ATOM     22  C   UNL     1       2.475   0.019   1.091  0.00  0.00    +0.229 C 
ENDBRANCH  20  22
ENDBRANCH  18  20
ENDBRANCH   1  18
BRANCH   2  23
ATOM     23  C   UNL     1       2.737   3.767  -0.835  0.00  0.00    -0.029 C 
BRANCH  23  24
ATOM     24  N   UNL     1       3.036   4.009  -2.259  0.00  0.00    +0.386 N 
ATOM     25  H   UNL     1       2.739   4.959  -2.511  0.00  0.00    -0.085 HD
ATOM     26  H   UNL     1       2.526   3.327  -2.833  0.00  0.00    -0.085 HD
BRANCH  24  27
ATOM     27  C   UNL     1       4.483   3.870  -2.509  0.00  0.00    -0.073 C 
ATOM     28  C   UNL     1       5.252   4.886  -1.663  0.00  0.00    -0.010 C 
ATOM     29  C   UNL     1       4.935   2.455  -2.142  0.00  0.00    -0.010 C 
BRANCH  27  30
ATOM     30  C   UNL     1       4.763   4.126  -3.992  0.00  0.00    -0.007 C 
BRANCH  30  31
ATOM     31  C   UNL     1       3.650   3.501  -4.836  0.00  0.00    -0.039 C 
ATOM     32  C   UNL     1       2.336   4.238  -4.574  0.00  0.00    +0.010 C 
ATOM     33  C   UNL     1       4.011   3.612  -6.318  0.00  0.00    +0.010 C 
ATOM     34  C   UNL     1       3.491   2.026  -4.459  0.00  0.00    +0.010 C 
ENDBRANCH  30  31
ENDBRANCH  27  30
ENDBRANCH  24  27
ENDBRANCH  23  24
ENDBRANCH   2  23
TORSDOF 9
