REMARK  Name = ZINC38850179
REMARK  12 active torsions:
REMARK  status: ('A' for Active; 'I' for Inactive)
REMARK    1  A    between atoms: C_1  and  C_2
REMARK    2  A    between atoms: N_11  and  C_12
REMARK    3  A    between atoms: C_12  and  C_13
REMARK    4  A    between atoms: C_13  and  C_14
REMARK    5  A    between atoms: C_14  and  N_15
REMARK    6  A    between atoms: N_15  and  C_16
REMARK    7  A    between atoms: N_15  and  C_17
REMARK    8  A    between atoms: C_18  and  C_20
REMARK    9  A    between atoms: C_23  and  S_26
REMARK   10  A    between atoms: S_26  and  N_29
REMARK   11  A    between atoms: N_29  and  C_30
REMARK   12  A    between atoms: N_29  and  C_31
REMARK                            x       y       z     vdW  Elec       q    Type
REMARK                         _______ _______ _______ _____ _____    ______ ____
ROOT
ATOM      1  C   UNL     1       0.773   2.333   0.491  0.00  0.00    +0.047 C 
ATOM      2  C   UNL     1       0.698   0.844   0.271  0.00  0.00    -0.006 A 
ATOM      3  C   UNL     1       0.870   0.335  -0.991  0.00  0.00    +0.046 A 
ATOM      4  C   UNL     1       0.808  -1.029  -1.238  0.00  0.00    +0.021 A 
ATOM      5  C   UNL     1       0.567  -1.897  -0.188  0.00  0.00    +0.019 A 
ATOM      6  C   UNL     1       0.394  -1.397   1.078  0.00  0.00    +0.041 A 
ATOM      7  C   UNL     1       0.456  -0.014   1.368  0.00  0.00    +0.085 A 
ATOM      8  N   UNL     1       0.270   0.321   2.663  0.00  0.00    -0.224 NA
ATOM      9  C   UNL     1       0.051  -0.574   3.599  0.00  0.00    +0.168 A 
ATOM     10  S   UNL     1       0.074  -2.104   2.676  0.00  0.00    -0.052 S 
ATOM     11  N   UNL     1      -0.154  -0.380   4.955  0.00  0.00    -0.246 N 
ATOM     12  C   UNL     1      -0.143   0.867   5.466  0.00  0.00    +0.252 C 
ATOM     13  O   UNL     1      -0.027   1.826   4.728  0.00  0.00    -0.270 OA
ATOM     14 CL   UNL     1       1.171   1.423  -2.310  0.00  0.00    -0.083 Cl
ENDROOT
BRANCH  12  15
ATOM     15  C   UNL     1      -0.273   1.068   6.925  0.00  0.00    +0.037 A 
ATOM     16  C   UNL     1       0.375   0.207   7.812  0.00  0.00    +0.015 A 
ATOM     17  C   UNL     1       0.250   0.401   9.172  0.00  0.00    +0.029 A 
ATOM     18  C   UNL     1      -0.516   1.446   9.657  0.00  0.00    +0.106 A 
ATOM     19  C   UNL     1      -1.161   2.303   8.784  0.00  0.00    +0.029 A 
ATOM     20  C   UNL     1      -1.040   2.124   7.421  0.00  0.00    +0.015 A 
BRANCH  18  21
ATOM     21  S   UNL     1      -0.670   1.686  11.396  0.00  0.00    +0.061 S 
ATOM     22  O   UNL     1      -1.881   2.401  11.601  0.00  0.00    -0.153 OA
ATOM     23  O   UNL     1      -0.417   0.426  12.004  0.00  0.00    -0.153 OA
BRANCH  21  24
ATOM     24  N   UNL     1       0.559   2.692  11.863  0.00  0.00    -0.177 NA
ATOM     25  C   UNL     1       0.357   4.144  11.864  0.00  0.00    +0.132 C 
BRANCH  24  26
ATOM     26  C   UNL     1       1.848   2.132  12.274  0.00  0.00    +0.080 C 
ATOM     27  C   UNL     1       2.873   3.091  12.884  0.00  0.00    +0.022 C 
ATOM     28  C   UNL     1       3.085   2.542  11.472  0.00  0.00    +0.022 C 
ENDBRANCH  24  26
ENDBRANCH  21  24
ENDBRANCH  18  21
ENDBRANCH  12  15
BRANCH  11  29
ATOM     29  C   UNL     1      -0.383  -1.530   5.832  0.00  0.00    +0.114 C 
BRANCH  29  30
ATOM     30  C   UNL     1       0.935  -2.277   6.048  0.00  0.00    +0.001 C 
BRANCH  30  31
ATOM     31  C   UNL     1       0.730  -3.386   7.082  0.00  0.00    -0.078 C 
BRANCH  31  32
ATOM     32  N   UNL     1       1.995  -4.104   7.289  0.00  0.00    +0.376 N 
ATOM     33  C   UNL     1       2.982  -3.194   7.885  0.00  0.00    -0.097 C 
ATOM     34  C   UNL     1       1.771  -5.242   8.190  0.00  0.00    -0.097 C 
ATOM     35  H   UNL     1       2.340  -4.439   6.402  0.00  0.00    -0.083 HD
ENDBRANCH  31  32
ENDBRANCH  30  31
ENDBRANCH  29  30
ENDBRANCH  11  29
TORSDOF 8
