REMARK  Name = ZINC04682441
REMARK  9 active torsions:
REMARK  status: ('A' for Active; 'I' for Inactive)
REMARK    1  A    between atoms: C_1  and  O_2
REMARK    2  A    between atoms: O_2  and  C_3
REMARK    3  A    between atoms: C_6  and  N_9
REMARK    4  A    between atoms: C_13  and  N_48
REMARK    5  A    between atoms: C_17  and  C_18
REMARK    6  A    between atoms: C_17  and  N_48
REMARK    7  A    between atoms: C_18  and  C_19
REMARK    8  A    between atoms: C_22  and  S_25
REMARK    9  A    between atoms: S_25  and  N_28
REMARK                            x       y       z     vdW  Elec       q    Type
REMARK                         _______ _______ _______ _____ _____    ______ ____
ROOT
ATOM      1  N   UNL     1      -0.055   0.956   0.054  0.00  0.00    +0.387 N 
ATOM      2  H   UNL     1      -0.038  -0.069  -0.009  0.00  0.00    -0.085 HD
ATOM      3  H   UNL     1      -0.528   1.238   0.921  0.00  0.00    -0.085 HD
ENDROOT
BRANCH   1   8
ATOM      4  N   UNL     1      -1.816   0.140  -2.684  0.00  0.00    -0.212 N 
ATOM      5  C   UNL     1      -2.837   0.554  -1.924  0.00  0.00    +0.225 C 
ATOM      6  O   UNL     1      -4.000   0.250  -2.083  0.00  0.00    -0.275 OA
ATOM      7  C   UNL     1      -2.310   1.464  -0.836  0.00  0.00    +0.090 C 
ATOM      8  C   UNL     1      -0.791   1.503  -1.102  0.00  0.00    +0.026 C 
ATOM      9  C   UNL     1      -0.617   0.614  -2.314  0.00  0.00    +0.213 C 
ATOM     10  O   UNL     1       0.438   0.370  -2.860  0.00  0.00    -0.277 OA
BRANCH   4  14
ATOM     11  C   UNL     1      -2.321  -2.414  -5.945  0.00  0.00    +0.120 A 
ATOM     12  C   UNL     1      -1.919  -1.102  -6.147  0.00  0.00    +0.047 A 
ATOM     13  C   UNL     1      -1.752  -0.256  -5.069  0.00  0.00    +0.027 A 
ATOM     14  C   UNL     1      -1.986  -0.719  -3.781  0.00  0.00    +0.044 A 
ATOM     15  C   UNL     1      -2.383  -2.034  -3.579  0.00  0.00    +0.027 A 
ATOM     16  C   UNL     1      -2.556  -2.877  -4.659  0.00  0.00    +0.047 A 
BRANCH  11  18
ATOM     17  C   UNL     1      -2.901  -4.584  -6.725  0.00  0.00    +0.277 C 
ATOM     18  O   UNL     1      -2.485  -3.246  -7.007  0.00  0.00    -0.495 OA
ENDBRANCH  11  18
ENDBRANCH   4  14
ENDBRANCH   1   8
BRANCH   1  19
ATOM     19  C   UNL     1       1.329   1.466   0.067  0.00  0.00    -0.077 C 
BRANCH  19  20
ATOM     20  C   UNL     1       2.066   0.882   1.274  0.00  0.00    +0.016 C 
BRANCH  20  21
ATOM     21  C   UNL     1       3.482   1.398   1.295  0.00  0.00    -0.049 A 
ATOM     22  C   UNL     1       4.482   0.699   0.646  0.00  0.00    +0.005 A 
ATOM     23  C   UNL     1       5.780   1.175   0.661  0.00  0.00    +0.029 A 
ATOM     24  C   UNL     1       6.080   2.344   1.335  0.00  0.00    +0.105 A 
ATOM     25  C   UNL     1       5.081   3.041   1.989  0.00  0.00    +0.029 A 
ATOM     26  C   UNL     1       3.782   2.568   1.969  0.00  0.00    +0.005 A 
BRANCH  24  27
ATOM     27  S   UNL     1       7.735   2.947   1.360  0.00  0.00    +0.056 S 
ATOM     28  O   UNL     1       8.383   2.405   0.217  0.00  0.00    -0.153 OA
ATOM     29  O   UNL     1       7.655   4.345   1.599  0.00  0.00    -0.153 OA
BRANCH  27  30
ATOM     30  N   UNL     1       8.478   2.283   2.683  0.00  0.00    -0.204 NA
ATOM     31  H   UNL     1       7.985   1.683   3.266  0.00  0.00    +0.144 HD
ATOM     32  H   UNL     1       9.405   2.493   2.876  0.00  0.00    +0.144 HD
ENDBRANCH  27  30
ENDBRANCH  24  27
ENDBRANCH  20  21
ENDBRANCH  19  20
ENDBRANCH   1  19
TORSDOF 8
