REMARK  Name = ZINC65074643
REMARK  3 active torsions:
REMARK  status: ('A' for Active; 'I' for Inactive)
REMARK    1  A    between atoms: C_3  and  S_8
REMARK    2  A    between atoms: S_8  and  N_11
REMARK    3  A    between atoms: N_22  and  C_23
REMARK                            x       y       z     vdW  Elec       q    Type
REMARK                         _______ _______ _______ _____ _____    ______ ____
ROOT
ATOM      1  N   UNL     1       4.326   2.557   1.556  0.00  0.00    -0.176 NA
ATOM      2  C   UNL     1       3.871   3.749   2.285  0.00  0.00    +0.111 C 
ATOM      3  C   UNL     1       3.188   3.304   3.581  0.00  0.00    +0.047 C 
ATOM      4  C   UNL     1       4.143   2.410   4.377  0.00  0.00    +0.075 C 
ATOM      5  C   UNL     1       4.477   1.163   3.554  0.00  0.00    +0.047 C 
ATOM      6  C   UNL     1       5.171   1.581   2.259  0.00  0.00    +0.111 C 
ATOM      7  C   UNL     1       3.490   2.001   5.667  0.00  0.00    +0.089 C 
ATOM      8  N   UNL     1       4.093   2.001   6.796  0.00  0.00    -0.374 N 
ATOM      9  C   UNL     1       5.483   2.405   6.973  0.00  0.00    +0.129 C 
ATOM     10  C   UNL     1       6.205   2.408   5.624  0.00  0.00    +0.102 C 
ATOM     11  N   UNL     1       5.381   3.153   4.656  0.00  0.00    -0.303 NA
ATOM     12  N   UNL     1       2.179   1.608   5.633  0.00  0.00    -0.330 N 
ATOM     13  H   UNL     1       5.895   3.332   3.806  0.00  0.00    +0.123 HD
ATOM     14  H   UNL     1       1.697   1.599   4.791  0.00  0.00    +0.147 HD
ATOM     15  H   UNL     1       3.596   1.715   7.578  0.00  0.00    +0.161 HD
ENDROOT
BRANCH  12  16
ATOM     16  C   UNL     1       1.504   1.200   6.867  0.00  0.00    +0.071 C 
ATOM     17  C   UNL     1       1.723  -0.306   7.117  0.00  0.00    +0.022 C 
ATOM     18  C   UNL     1       0.377  -0.792   7.711  0.00  0.00    +0.002 C 
ATOM     19  C   UNL     1      -0.666   0.019   6.902  0.00  0.00    +0.002 C 
ATOM     20  C   UNL     1      -0.015   1.407   6.731  0.00  0.00    +0.022 C 
ENDBRANCH  12  16
BRANCH   1  21
ATOM     21  S   UNL     1       3.891   2.315  -0.023  0.00  0.00    +0.061 S 
ATOM     22  O   UNL     1       4.872   1.456  -0.588  0.00  0.00    -0.153 OA
ATOM     23  O   UNL     1       3.597   3.595  -0.564  0.00  0.00    -0.153 OA
BRANCH  21  26
ATOM     24  C   UNL     1      -0.017   1.380   0.010  0.00  0.00    +0.040 A 
ATOM     25  C   UNL     1       1.171   2.087   0.002  0.00  0.00    +0.031 A 
ATOM     26  C   UNL     1       2.377   1.412  -0.013  0.00  0.00    +0.106 A 
ATOM     27  C   UNL     1       2.397   0.030  -0.021  0.00  0.00    +0.031 A 
ATOM     28  C   UNL     1       1.211  -0.679  -0.014  0.00  0.00    +0.040 A 
ATOM     29  C   UNL     1       0.002  -0.004   0.002  0.00  0.00    +0.124 A 
ATOM     30  F   UNL     1      -1.158  -0.696   0.009  0.00  0.00    -0.205 F 
ENDBRANCH  21  26
ENDBRANCH   1  21
TORSDOF 3
