REMARK  Name = ZINC38768883
REMARK  6 active torsions:
REMARK  status: ('A' for Active; 'I' for Inactive)
REMARK    1  A    between atoms: C_4  and  O_7
REMARK    2  A    between atoms: O_7  and  C_8
REMARK    3  A    between atoms: C_8  and  C_9
REMARK    4  A    between atoms: N_11  and  C_12
REMARK    5  A    between atoms: C_12  and  C_13
REMARK    6  A    between atoms: C_13  and  C_14
REMARK                            x       y       z     vdW  Elec       q    Type
REMARK                         _______ _______ _______ _____ _____    ______ ____
ROOT
ATOM      1  C   UNL     1       7.833  -6.574  -0.112  0.00  0.00    +0.217 C 
ATOM      2  O   UNL     1       8.784  -5.821  -0.118  0.00  0.00    -0.276 OA
ATOM      3  N   UNL     1       8.029  -7.907  -0.121  0.00  0.00    -0.302 N 
ATOM      4  C   UNL     1       6.887  -8.832  -0.121  0.00  0.00    +0.106 C 
ATOM      5  C   UNL     1       7.051  -9.816   1.042  0.00  0.00    +0.009 C 
ATOM      6  C   UNL     1       8.415 -10.499   0.939  0.00  0.00    -0.037 C 
ATOM      7  C   UNL     1       9.526  -9.452   1.030  0.00  0.00    +0.009 C 
ATOM      8  C   UNL     1       9.388  -8.464  -0.138  0.00  0.00    +0.106 C 
ATOM      9  C   UNL     1       8.570 -11.513   2.073  0.00  0.00    +0.140 C 
ATOM     10  C   UNL     1       9.887 -12.235   1.806  0.00  0.00    +0.042 C 
ATOM     11  N   UNL     1      10.590 -12.091   2.861  0.00  0.00    -0.243 NA
ATOM     12  C   UNL     1       9.973 -11.294   3.769  0.00  0.00    +0.216 C 
ATOM     13  N   UNL     1       8.784 -10.886   3.378  0.00  0.00    -0.264 NA
ATOM     14  C   UNL     1      10.196 -12.835   0.458  0.00  0.00    +0.034 C 
ATOM     15  C   UNL     1       9.859 -11.744  -0.577  0.00  0.00    -0.076 C 
ATOM     16  N   UNL     1       8.514 -11.215  -0.341  0.00  0.00    +0.385 N 
ATOM     17  H   UNL     1       7.856 -11.980  -0.340  0.00  0.00    -0.085 HD
ATOM     18  H   UNL     1       8.275 -10.581  -1.089  0.00  0.00    -0.085 HD
ENDROOT
BRANCH   1  19
ATOM     19  C   UNL     1       6.432  -6.018  -0.095  0.00  0.00    +0.114 C 
BRANCH  19  20
ATOM     20  C   UNL     1       6.490  -4.489  -0.087  0.00  0.00    +0.113 C 
BRANCH  20  23
ATOM     21  C   UNL     1       4.932  -2.615  -0.061  0.00  0.00    +0.251 C 
ATOM     22  O   UNL     1       5.883  -1.863  -0.067  0.00  0.00    -0.272 OA
ATOM     23  N   UNL     1       5.128  -3.949  -0.070  0.00  0.00    -0.312 N 
ATOM     24  H   UNL     1       4.368  -4.551  -0.066  0.00  0.00    +0.149 HD
BRANCH  21  25
ATOM     25  C   UNL     1       3.531  -2.060  -0.044  0.00  0.00    +0.324 C 
BRANCH  25  26
ATOM     26  O   UNL     1       3.586  -0.632  -0.037  0.00  0.00    -0.483 OA
BRANCH  26  30
ATOM     27  C   UNL     1      -0.017   1.378   0.010  0.00  0.00    +0.000 A 
ATOM     28  C   UNL     1       1.170   2.088   0.002  0.00  0.00    +0.004 A 
ATOM     29  C   UNL     1       2.377   1.417  -0.013  0.00  0.00    +0.045 A 
ATOM     30  C   UNL     1       2.399   0.030  -0.021  0.00  0.00    +0.121 A 
ATOM     31  C   UNL     1       1.207  -0.680  -0.013  0.00  0.00    +0.045 A 
ATOM     32  C   UNL     1       0.002  -0.004   0.002  0.00  0.00    +0.004 A 
ENDBRANCH  26  30
ENDBRANCH  25  26
ENDBRANCH  21  25
ENDBRANCH  20  23
ENDBRANCH  19  20
ENDBRANCH   1  19
TORSDOF 6
