REMARK  Name = ZINC08443043
REMARK  8 active torsions:
REMARK  status: ('A' for Active; 'I' for Inactive)
REMARK    1  A    between atoms: C_1  and  C_2
REMARK    2  A    between atoms: C_2  and  C_4
REMARK    3  A    between atoms: C_2  and  N_17
REMARK    4  A    between atoms: N_17  and  C_18
REMARK    5  A    between atoms: C_20  and  N_27
REMARK    6  A    between atoms: C_23  and  N_24
REMARK    7  A    between atoms: N_30  and  S_33
REMARK    8  A    between atoms: S_33  and  C_36
REMARK                            x       y       z     vdW  Elec       q    Type
REMARK                         _______ _______ _______ _____ _____    ______ ____
ROOT
ATOM      1  C   UNL     1       1.088   1.645   0.033  0.00  0.00    +0.060 A 
ATOM      2  C   UNL     1      -0.182   1.083   0.022  0.00  0.00    +0.048 A 
ATOM      3  C   UNL     1      -1.300   1.904  -0.000  0.00  0.00    +0.032 A 
ATOM      4  C   UNL     1      -1.146   3.286  -0.002  0.00  0.00    +0.025 A 
ATOM      5  C   UNL     1       0.119   3.841   0.008  0.00  0.00    +0.036 A 
ATOM      6  C   UNL     1       1.234   3.027   0.025  0.00  0.00    +0.147 A 
ENDROOT
BRANCH   3   7
ATOM      7  N   UNL     1      -2.579   1.343  -0.016  0.00  0.00    -0.327 N 
ATOM      8  C   UNL     1      -2.733   0.417  -1.146  0.00  0.00    +0.122 C 
ATOM      9  C   UNL     1      -4.077  -0.311  -1.026  0.00  0.00    +0.128 C 
ATOM     10  N   UNL     1      -5.142   0.695  -0.896  0.00  0.00    -0.174 NA
ATOM     11  C   UNL     1      -4.991   1.741   0.126  0.00  0.00    +0.128 C 
ATOM     12  C   UNL     1      -3.612   2.388  -0.039  0.00  0.00    +0.122 C 
BRANCH  10  13
ATOM     13  S   UNL     1      -6.477   0.649  -1.875  0.00  0.00    +0.061 S 
ATOM     14  O   UNL     1      -6.611  -0.695  -2.317  0.00  0.00    -0.153 OA
ATOM     15  O   UNL     1      -7.513   1.330  -1.181  0.00  0.00    -0.153 OA
BRANCH  13  16
ATOM     16  C   UNL     1      -6.109   1.615  -3.303  0.00  0.00    +0.105 A 
ATOM     17  C   UNL     1      -6.404   2.965  -3.318  0.00  0.00    +0.028 A 
ATOM     18  C   UNL     1      -6.111   3.724  -4.436  0.00  0.00    +0.002 A 
ATOM     19  C   UNL     1      -5.533   3.130  -5.542  0.00  0.00    +0.000 A 
ATOM     20  C   UNL     1      -5.243   1.778  -5.529  0.00  0.00    +0.002 A 
ATOM     21  C   UNL     1      -5.532   1.021  -4.409  0.00  0.00    +0.028 A 
ENDBRANCH  13  16
ENDBRANCH  10  13
ENDBRANCH   3   7
BRANCH   6  22
ATOM     22  N   UNL     1       2.587   3.626   0.037  0.00  0.00    +0.058 N 
ATOM     23  O   UNL     1       2.718   4.832   0.143  0.00  0.00    -0.126 OA
ATOM     24  O   UNL     1       3.570   2.913  -0.060  0.00  0.00    -0.126 OA
ENDBRANCH   6  22
BRANCH   1  25
ATOM     25  N   UNL     1       2.216   0.822   0.050  0.00  0.00    -0.339 N 
ATOM     26  H   UNL     1       3.101   1.211  -0.029  0.00  0.00    +0.146 HD
BRANCH  25  28
ATOM     27  C   UNL     1       1.813  -1.247  -1.190  0.00  0.00    +0.028 C 
ATOM     28  C   UNL     1       2.063  -0.629   0.186  0.00  0.00    +0.074 C 
BRANCH  28  29
ATOM     29  C   UNL     1       3.338  -1.222   0.789  0.00  0.00    -0.010 C 
ATOM     30  C   UNL     1       4.524  -0.918  -0.129  0.00  0.00    +0.012 C 
ATOM     31  C   UNL     1       5.800  -1.511   0.473  0.00  0.00    -0.010 C 
ATOM     32  C   UNL     1       5.639  -3.026   0.616  0.00  0.00    +0.007 C 
ATOM     33  C   UNL     1       4.454  -3.330   1.534  0.00  0.00    -0.010 C 
ATOM     34  C   UNL     1       3.178  -2.736   0.931  0.00  0.00    +0.012 C 
ATOM     35  C   UNL     1       4.703  -2.711   2.911  0.00  0.00    +0.007 C 
ATOM     36  C   UNL     1       4.863  -1.196   2.768  0.00  0.00    -0.010 C 
ATOM     37  C   UNL     1       6.049  -0.893   1.850  0.00  0.00    +0.007 C 
ATOM     38  C   UNL     1       3.587  -0.603   2.166  0.00  0.00    +0.012 C 
ENDBRANCH  28  29
ENDBRANCH  25  28
ENDBRANCH   1  25
TORSDOF 7
