REMARK  Name = ZINC20189538
REMARK  9 active torsions:
REMARK  status: ('A' for Active; 'I' for Inactive)
REMARK    1  A    between atoms: C_1  and  C_2
REMARK    2  A    between atoms: C_5  and  C_21
REMARK    3  A    between atoms: C_7  and  S_8
REMARK    4  A    between atoms: S_8  and  N_11
REMARK    5  A    between atoms: N_11  and  C_12
REMARK    6  A    between atoms: C_13  and  C_20
REMARK    7  A    between atoms: C_15  and  C_19
REMARK    8  A    between atoms: C_17  and  C_18
REMARK    9  A    between atoms: C_21  and  N_22
REMARK                            x       y       z     vdW  Elec       q    Type
REMARK                         _______ _______ _______ _____ _____    ______ ____
ROOT
ATOM      1  S   UNL     1       4.582   0.694   0.131  0.00  0.00    +0.073 S 
ATOM      2  O   UNL     1       5.693  -0.190   0.070  0.00  0.00    -0.150 OA
ATOM      3  O   UNL     1       4.421   1.779  -0.772  0.00  0.00    -0.150 OA
ENDROOT
BRANCH   1  10
ATOM      4  C   UNL     1       2.515   2.662   1.134  0.00  0.00    +0.046 C 
ATOM      5  C   UNL     1       3.589   2.277   2.120  0.00  0.00    -0.024 A 
ATOM      6  C   UNL     1       3.581   2.815   3.394  0.00  0.00    +0.005 A 
ATOM      7  C   UNL     1       4.569   2.467   4.296  0.00  0.00    +0.002 A 
ATOM      8  C   UNL     1       5.561   1.578   3.927  0.00  0.00    -0.063 A 
ATOM      9  C   UNL     1       5.565   1.036   2.655  0.00  0.00    +0.030 A 
ATOM     10  C   UNL     1       4.577   1.384   1.752  0.00  0.00    +0.112 A 
BRANCH   8  11
ATOM     11  C   UNL     1       6.638   1.199   4.910  0.00  0.00    -0.051 C 
BRANCH  11  12
ATOM     12  N   UNL     1       7.767   2.130   4.783  0.00  0.00    +0.381 N 
ATOM     13  H   UNL     1       8.553   1.853   5.501  0.00  0.00    -0.090 HD
ATOM     14  H   UNL     1       7.423   3.154   4.992  0.00  0.00    -0.090 HD
ATOM     15  H   UNL     1       8.170   2.080   3.761  0.00  0.00    -0.090 HD
ENDBRANCH  11  12
ENDBRANCH   8  11
ENDBRANCH   1  10
BRANCH   1  16
ATOM     16  N   UNL     1       3.224  -0.242  -0.007  0.00  0.00    -0.216 N 
ATOM     17  H   UNL     1       2.417   0.056  -0.694  0.00  0.00    +0.174 HD
BRANCH  16  18
ATOM     18  C   UNL     1       3.101  -1.411   0.749  0.00  0.00    +0.054 A 
ATOM     19  C   UNL     1       2.155  -1.488   1.763  0.00  0.00    -0.028 A 
ATOM     20  C   UNL     1       2.036  -2.645   2.508  0.00  0.00    +0.008 A 
ATOM     21  C   UNL     1       2.857  -3.726   2.245  0.00  0.00    -0.050 A 
ATOM     22  C   UNL     1       3.800  -3.652   1.236  0.00  0.00    +0.008 A 
ATOM     23  C   UNL     1       3.924  -2.499   0.487  0.00  0.00    -0.028 A 
ATOM     24  C   UNL     1       4.952  -2.420  -0.612  0.00  0.00    +0.046 C 
ATOM     25  C   UNL     1       2.729  -4.984   3.064  0.00  0.00    +0.044 C 
ATOM     26  C   UNL     1       1.260  -0.310   2.051  0.00  0.00    +0.046 C 
ENDBRANCH  16  18
ENDBRANCH   1  16
TORSDOF 5
