REMARK  Name = ZINC48264760
REMARK  11 active torsions:
REMARK  status: ('A' for Active; 'I' for Inactive)
REMARK    1  A    between atoms: C_1  and  C_2
REMARK    2  A    between atoms: C_5  and  N_9
REMARK    3  A    between atoms: C_10  and  C_29
REMARK    4  A    between atoms: C_12  and  C_15
REMARK    5  A    between atoms: C_13  and  C_14
REMARK    6  A    between atoms: C_15  and  C_17
REMARK    7  A    between atoms: C_17  and  S_18
REMARK    8  A    between atoms: S_18  and  C_19
REMARK    9  A    between atoms: C_20  and  C_27
REMARK   10  A    between atoms: C_21  and  N_26
REMARK   11  A    between atoms: C_23  and  N_25
REMARK                            x       y       z     vdW  Elec       q    Type
REMARK                         _______ _______ _______ _____ _____    ______ ____
ROOT
ATOM      1  C   UNL     1       1.530  -7.432   0.619  0.00  0.00    +0.175 C 
ATOM      2  O   UNL     1       2.621  -7.288   1.130  0.00  0.00    -0.291 OA
ENDROOT
BRANCH   1   6
ATOM      3  N   UNL     1       0.058  -4.173  -0.023  0.00  0.00    -0.317 N 
ATOM      4  C   UNL     1      -0.949  -4.964  -0.503  0.00  0.00    +0.022 A 
ATOM      5  C   UNL     1      -0.603  -6.254  -0.359  0.00  0.00    +0.034 A 
ATOM      6  C   UNL     1       0.729  -6.260   0.261  0.00  0.00    +0.039 A 
ATOM      7  C   UNL     1       1.073  -4.932   0.434  0.00  0.00    +0.031 A 
ATOM      8  C   UNL     1       2.359  -4.422   1.032  0.00  0.00    +0.064 C 
ATOM      9  C   UNL     1      -2.241  -4.468  -1.098  0.00  0.00    +0.064 C 
BRANCH   3  14
ATOM     10  C   UNL     1      -0.018   1.503   0.010  0.00  0.00    +0.047 C 
ATOM     11  C   UNL     1       0.002  -0.004   0.002  0.00  0.00    -0.015 A 
ATOM     12  C   UNL     1       0.006  -0.688  -1.200  0.00  0.00    +0.008 A 
ATOM     13  C   UNL     1       0.024  -2.069  -1.211  0.00  0.00    +0.026 A 
ATOM     14  C   UNL     1       0.040  -2.772  -0.014  0.00  0.00    +0.049 A 
ATOM     15  C   UNL     1       0.036  -2.085   1.192  0.00  0.00    +0.064 A 
ATOM     16  C   UNL     1       0.023  -0.702   1.198  0.00  0.00    +0.128 A 
ATOM     17  F   UNL     1       0.025  -0.031   2.371  0.00  0.00    -0.205 F 
ENDBRANCH   3  14
ENDBRANCH   1   6
BRANCH   1  18
ATOM     18  C   UNL     1       1.000  -8.818   0.353  0.00  0.00    +0.155 C 
BRANCH  18  19
ATOM     19  S   UNL     1       2.215 -10.047   0.904  0.00  0.00    -0.097 S 
BRANCH  19  20
ATOM     20  C   UNL     1       1.457 -11.593   0.529  0.00  0.00    +0.119 A 
ATOM     21  C   UNL     1       2.127 -12.790   0.833  0.00  0.00    +0.104 A 
ATOM     22  C   UNL     1       1.502 -14.017   0.524  0.00  0.00    +0.048 A 
ATOM     23  C   UNL     1       0.245 -13.984  -0.069  0.00  0.00    +0.067 A 
ATOM     24  C   UNL     1      -0.350 -12.758  -0.336  0.00  0.00    +0.119 A 
ATOM     25  N   UNL     1       0.257 -11.618  -0.031  0.00  0.00    -0.225 NA
BRANCH  24  26
ATOM     26  N   UNL     1      -1.603 -12.724  -0.927  0.00  0.00    -0.343 N 
ATOM     27  H   UNL     1      -2.057 -13.552  -1.151  0.00  0.00    +0.144 HD
ATOM     28  H   UNL     1      -2.027 -11.872  -1.118  0.00  0.00    +0.144 HD
ENDBRANCH  24  26
BRANCH  22  29
ATOM     29  N   UNL     1       2.125 -15.223   0.804  0.00  0.00    -0.357 N 
ATOM     30  H   UNL     1       3.002 -15.232   1.218  0.00  0.00    +0.142 HD
ATOM     31  H   UNL     1       1.683 -16.059   0.587  0.00  0.00    +0.142 HD
ENDBRANCH  22  29
BRANCH  21  32
ATOM     32  C   UNL     1       3.422 -12.766   1.443  0.00  0.00    +0.104 C 
ATOM     33  N   UNL     1       4.450 -12.747   1.927  0.00  0.00    -0.191 NA
ENDBRANCH  21  32
ENDBRANCH  19  20
ENDBRANCH  18  19
ENDBRANCH   1  18
TORSDOF 8
