REMARK  Name = ZINC39666872
REMARK  10 active torsions:
REMARK  status: ('A' for Active; 'I' for Inactive)
REMARK    1  A    between atoms: C_1  and  C_2
REMARK    2  A    between atoms: C_2  and  C_3
REMARK    3  A    between atoms: C_3  and  C_4
REMARK    4  A    between atoms: C_3  and  C_6
REMARK    5  A    between atoms: C_4  and  C_5
REMARK    6  A    between atoms: C_6  and  N_7
REMARK    7  A    between atoms: C_8  and  C_10
REMARK    8  A    between atoms: C_21  and  C_23
REMARK    9  A    between atoms: C_26  and  O_29
REMARK   10  A    between atoms: O_29  and  C_30
REMARK                            x       y       z     vdW  Elec       q    Type
REMARK                         _______ _______ _______ _____ _____    ______ ____
ROOT
ATOM      1  C   UNL     1      -4.508  -4.199   0.094  0.00  0.00    +0.100 C 
ATOM      2  C   UNL     1      -4.576  -3.630  -1.341  0.00  0.00    +0.121 C 
ATOM      3  N   UNL     1      -4.992  -4.778  -2.179  0.00  0.00    -0.296 N 
ATOM      4  C   UNL     1      -5.998  -5.490  -1.356  0.00  0.00    +0.115 C 
ATOM      5  C   UNL     1      -5.446  -5.417   0.081  0.00  0.00    -0.004 C 
ATOM      6  C   UNL     1      -6.585  -5.218   1.076  0.00  0.00    -0.010 C 
ATOM      7  C   UNL     1      -7.471  -6.467   1.087  0.00  0.00    -0.082 C 
ATOM      8  N   UNL     1      -6.667  -7.637   1.461  0.00  0.00    +0.379 N 
ATOM      9  C   UNL     1      -5.630  -7.876   0.449  0.00  0.00    -0.082 C 
ATOM     10  C   UNL     1      -4.667  -6.687   0.411  0.00  0.00    -0.010 C 
ATOM     11  C   UNL     1      -4.554  -5.102  -3.412  0.00  0.00    +0.248 C 
ATOM     12  O   UNL     1      -4.571  -6.262  -3.778  0.00  0.00    -0.270 OA
ATOM     13  H   UNL     1      -6.230  -7.471   2.355  0.00  0.00    -0.086 HD
ATOM     14  H   UNL     1      -7.264  -8.447   1.527  0.00  0.00    -0.086 HD
ENDROOT
BRANCH  11  15
ATOM     15  C   UNL     1      -4.053  -4.050  -4.318  0.00  0.00    +0.055 A 
ATOM     16  C   UNL     1      -3.812  -4.330  -5.671  0.00  0.00    +0.020 A 
ATOM     17  C   UNL     1      -3.344  -3.314  -6.478  0.00  0.00    +0.068 A 
ATOM     18  C   UNL     1      -3.128  -2.054  -5.928  0.00  0.00    +0.220 A 
ATOM     19  N   UNL     1      -3.365  -1.820  -4.646  0.00  0.00    -0.220 NA
ATOM     20  C   UNL     1      -3.818  -2.759  -3.842  0.00  0.00    +0.127 A 
BRANCH  18  21
ATOM     21  O   UNL     1      -2.669  -1.051  -6.715  0.00  0.00    -0.438 OA
BRANCH  21  22
ATOM     22  C   UNL     1      -1.730  -0.214  -6.200  0.00  0.00    +0.130 A 
ATOM     23  C   UNL     1      -1.162  -0.484  -4.963  0.00  0.00    +0.046 A 
ATOM     24  C   UNL     1      -0.208   0.368  -4.442  0.00  0.00    +0.004 A 
ATOM     25  C   UNL     1       0.181   1.489  -5.152  0.00  0.00    +0.000 A 
ATOM     26  C   UNL     1      -0.383   1.760  -6.385  0.00  0.00    +0.004 A 
ATOM     27  C   UNL     1      -1.333   0.908  -6.913  0.00  0.00    +0.046 A 
ENDBRANCH  21  22
ENDBRANCH  18  21
ENDBRANCH  11  15
BRANCH   1  29
ATOM     28  N   UNL     1      -2.718  -4.749   1.711  0.00  0.00    -0.315 N 
ATOM     29  C   UNL     1      -3.100  -4.623   0.424  0.00  0.00    +0.218 C 
ATOM     30  O   UNL     1      -2.311  -4.852  -0.468  0.00  0.00    -0.275 OA
ATOM     31  H   UNL     1      -3.367  -4.637   2.423  0.00  0.00    +0.149 HD
BRANCH  28  32
ATOM     32  C   UNL     1      -1.322  -5.054   2.034  0.00  0.00    +0.107 C 
BRANCH  32  33
ATOM     33  C   UNL     1      -1.131  -5.019   3.551  0.00  0.00    +0.006 C 
BRANCH  33  35
ATOM     34  C   UNL     1      -1.860  -6.028   5.718  0.00  0.00    +0.004 C 
ATOM     35  C   UNL     1      -1.952  -6.139   4.195  0.00  0.00    +0.002 C 
ENDBRANCH  33  35
BRANCH  33  36
ATOM     36  C   UNL     1       0.350  -5.218   3.883  0.00  0.00    +0.002 C 
ATOM     37  C   UNL     1       1.163  -4.061   3.299  0.00  0.00    +0.004 C 
ENDBRANCH  33  36
ENDBRANCH  32  33
ENDBRANCH  28  32
ENDBRANCH   1  29
TORSDOF 8
