REMARK  Name = ZINC14052332
REMARK  6 active torsions:
REMARK  status: ('A' for Active; 'I' for Inactive)
REMARK    1  A    between atoms: C_1  and  C_2
REMARK    2  A    between atoms: C_5  and  N_8
REMARK    3  A    between atoms: C_9  and  C_29
REMARK    4  A    between atoms: C_11  and  C_16
REMARK    5  A    between atoms: N_18  and  N_19
REMARK    6  A    between atoms: C_20  and  C_22
REMARK                            x       y       z     vdW  Elec       q    Type
REMARK                         _______ _______ _______ _____ _____    ______ ____
ROOT
ATOM      1  N   UNL     1      -2.152  -0.527   0.969  0.00  0.00    -0.263 N 
ATOM      2  C   UNL     1      -1.149  -0.748  -0.079  0.00  0.00    +0.130 C 
ATOM      3  C   UNL     1      -1.945  -0.829  -1.401  0.00  0.00    +0.111 C 
ATOM      4  C   UNL     1      -3.334  -1.293  -0.904  0.00  0.00    +0.111 C 
ATOM      5  C   UNL     1      -3.387  -0.830   0.535  0.00  0.00    +0.221 C 
ATOM      6  O   UNL     1      -4.398  -0.745   1.200  0.00  0.00    -0.275 OA
ENDROOT
BRANCH   1  11
ATOM      7  C   UNL     1      -0.967   1.364   6.185  0.00  0.00    +0.044 C 
ATOM      8  C   UNL     1      -1.282   0.861   4.800  0.00  0.00    -0.050 A 
ATOM      9  C   UNL     1      -2.598   0.698   4.408  0.00  0.00    +0.005 A 
ATOM     10  C   UNL     1      -2.889   0.238   3.138  0.00  0.00    +0.024 A 
ATOM     11  C   UNL     1      -1.860  -0.061   2.256  0.00  0.00    +0.037 A 
ATOM     12  C   UNL     1      -0.539   0.098   2.655  0.00  0.00    +0.024 A 
ATOM     13  C   UNL     1      -0.254   0.565   3.923  0.00  0.00    +0.005 A 
ENDBRANCH   1  11
BRANCH   2  14
ATOM     14  C   UNL     1      -0.179   0.404  -0.124  0.00  0.00    +0.011 A 
ATOM     15  C   UNL     1       1.156   0.387  -0.358  0.00  0.00    +0.013 A 
ATOM     16  C   UNL     1       1.853   1.580  -0.351  0.00  0.00    +0.008 A 
ATOM     17  C   UNL     1       1.181   2.733  -0.111  0.00  0.00    +0.045 A 
ATOM     18  S   UNL     1      -0.489   2.145   0.117  0.00  0.00    -0.100 S 
ENDBRANCH   2  14
BRANCH   3  19
ATOM     19  C   UNL     1      -2.032   0.524  -2.060  0.00  0.00    +0.235 C 
ATOM     20  O   UNL     1      -2.911   1.297  -1.744  0.00  0.00    -0.274 OA
ATOM     21  N   UNL     1      -1.134   0.873  -3.002  0.00  0.00    -0.234 N 
ATOM     22  H   UNL     1      -0.431   0.255  -3.255  0.00  0.00    +0.173 HD
BRANCH  21  23
ATOM     23  N   UNL     1      -1.215   2.130  -3.615  0.00  0.00    -0.230 N 
ATOM     24  C   UNL     1      -0.317   2.480  -4.557  0.00  0.00    +0.260 C 
ATOM     25  O   UNL     1       0.565   1.705  -4.874  0.00  0.00    -0.269 OA
ATOM     26  H   UNL     1      -1.918   2.749  -3.362  0.00  0.00    +0.173 HD
BRANCH  24  27
ATOM     27  C   UNL     1      -0.402   3.805  -5.204  0.00  0.00    +0.038 A 
ATOM     28  C   UNL     1      -1.417   4.696  -4.845  0.00  0.00    +0.016 A 
ATOM     29  C   UNL     1      -1.489   5.933  -5.448  0.00  0.00    +0.039 A 
ATOM     30  C   UNL     1      -0.563   6.290  -6.416  0.00  0.00    +0.123 A 
ATOM     31  C   UNL     1       0.443   5.408  -6.780  0.00  0.00    +0.039 A 
ATOM     32  C   UNL     1       0.528   4.170  -6.180  0.00  0.00    +0.016 A 
ATOM     33  F   UNL     1      -0.641   7.503  -7.008  0.00  0.00    -0.205 F 
ENDBRANCH  24  27
ENDBRANCH  21  23
ENDBRANCH   3  19
TORSDOF 5
