REMARK  Name = ZINC08921739
REMARK  6 active torsions:
REMARK  status: ('A' for Active; 'I' for Inactive)
REMARK    1  A    between atoms: C_1  and  C_2
REMARK    2  A    between atoms: C_2  and  O_3
REMARK    3  A    between atoms: O_3  and  C_4
REMARK    4  A    between atoms: C_14  and  O_31
REMARK    5  A    between atoms: C_16  and  C_19
REMARK    6  A    between atoms: C_22  and  C_24
REMARK                            x       y       z     vdW  Elec       q    Type
REMARK                         _______ _______ _______ _____ _____    ______ ____
ROOT
ATOM      1  C   UNL     1      -4.052   6.975  -7.941  0.00  0.00    +0.403 C 
ATOM      2  O   UNL     1      -4.974   6.529  -8.593  0.00  0.00    -0.226 OA
ATOM      3  N   UNL     1      -4.299   7.707  -6.836  0.00  0.00    -0.262 N 
ATOM      4  C   UNL     1      -5.675   7.983  -6.396  0.00  0.00    +0.116 C 
ATOM      5  C   UNL     1      -5.921   7.323  -5.038  0.00  0.00    +0.056 C 
ATOM      6  C   UNL     1      -4.765   7.654  -4.101  0.00  0.00    -0.020 A 
ATOM      7  C   UNL     1      -3.569   8.063  -4.584  0.00  0.00    +0.013 A 
ATOM      8  S   UNL     1      -2.555   8.311  -3.151  0.00  0.00    -0.076 S 
ATOM      9  C   UNL     1      -3.691   7.883  -1.946  0.00  0.00    +0.080 A 
ATOM     10  C   UNL     1      -4.852   7.553  -2.655  0.00  0.00    +0.068 A 
ATOM     11  C   UNL     1      -6.038   7.139  -1.861  0.00  0.00    +0.220 C 
ATOM     12  N   UNL     1      -5.858   6.877  -0.595  0.00  0.00    -0.220 NA
ATOM     13  C   UNL     1      -4.567   6.896   0.082  0.00  0.00    +0.260 C 
ATOM     14  N   UNL     1      -3.624   7.821  -0.575  0.00  0.00    -0.311 N 
ATOM     15  C   UNL     1      -3.200   8.262  -6.023  0.00  0.00    +0.153 C 
ATOM     16  H   UNL     1      -2.992   8.354  -0.068  0.00  0.00    +0.149 HD
ENDROOT
BRANCH  13  17
ATOM     17  C   UNL     1      -3.984   5.507   0.069  0.00  0.00    +0.148 A 
ATOM     18  C   UNL     1      -4.689   4.359   0.070  0.00  0.00    +0.049 A 
ATOM     19  C   UNL     1      -3.757   3.302   0.056  0.00  0.00    +0.050 A 
ATOM     20  C   UNL     1      -2.522   3.869   0.046  0.00  0.00    +0.135 A 
ATOM     21  O   UNL     1      -2.675   5.207   0.061  0.00  0.00    -0.456 OA
BRANCH  20  22
ATOM     22  C   UNL     1      -1.234   3.144   0.030  0.00  0.00    +0.017 A 
ATOM     23  C   UNL     1      -1.217   1.748   0.017  0.00  0.00    +0.014 A 
ATOM     24  C   UNL     1      -0.013   1.076   0.008  0.00  0.00    +0.039 A 
ATOM     25  C   UNL     1       1.179   1.784   0.000  0.00  0.00    +0.123 A 
ATOM     26  C   UNL     1       1.167   3.169   0.007  0.00  0.00    +0.039 A 
ATOM     27  C   UNL     1      -0.031   3.852   0.022  0.00  0.00    +0.014 A 
ATOM     28  F   UNL     1       2.356   1.121  -0.014  0.00  0.00    -0.205 F 
ENDBRANCH  20  22
ENDBRANCH  13  17
BRANCH  11  29
ATOM     29  O   UNL     1      -7.262   7.038  -2.430  0.00  0.00    -0.492 OA
ATOM     30  H   UNL     1      -7.958   6.761  -1.819  0.00  0.00    +0.294 HD
ENDBRANCH  11  29
BRANCH   1  31
ATOM     31  O   UNL     1      -2.782   6.739  -8.321  0.00  0.00    -0.451 OA
BRANCH  31  33
ATOM     32  C   UNL     1      -1.093   5.782  -9.792  0.00  0.00    +0.048 C 
ATOM     33  C   UNL     1      -2.591   5.943  -9.520  0.00  0.00    +0.230 C 
ENDBRANCH  31  33
ENDBRANCH   1  31
TORSDOF 5
