REMARK  Name = ZINC59021973
REMARK  9 active torsions:
REMARK  status: ('A' for Active; 'I' for Inactive)
REMARK    1  A    between atoms: C_1  and  C_2
REMARK    2  A    between atoms: C_5  and  N_9
REMARK    3  A    between atoms: C_6  and  C_8
REMARK    4  A    between atoms: C_10  and  C_12
REMARK    5  A    between atoms: C_12  and  S_13
REMARK    6  A    between atoms: S_13  and  C_14
REMARK    7  A    between atoms: N_19  and  N_20
REMARK    8  A    between atoms: C_21  and  C_22
REMARK    9  A    between atoms: C_21  and  C_23
REMARK                            x       y       z     vdW  Elec       q    Type
REMARK                         _______ _______ _______ _____ _____    ______ ____
ROOT
ATOM      1  C   UNL     1      -2.771  -8.833  -3.067  0.00  0.00    +0.211 A 
ATOM      2  N   UNL     1      -2.290  -9.670  -3.993  0.00  0.00    -0.186 NA
ATOM      3  C   UNL     1      -2.046 -10.843  -3.446  0.00  0.00    +0.232 A 
ATOM      4  N   UNL     1      -2.374 -10.769  -2.139  0.00  0.00    -0.245 N 
ATOM      5  N   UNL     1      -2.834  -9.461  -1.917  0.00  0.00    -0.144 NA
ATOM      6  N   UNL     1      -1.543 -11.954  -4.097  0.00  0.00    -0.205 N 
ATOM      7  H   UNL     1      -1.397 -12.778  -3.607  0.00  0.00    +0.177 HD
ATOM      8  H   UNL     1      -2.302 -11.479  -1.481  0.00  0.00    +0.192 HD
ENDROOT
BRANCH   6   9
ATOM      9  N   UNL     1      -1.245 -11.890  -5.464  0.00  0.00    -0.184 NA
ATOM     10  C   UNL     1      -0.868 -12.960  -6.097  0.00  0.00    +0.063 C 
ATOM     11  C   UNL     1      -0.378 -12.860  -7.519  0.00  0.00    +0.068 C 
BRANCH  10  12
ATOM     12  C   UNL     1      -0.919 -14.270  -5.426  0.00  0.00    -0.002 A 
ATOM     13  C   UNL     1      -1.961 -14.552  -4.521  0.00  0.00    +0.010 A 
ATOM     14  C   UNL     1      -2.029 -15.751  -3.890  0.00  0.00    +0.009 A 
ATOM     15  C   UNL     1      -1.052 -16.733  -4.137  0.00  0.00    -0.018 A 
ATOM     16  C   UNL     1      -1.102 -17.982  -3.496  0.00  0.00    +0.008 A 
ATOM     17  C   UNL     1      -0.143 -18.913  -3.754  0.00  0.00    +0.001 A 
ATOM     18  C   UNL     1       0.893 -18.647  -4.647  0.00  0.00    +0.001 A 
ATOM     19  C   UNL     1       0.976 -17.449  -5.287  0.00  0.00    +0.008 A 
ATOM     20  C   UNL     1       0.003 -16.463  -5.046  0.00  0.00    -0.017 A 
ATOM     21  C   UNL     1       0.055 -15.219  -5.693  0.00  0.00    +0.018 A 
ENDBRANCH  10  12
ENDBRANCH   6   9
BRANCH   1  22
ATOM     22  S   UNL     1      -3.236  -7.157  -3.345  0.00  0.00    -0.075 S 
BRANCH  22  23
ATOM     23  C   UNL     1      -3.789  -6.579  -1.717  0.00  0.00    +0.173 C 
BRANCH  23  25
ATOM     24  N   UNL     1      -4.673  -4.494  -0.721  0.00  0.00    -0.285 N 
ATOM     25  C   UNL     1      -4.221  -5.138  -1.815  0.00  0.00    +0.227 C 
ATOM     26  O   UNL     1      -4.161  -4.559  -2.879  0.00  0.00    -0.275 OA
ATOM     27  H   UNL     1      -4.669  -4.940   0.140  0.00  0.00    +0.155 HD
BRANCH  24  32
ATOM     28  C   UNL     1      -6.604   0.822  -1.156  0.00  0.00    +0.044 C 
ATOM     29  C   UNL     1      -6.091  -0.590  -1.040  0.00  0.00    -0.050 A 
ATOM     30  C   UNL     1      -5.138  -1.053  -1.929  0.00  0.00    +0.005 A 
ATOM     31  C   UNL     1      -4.666  -2.346  -1.826  0.00  0.00    +0.024 A 
ATOM     32  C   UNL     1      -5.149  -3.183  -0.828  0.00  0.00    +0.036 A 
ATOM     33  C   UNL     1      -6.105  -2.715   0.063  0.00  0.00    -0.029 A 
ATOM     34  C   UNL     1      -6.570  -1.418  -0.042  0.00  0.00    +0.008 A 
ATOM     35  C   UNL     1      -6.632  -3.619   1.148  0.00  0.00    +0.045 C 
ENDBRANCH  24  32
ENDBRANCH  23  25
ENDBRANCH  22  23
ENDBRANCH   1  22
TORSDOF 6
