REMARK  Name = ZINC14162377
REMARK  6 active torsions:
REMARK  status: ('A' for Active; 'I' for Inactive)
REMARK    1  A    between atoms: C_1  and  C_2
REMARK    2  A    between atoms: C_2  and  O_3
REMARK    3  A    between atoms: O_3  and  C_4
REMARK    4  A    between atoms: C_4  and  C_6
REMARK    5  A    between atoms: C_7  and  N_36
REMARK    6  A    between atoms: C_27  and  C_29
REMARK                            x       y       z     vdW  Elec       q    Type
REMARK                         _______ _______ _______ _____ _____    ______ ____
ROOT
ATOM      1  C   UNL     1      -0.722  -1.456   4.433  0.00  0.00    +0.117 C 
ATOM      2  C   UNL     1      -1.269  -1.537   5.676  0.00  0.00    +0.195 C 
ATOM      3  O   UNL     1      -2.545  -1.192   5.899  0.00  0.00    -0.446 OA
ATOM      4  C   UNL     1      -3.186  -0.379   5.039  0.00  0.00    +0.115 C 
ATOM      5  C   UNL     1      -2.767  -0.232   3.769  0.00  0.00    +0.057 C 
ATOM      6  C   UNL     1      -1.547  -0.967   3.278  0.00  0.00    +0.142 C 
ATOM      7  C   UNL     1      -1.929  -2.092   2.373  0.00  0.00    +0.001 A 
ATOM      8  C   UNL     1      -2.672  -3.244   2.524  0.00  0.00    +0.045 A 
ATOM      9  C   UNL     1      -2.800  -4.066   1.404  0.00  0.00    +0.124 A 
ATOM     10  C   UNL     1      -2.213  -3.759   0.183  0.00  0.00    +0.044 A 
ATOM     11  C   UNL     1      -1.472  -2.612   0.030  0.00  0.00    -0.020 A 
ATOM     12  C   UNL     1      -1.350  -1.788   1.149  0.00  0.00    +0.045 A 
ATOM     13  N   UNL     1      -0.647  -0.584   1.184  0.00  0.00    -0.263 N 
ATOM     14  C   UNL     1      -0.712  -0.040   2.409  0.00  0.00    +0.240 C 
ATOM     15  O   UNL     1      -0.199   1.002   2.759  0.00  0.00    -0.274 OA
ATOM     16  C   UNL     1       0.026  -0.092  -0.025  0.00  0.00    +0.043 C 
ATOM     17  C   UNL     1       0.014   1.442  -0.048  0.00  0.00    +0.026 C 
ATOM     18  C   UNL     1       1.491   1.889  -0.062  0.00  0.00    +0.002 C 
ATOM     19  C   UNL     1       2.257   0.692   0.554  0.00  0.00    +0.002 C 
ATOM     20  C   UNL     1       1.500  -0.532  -0.019  0.00  0.00    +0.026 C 
ATOM     21  C   UNL     1      -0.682  -0.645  -1.262  0.00  0.00    +0.034 C 
ATOM     22  C   UNL     1      -0.783  -2.173  -1.229  0.00  0.00    +0.020 C 
ATOM     23  C   UNL     1      -1.583  -2.655  -2.441  0.00  0.00    +0.012 C 
ATOM     24  F   UNL     1      -3.524  -5.202   1.511  0.00  0.00    -0.205 F 
ATOM     25  C   UNL     1      -3.449   0.606   2.865  0.00  0.00    +0.164 C 
ATOM     26  O   UNL     1      -3.034   0.722   1.730  0.00  0.00    -0.292 OA
ATOM     27  C   UNL     1      -4.683   1.360   3.281  0.00  0.00    +0.080 C 
ATOM     28  C   UNL     1      -5.387   0.583   4.397  0.00  0.00    +0.016 C 
ATOM     29  C   UNL     1      -4.395   0.375   5.543  0.00  0.00    +0.075 C 
ENDROOT
BRANCH   2  30
ATOM     30  N   UNL     1      -0.500  -1.979   6.719  0.00  0.00    -0.329 N 
ATOM     31  H   UNL     1       0.444  -2.158   6.585  0.00  0.00    +0.145 HD
ATOM     32  H   UNL     1      -0.900  -2.112   7.593  0.00  0.00    +0.145 HD
ENDBRANCH   2  30
BRANCH   1  33
ATOM     33  C   UNL     1       0.615  -1.829   4.231  0.00  0.00    +0.342 C 
ATOM     34  O   UNL     1       0.878  -2.916   3.748  0.00  0.00    -0.245 OA
BRANCH  33  35
ATOM     35  O   UNL     1       1.612  -0.984   4.571  0.00  0.00    -0.462 OA
BRANCH  35  37
ATOM     36  C   UNL     1       3.936  -0.360   4.796  0.00  0.00    +0.048 C 
ATOM     37  C   UNL     1       2.943  -1.379   4.234  0.00  0.00    +0.229 C 
ENDBRANCH  35  37
ENDBRANCH  33  35
ENDBRANCH   1  33
TORSDOF 4
