REMARK  Name = ZINC39682369
REMARK  6 active torsions:
REMARK  status: ('A' for Active; 'I' for Inactive)
REMARK    1  A    between atoms: C_4  and  C_7
REMARK    2  A    between atoms: C_7  and  C_9
REMARK    3  A    between atoms: C_7  and  N_13
REMARK    4  A    between atoms: C_9  and  C_10
REMARK    5  A    between atoms: C_14  and  C_16
REMARK    6  A    between atoms: C_27  and  C_29
REMARK                            x       y       z     vdW  Elec       q    Type
REMARK                         _______ _______ _______ _____ _____    ______ ____
ROOT
ATOM      1  C   UNL     1       4.644  -2.990  -3.198  0.00  0.00    +0.100 C 
ATOM      2  C   UNL     1       4.154  -3.938  -2.081  0.00  0.00    +0.121 C 
ATOM      3  N   UNL     1       4.952  -5.174  -2.262  0.00  0.00    -0.296 N 
ATOM      4  C   UNL     1       6.308  -4.688  -2.613  0.00  0.00    +0.115 C 
ATOM      5  C   UNL     1       6.059  -3.485  -3.544  0.00  0.00    -0.004 C 
ATOM      6  C   UNL     1       6.122  -3.925  -5.004  0.00  0.00    -0.010 C 
ATOM      7  C   UNL     1       7.551  -4.359  -5.340  0.00  0.00    -0.082 C 
ATOM      8  N   UNL     1       8.473  -3.241  -5.104  0.00  0.00    +0.379 N 
ATOM      9  C   UNL     1       8.475  -2.885  -3.680  0.00  0.00    -0.082 C 
ATOM     10  C   UNL     1       7.084  -2.388  -3.274  0.00  0.00    -0.010 C 
ATOM     11  C   UNL     1       4.539  -6.450  -2.135  0.00  0.00    +0.250 C 
ATOM     12  O   UNL     1       5.341  -7.360  -2.220  0.00  0.00    -0.270 OA
ATOM     13  H   UNL     1       9.404  -3.510  -5.383  0.00  0.00    -0.086 HD
ATOM     14  H   UNL     1       8.178  -2.444  -5.648  0.00  0.00    -0.086 HD
ENDROOT
BRANCH  11  15
ATOM     15  C   UNL     1       3.111  -6.744  -1.893  0.00  0.00    +0.074 A 
ATOM     16  C   UNL     1       2.337  -5.899  -1.089  0.00  0.00    +0.017 A 
ATOM     17  C   UNL     1       1.005  -6.218  -0.894  0.00  0.00    +0.021 A 
ATOM     18  C   UNL     1       0.484  -7.351  -1.494  0.00  0.00    +0.112 A 
ATOM     19  N   UNL     1       1.237  -8.130  -2.248  0.00  0.00    -0.243 NA
ATOM     20  C   UNL     1       2.509  -7.866  -2.468  0.00  0.00    +0.141 A 
ATOM     21 CL   UNL     1       3.446  -8.925  -3.475  0.00  0.00    -0.061 Cl
ENDBRANCH  11  15
BRANCH   1  23
ATOM     22  N   UNL     1       4.527  -0.545  -3.556  0.00  0.00    -0.308 N 
ATOM     23  C   UNL     1       4.694  -1.570  -2.696  0.00  0.00    +0.219 C 
ATOM     24  O   UNL     1       4.884  -1.349  -1.519  0.00  0.00    -0.275 OA
ATOM     25  H   UNL     1       4.449  -0.718  -4.507  0.00  0.00    +0.149 HD
BRANCH  22  26
ATOM     26  C   UNL     1       4.464   0.830  -3.053  0.00  0.00    +0.114 C 
BRANCH  26  30
ATOM     27  C   UNL     1       5.654   3.530  -6.143  0.00  0.00    +0.000 A 
ATOM     28  C   UNL     1       6.059   3.749  -4.839  0.00  0.00    +0.000 A 
ATOM     29  C   UNL     1       5.674   2.875  -3.840  0.00  0.00    +0.005 A 
ATOM     30  C   UNL     1       4.883   1.783  -4.143  0.00  0.00    -0.027 A 
ATOM     31  C   UNL     1       4.477   1.564  -5.446  0.00  0.00    +0.005 A 
ATOM     32  C   UNL     1       4.863   2.437  -6.446  0.00  0.00    +0.000 A 
ENDBRANCH  26  30
BRANCH  26  33
ATOM     33  C   UNL     1       3.032   1.149  -2.619  0.00  0.00    +0.152 C 
BRANCH  33  34
ATOM     34  C   UNL     1       2.999   2.499  -1.951  0.00  0.00    +0.358 C 
ATOM     35  O   UNL     1       4.040   3.089  -1.717  0.00  0.00    -0.246 OA
ATOM     36  O   UNL     1       1.931   3.001  -1.645  0.00  0.00    -0.246 OA
ENDBRANCH  33  34
ENDBRANCH  26  33
ENDBRANCH  22  26
ENDBRANCH   1  23
TORSDOF 6
