REMARK  Name = ZINC43366516
REMARK  9 active torsions:
REMARK  status: ('A' for Active; 'I' for Inactive)
REMARK    1  A    between atoms: C_1  and  C_2
REMARK    2  A    between atoms: C_2  and  C_3
REMARK    3  A    between atoms: C_3  and  C_5
REMARK    4  A    between atoms: C_3  and  N_23
REMARK    5  A    between atoms: C_5  and  C_7
REMARK    6  A    between atoms: C_5  and  O_13
REMARK    7  A    between atoms: C_10  and  C_12
REMARK    8  A    between atoms: O_13  and  C_14
REMARK    9  A    between atoms: C_19  and  C_20
REMARK                            x       y       z     vdW  Elec       q    Type
REMARK                         _______ _______ _______ _____ _____    ______ ____
ROOT
ATOM      1  C   UNL     1       0.838  -2.095  -1.219  0.00  0.00    +0.225 C 
ENDROOT
BRANCH   1   2
ATOM      2  C   UNL     1       1.419  -2.827  -2.402  0.00  0.00    +0.144 A 
ATOM      3  C   UNL     1       0.720  -3.339  -3.430  0.00  0.00    +0.049 A 
ATOM      4  C   UNL     1       1.657  -3.934  -4.306  0.00  0.00    +0.045 A 
ATOM      5  C   UNL     1       2.872  -3.749  -3.761  0.00  0.00    +0.102 A 
ATOM      6  O   UNL     1       2.723  -3.073  -2.610  0.00  0.00    -0.461 OA
ATOM      7  C   UNL     1       4.181  -4.217  -4.344  0.00  0.00    +0.086 C 
ENDBRANCH   1   2
BRANCH   1   8
ATOM      8  C   UNL     1       0.879  -0.588  -1.482  0.00  0.00    -0.026 C 
BRANCH   8   9
ATOM      9  N   UNL     1       0.093  -0.279  -2.684  0.00  0.00    +0.383 N 
ATOM     10  H   UNL     1       0.120   0.715  -2.857  0.00  0.00    -0.089 HD
ATOM     11  H   UNL     1       0.482  -0.769  -3.475  0.00  0.00    -0.089 HD
ATOM     12  H   UNL     1      -0.863  -0.570  -2.544  0.00  0.00    -0.089 HD
ENDBRANCH   8   9
BRANCH   8  14
ATOM     13  C   UNL     1       0.444   1.663  -0.489  0.00  0.00    +0.002 C 
ATOM     14  C   UNL     1       0.290   0.155  -0.281  0.00  0.00    -0.016 C 
ENDBRANCH   8  14
ENDBRANCH   1   8
BRANCH   1  15
ATOM     15  O   UNL     1       1.603  -2.395  -0.050  0.00  0.00    -0.482 OA
BRANCH  15  16
ATOM     16  C   UNL     1       0.922  -2.521   1.116  0.00  0.00    +0.134 A 
ATOM     17  C   UNL     1      -0.459  -2.391   1.134  0.00  0.00    +0.046 A 
ATOM     18  C   UNL     1      -1.150  -2.518   2.322  0.00  0.00    +0.004 A 
ATOM     19  C   UNL     1      -0.473  -2.776   3.503  0.00  0.00    +0.001 A 
ATOM     20  C   UNL     1       0.898  -2.908   3.504  0.00  0.00    +0.017 A 
ATOM     21  C   UNL     1       1.610  -2.787   2.308  0.00  0.00    +0.078 A 
BRANCH  21  22
ATOM     22  C   UNL     1       3.078  -2.933   2.300  0.00  0.00    +0.245 C 
ATOM     23  O   UNL     1       3.695  -2.822   1.258  0.00  0.00    -0.270 OA
ATOM     24  N   UNL     1       3.736  -3.190   3.448  0.00  0.00    -0.325 N 
ATOM     25  H   UNL     1       3.244  -3.279   4.280  0.00  0.00    +0.145 HD
ATOM     26  H   UNL     1       4.701  -3.286   3.443  0.00  0.00    +0.145 HD
ENDBRANCH  21  22
ENDBRANCH  15  16
ENDBRANCH   1  15
TORSDOF 7
