REMARK  Name = ZINC01683009
REMARK  4 active torsions:
REMARK  status: ('A' for Active; 'I' for Inactive)
REMARK    1  A    between atoms: C_1  and  N_2
REMARK    2  A    between atoms: C_10  and  C_11
REMARK    3  A    between atoms: C_17  and  N_27
REMARK    4  A    between atoms: C_19  and  C_21
REMARK                            x       y       z     vdW  Elec       q    Type
REMARK                         _______ _______ _______ _____ _____    ______ ____
ROOT
ATOM      1  C   UNL     1       2.453  -2.566  -0.019  0.00  0.00    +0.146 A 
ATOM      2  C   UNL     1       3.676  -1.851  -0.017  0.00  0.00    +0.148 A 
ATOM      3  N   UNL     1       3.677  -0.530  -0.025  0.00  0.00    -0.209 NA
ATOM      4  C   UNL     1       2.516   0.133  -0.035  0.00  0.00    +0.186 A 
ATOM      5  C   UNL     1       1.293  -0.587  -0.037  0.00  0.00    +0.148 A 
ATOM      6  N   UNL     1       1.300  -1.917  -0.029  0.00  0.00    -0.234 NA
ATOM      7  C   UNL     1       0.080   0.151  -0.049  0.00  0.00    +0.148 A 
ATOM      8  N   UNL     1       0.148   1.474  -0.057  0.00  0.00    -0.211 NA
ATOM      9  C   UNL     1       1.318   2.107  -0.054  0.00  0.00    +0.164 A 
ATOM     10  N   UNL     1       2.475   1.470  -0.044  0.00  0.00    -0.206 NA
ATOM     11  N   UNL     1       4.873  -2.538  -0.005  0.00  0.00    -0.341 N 
ATOM     12  H   UNL     1       4.878  -3.506  -0.079  0.00  0.00    +0.144 HD
ATOM     13  H   UNL     1       5.710  -2.054   0.076  0.00  0.00    +0.144 HD
ENDROOT
BRANCH   1  23
ATOM     14  C   UNL     1      -0.028  -4.385   0.259  0.00  0.00    +0.151 C 
ATOM     15  N   UNL     1       1.358  -4.839   0.113  0.00  0.00    -0.325 N 
ATOM     16  C   UNL     1       1.791  -6.149   0.073  0.00  0.00    +0.069 A 
ATOM     17  C   UNL     1       1.150  -7.379   0.147  0.00  0.00    +0.028 A 
ATOM     18  C   UNL     1       1.890  -8.540   0.080  0.00  0.00    +0.002 A 
ATOM     19  C   UNL     1       3.270  -8.488  -0.062  0.00  0.00    +0.002 A 
ATOM     20  C   UNL     1       3.919  -7.289  -0.137  0.00  0.00    +0.030 A 
ATOM     21  C   UNL     1       3.189  -6.096  -0.070  0.00  0.00    +0.090 A 
ATOM     22  N   UNL     1       3.538  -4.789  -0.115  0.00  0.00    -0.226 NA
ATOM     23  C   UNL     1       2.465  -4.043  -0.011  0.00  0.00    +0.163 A 
ENDBRANCH   1  23
BRANCH   9  24
ATOM     24  C   UNL     1       1.323   3.590  -0.064  0.00  0.00    +0.019 A 
ATOM     25  C   UNL     1       2.531   4.286  -0.056  0.00  0.00    +0.011 A 
ATOM     26  C   UNL     1       2.529   5.665  -0.071  0.00  0.00    +0.001 A 
ATOM     27  C   UNL     1       1.332   6.358  -0.082  0.00  0.00    +0.000 A 
ATOM     28  C   UNL     1       0.130   5.673  -0.084  0.00  0.00    +0.001 A 
ATOM     29  C   UNL     1       0.119   4.293  -0.075  0.00  0.00    +0.011 A 
ENDBRANCH   9  24
BRANCH   7  30
ATOM     30  N   UNL     1      -1.138  -0.494  -0.052  0.00  0.00    -0.341 N 
ATOM     31  H   UNL     1      -1.959   0.021  -0.060  0.00  0.00    +0.144 HD
ATOM     32  H   UNL     1      -1.173  -1.463  -0.046  0.00  0.00    +0.144 HD
ENDBRANCH   7  30
TORSDOF 3
