REMARK  Name = ZINC23081683
REMARK  8 active torsions:
REMARK  status: ('A' for Active; 'I' for Inactive)
REMARK    1  A    between atoms: C_3  and  N_15
REMARK    2  A    between atoms: C_5  and  S_7
REMARK    3  A    between atoms: S_7  and  N_10
REMARK    4  A    between atoms: C_16  and  C_18
REMARK    5  A    between atoms: C_18  and  O_19
REMARK    6  A    between atoms: O_19  and  C_20
REMARK    7  A    between atoms: C_20  and  C_22
REMARK    8  A    between atoms: C_26  and  N_31
REMARK                            x       y       z     vdW  Elec       q    Type
REMARK                         _______ _______ _______ _____ _____    ______ ____
ROOT
ATOM      1  N   UNL     1      -2.344  -1.404   4.356  0.00  0.00    -0.283 N 
ATOM      2  C   UNL     1      -2.325  -1.906   5.607  0.00  0.00    +0.255 C 
ATOM      3  O   UNL     1      -1.268  -2.074   6.177  0.00  0.00    -0.272 OA
ATOM      4  H   UNL     1      -3.303  -1.169   3.872  0.00  0.00    +0.155 HD
ENDROOT
BRANCH   1   7
ATOM      5  C   UNL     1       0.153   0.098   2.114  0.00  0.00    +0.004 A 
ATOM      6  C   UNL     1      -1.034  -0.119   2.786  0.00  0.00    +0.023 A 
ATOM      7  C   UNL     1      -1.143  -1.181   3.674  0.00  0.00    +0.035 A 
ATOM      8  C   UNL     1      -0.057  -2.022   3.883  0.00  0.00    +0.051 A 
ATOM      9  C   UNL     1       1.127  -1.799   3.208  0.00  0.00    +0.107 A 
ATOM     10  C   UNL     1       1.234  -0.737   2.328  0.00  0.00    +0.028 A 
BRANCH   9  11
ATOM     11  S   UNL     1       2.505  -2.865   3.473  0.00  0.00    +0.061 S 
ATOM     12  O   UNL     1       2.324  -3.451   4.754  0.00  0.00    -0.153 OA
ATOM     13  O   UNL     1       3.666  -2.119   3.133  0.00  0.00    -0.153 OA
BRANCH  11  14
ATOM     14  N   UNL     1       2.392  -4.095   2.369  0.00  0.00    -0.177 NA
ATOM     15  C   UNL     1       1.696  -5.372   2.578  0.00  0.00    +0.109 C 
ATOM     16  C   UNL     1       1.877  -6.209   1.294  0.00  0.00    +0.018 C 
ATOM     17  C   UNL     1       3.147  -5.589   0.655  0.00  0.00    +0.018 C 
ATOM     18  C   UNL     1       2.979  -4.092   1.017  0.00  0.00    +0.109 C 
ENDBRANCH  11  14
ENDBRANCH   9  11
ENDBRANCH   1   7
BRANCH   2  19
ATOM     19  C   UNL     1      -3.618  -2.257   6.298  0.00  0.00    +0.328 C 
BRANCH  19  20
ATOM     20  O   UNL     1      -3.333  -2.774   7.624  0.00  0.00    -0.451 OA
BRANCH  20  21
ATOM     21  C   UNL     1      -4.389  -3.138   8.380  0.00  0.00    +0.346 C 
ATOM     22  O   UNL     1      -5.517  -3.026   7.941  0.00  0.00    -0.244 OA
BRANCH  21  23
ATOM     23  C   UNL     1      -4.176  -3.669   9.732  0.00  0.00    +0.097 A 
ATOM     24  C   UNL     1      -5.104  -4.085  10.635  0.00  0.00    +0.031 A 
ATOM     25  C   UNL     1      -4.695  -4.567  11.891  0.00  0.00    -0.008 A 
ATOM     26  C   UNL     1      -5.504  -5.040  12.956  0.00  0.00    +0.041 A 
ATOM     27  C   UNL     1      -4.943  -5.474  14.114  0.00  0.00    +0.127 A 
ATOM     28  C   UNL     1      -3.566  -5.472  14.303  0.00  0.00    +0.034 A 
ATOM     29  C   UNL     1      -2.742  -5.019  13.292  0.00  0.00    +0.018 A 
ATOM     30  C   UNL     1      -3.297  -4.576  12.110  0.00  0.00    +0.020 A 
ATOM     31  S   UNL     1      -2.636  -3.936  10.592  0.00  0.00    -0.082 S 
BRANCH  27  32
ATOM     32  N   UNL     1      -5.819  -5.962  15.203  0.00  0.00    +0.056 N 
ATOM     33  O   UNL     1      -5.332  -6.354  16.247  0.00  0.00    -0.126 OA
ATOM     34  O   UNL     1      -7.028  -5.970  15.053  0.00  0.00    -0.126 OA
ENDBRANCH  27  32
ENDBRANCH  21  23
ENDBRANCH  20  21
ENDBRANCH  19  20
ENDBRANCH   2  19
TORSDOF 8
