REMARK  Name = ZINC08734755
REMARK  13 active torsions:
REMARK  status: ('A' for Active; 'I' for Inactive)
REMARK    1  A    between atoms: C_1  and  C_2
REMARK    2  A    between atoms: C_2  and  N_3
REMARK    3  A    between atoms: N_3  and  C_4
REMARK    4  A    between atoms: N_3  and  S_6
REMARK    5  A    between atoms: C_4  and  C_5
REMARK    6  A    between atoms: S_6  and  C_9
REMARK    7  A    between atoms: C_12  and  C_15
REMARK    8  A    between atoms: C_15  and  C_17
REMARK    9  A    between atoms: C_15  and  N_69
REMARK   10  A    between atoms: C_18  and  C_19
REMARK   11  A    between atoms: C_18  and  N_69
REMARK   12  A    between atoms: N_21  and  C_22
REMARK   13  A    between atoms: N_21  and  C_27
REMARK                            x       y       z     vdW  Elec       q    Type
REMARK                         _______ _______ _______ _____ _____    ______ ____
ROOT
ATOM      1  N   UNL     1      -0.027   1.471   0.010  0.00  0.00    +0.389 N 
ATOM      2  H   UNL     1      -0.528   1.804  -0.822  0.00  0.00    -0.084 HD
ATOM      3  H   UNL     1      -0.511   1.795   0.855  0.00  0.00    -0.084 HD
ENDROOT
BRANCH   1   4
ATOM      4  C   UNL     1       1.346   2.010  -0.002  0.00  0.00    -0.043 C 
ATOM      5  C   UNL     1       1.851   2.090  -1.443  0.00  0.00    -0.009 C 
BRANCH   4   9
ATOM      6  C   UNL     1       1.331   5.919   1.722  0.00  0.00    +0.105 A 
ATOM      7  C   UNL     1       2.366   5.045   1.999  0.00  0.00    +0.029 A 
ATOM      8  C   UNL     1       2.371   3.780   1.442  0.00  0.00    +0.004 A 
ATOM      9  C   UNL     1       1.341   3.389   0.607  0.00  0.00    -0.062 A 
ATOM     10  C   UNL     1       0.309   4.265   0.324  0.00  0.00    +0.004 A 
ATOM     11  C   UNL     1       0.302   5.528   0.886  0.00  0.00    +0.029 A 
BRANCH   6  12
ATOM     12  S   UNL     1       1.325   7.531   2.433  0.00  0.00    +0.061 S 
ATOM     13  O   UNL     1      -0.029   7.961   2.452  0.00  0.00    -0.153 OA
ATOM     14  O   UNL     1       2.119   7.459   3.609  0.00  0.00    -0.153 OA
BRANCH  12  15
ATOM     15  N   UNL     1       2.125   8.532   1.383  0.00  0.00    -0.177 NA
BRANCH  15  17
ATOM     16  C   UNL     1       1.014  10.634   0.811  0.00  0.00    +0.022 C 
ATOM     17  C   UNL     1       1.385   9.230   0.329  0.00  0.00    +0.106 C 
ENDBRANCH  15  17
BRANCH  15  18
ATOM     18  C   UNL     1       3.573   8.719   1.509  0.00  0.00    +0.106 C 
ATOM     19  C   UNL     1       4.295   7.755   0.565  0.00  0.00    +0.022 C 
ENDBRANCH  15  18
ENDBRANCH  12  15
ENDBRANCH   6  12
ENDBRANCH   4   9
ENDBRANCH   1   4
BRANCH   1  20
ATOM     20  C   UNL     1       0.002  -0.004   0.001  0.00  0.00    +0.016 C 
BRANCH  20  21
ATOM     21  C   UNL     1      -1.412  -0.526   0.013  0.00  0.00    +0.199 C 
ATOM     22  O   UNL     1      -2.342   0.245   0.119  0.00  0.00    -0.278 OA
ATOM     23  N   UNL     1      -1.643  -1.849  -0.094  0.00  0.00    -0.295 N 
BRANCH  23  24
ATOM     24  C   UNL     1      -3.017  -2.348  -0.194  0.00  0.00    +0.099 C 
ATOM     25  C   UNL     1      -3.705  -1.728  -1.422  0.00  0.00    +0.046 C 
ATOM     26  C   UNL     1      -5.229  -1.989  -1.359  0.00  0.00    +0.168 C 
ATOM     27  S   UNL     1      -5.545  -2.107   0.449  0.00  0.00    -0.029 S 
ATOM     28  O   UNL     1      -6.015  -3.414   0.751  0.00  0.00    -0.174 OA
ATOM     29  O   UNL     1      -6.302  -0.978   0.862  0.00  0.00    -0.174 OA
ATOM     30  C   UNL     1      -3.820  -1.933   1.072  0.00  0.00    +0.188 C 
ENDBRANCH  23  24
BRANCH  23  31
ATOM     31  C   UNL     1      -0.519  -2.790  -0.110  0.00  0.00    +0.076 C 
ATOM     32  C   UNL     1      -0.488  -3.553  -1.450  0.00  0.00    +0.022 C 
ATOM     33  C   UNL     1      -0.045  -4.985  -1.062  0.00  0.00    +0.002 C 
ATOM     34  C   UNL     1      -0.774  -5.215   0.285  0.00  0.00    +0.002 C 
ATOM     35  C   UNL     1      -0.701  -3.846   0.994  0.00  0.00    +0.022 C 
ENDBRANCH  23  31
ENDBRANCH  20  21
ENDBRANCH   1  20
TORSDOF 10
