REMARK  Name = ZINC12562631
REMARK  8 active torsions:
REMARK  status: ('A' for Active; 'I' for Inactive)
REMARK    1  A    between atoms: C_1  and  C_2
REMARK    2  A    between atoms: C_2  and  O_3
REMARK    3  A    between atoms: O_3  and  C_4
REMARK    4  A    between atoms: C_7  and  S_10
REMARK    5  A    between atoms: S_10  and  N_13
REMARK    6  A    between atoms: N_13  and  C_14
REMARK    7  A    between atoms: C_17  and  C_20
REMARK    8  A    between atoms: N_22  and  N_23
REMARK                            x       y       z     vdW  Elec       q    Type
REMARK                         _______ _______ _______ _____ _____    ______ ____
ROOT
ATOM      1  C   UNL     1       0.650  -0.886   1.153  0.00  0.00    +0.048 A 
ATOM      2  C   UNL     1       1.884  -0.429   1.607  0.00  0.00    +0.025 A 
ATOM      3  C   UNL     1       2.489  -1.035   2.684  0.00  0.00    +0.015 A 
ATOM      4  C   UNL     1       1.869  -2.117   3.316  0.00  0.00    +0.038 A 
ATOM      5  C   UNL     1       0.632  -2.577   2.854  0.00  0.00    +0.015 A 
ATOM      6  C   UNL     1       0.029  -1.964   1.779  0.00  0.00    +0.025 A 
ENDROOT
BRANCH   4   7
ATOM      7  C   UNL     1       2.517  -2.772   4.467  0.00  0.00    +0.263 C 
ATOM      8  O   UNL     1       1.976  -3.713   5.016  0.00  0.00    -0.268 OA
ATOM      9  N   UNL     1       3.710  -2.327   4.912  0.00  0.00    -0.203 N 
ATOM     10  H   UNL     1       4.141  -1.577   4.474  0.00  0.00    +0.178 HD
BRANCH   9  11
ATOM     11  N   UNL     1       4.326  -2.949   6.005  0.00  0.00    -0.189 NA
ATOM     12  C   UNL     1       5.496  -2.584   6.374  0.00  0.00    +0.037 C 
ATOM     13  C   UNL     1       6.175  -1.389   5.710  0.00  0.00    +0.052 C 
ATOM     14  C   UNL     1       6.924  -0.563   6.726  0.00  0.00    +0.006 C 
ATOM     15  C   UNL     1       8.362  -1.084   6.859  0.00  0.00    +0.000 C 
ATOM     16  C   UNL     1       8.458  -2.263   7.724  0.00  0.00    +0.000 C 
ATOM     17  C   UNL     1       7.694  -3.471   7.163  0.00  0.00    +0.006 C 
ATOM     18  C   UNL     1       6.228  -3.342   7.477  0.00  0.00    +0.052 C 
ENDBRANCH   9  11
ENDBRANCH   4   7
BRANCH   1  19
ATOM     19  N   UNL     1       0.038  -0.269   0.068  0.00  0.00    -0.216 N 
ATOM     20  H   UNL     1       0.371  -0.424  -0.830  0.00  0.00    +0.174 HD
BRANCH  19  21
ATOM     21  S   UNL     1      -1.260   0.732   0.307  0.00  0.00    +0.072 S 
ATOM     22  O   UNL     1      -1.613   1.251  -0.967  0.00  0.00    -0.150 OA
ATOM     23  O   UNL     1      -2.179   0.017   1.120  0.00  0.00    -0.150 OA
BRANCH  21  27
ATOM     24  C   UNL     1       0.193   4.239   2.776  0.00  0.00    +0.121 A 
ATOM     25  C   UNL     1       0.151   4.333   1.393  0.00  0.00    +0.047 A 
ATOM     26  C   UNL     1      -0.292   3.262   0.642  0.00  0.00    +0.032 A 
ATOM     27  C   UNL     1      -0.694   2.097   1.268  0.00  0.00    +0.109 A 
ATOM     28  C   UNL     1      -0.659   2.003   2.647  0.00  0.00    +0.032 A 
ATOM     29  C   UNL     1      -0.211   3.069   3.402  0.00  0.00    +0.047 A 
BRANCH  24  30
ATOM     30  O   UNL     1       0.629   5.292   3.517  0.00  0.00    -0.492 OA
BRANCH  30  32
ATOM     31  C   UNL     1       1.162   6.404   5.595  0.00  0.00    +0.048 C 
ATOM     32  C   UNL     1       0.645   5.124   4.936  0.00  0.00    +0.225 C 
ENDBRANCH  30  32
ENDBRANCH  24  30
ENDBRANCH  21  27
ENDBRANCH  19  21
ENDBRANCH   1  19
TORSDOF 7
