REMARK  Name = ZINC36637677
REMARK  16 active torsions:
REMARK  status: ('A' for Active; 'I' for Inactive)
REMARK    1  A    between atoms: C_1  and  C_2
REMARK    2  A    between atoms: C_2  and  C_3
REMARK    3  A    between atoms: C_3  and  C_4
REMARK    4  A    between atoms: C_4  and  N_5
REMARK    5  A    between atoms: N_5  and  C_6
REMARK    6  A    between atoms: N_5  and  S_7
REMARK    7  A    between atoms: S_7  and  C_10
REMARK    8  A    between atoms: C_13  and  C_16
REMARK    9  A    between atoms: N_18  and  C_19
REMARK   10  A    between atoms: C_19  and  C_20
REMARK   11  A    between atoms: C_20  and  N_21
REMARK   12  A    between atoms: N_21  and  C_22
REMARK   13  A    between atoms: N_21  and  C_23
REMARK   14  A    between atoms: C_27  and  O_34
REMARK   15  A    between atoms: C_30  and  C_33
REMARK   16  A    between atoms: O_34  and  C_35
REMARK                            x       y       z     vdW  Elec       q    Type
REMARK                         _______ _______ _______ _____ _____    ______ ____
ROOT
ATOM      1  C   UNL     1      -6.057   1.633   3.309  0.00  0.00    +0.252 C 
ATOM      2  O   UNL     1      -5.338   2.190   4.116  0.00  0.00    -0.270 OA
ATOM      3  N   UNL     1      -7.320   2.064   3.122  0.00  0.00    -0.248 N 
ATOM      4  C   UNL     1      -7.761   3.214   3.757  0.00  0.00    +0.168 A 
ATOM      5  N   UNL     1      -8.943   3.781   3.704  0.00  0.00    -0.221 NA
ATOM      6  C   UNL     1      -9.236   4.912   4.383  0.00  0.00    +0.122 A 
ATOM      7  C   UNL     1     -10.463   5.623   4.412  0.00  0.00    +0.147 A 
ATOM      8  C   UNL     1     -10.592   6.768   5.161  0.00  0.00    +0.048 A 
ATOM      9  C   UNL     1      -9.535   7.266   5.910  0.00  0.00    +0.008 A 
ATOM     10  C   UNL     1      -8.325   6.597   5.903  0.00  0.00    -0.034 A 
ATOM     11  C   UNL     1      -8.186   5.451   5.157  0.00  0.00    +0.047 A 
ATOM     12  S   UNL     1      -6.867   4.297   4.862  0.00  0.00    -0.051 S 
ATOM     13  C   UNL     1      -7.165   7.121   6.710  0.00  0.00    +0.045 C 
ENDROOT
BRANCH   1  17
ATOM     14  C   UNL     1      -4.586  -1.670   1.081  0.00  0.00    +0.106 A 
ATOM     15  C   UNL     1      -3.809  -0.534   1.222  0.00  0.00    +0.029 A 
ATOM     16  C   UNL     1      -4.281   0.542   1.945  0.00  0.00    +0.015 A 
ATOM     17  C   UNL     1      -5.545   0.484   2.534  0.00  0.00    +0.037 A 
ATOM     18  C   UNL     1      -6.324  -0.665   2.387  0.00  0.00    +0.015 A 
ATOM     19  C   UNL     1      -5.843  -1.732   1.657  0.00  0.00    +0.029 A 
BRANCH  14  20
ATOM     20  S   UNL     1      -3.976  -3.041   0.157  0.00  0.00    +0.061 S 
ATOM     21  O   UNL     1      -4.671  -4.188   0.626  0.00  0.00    -0.153 OA
ATOM     22  O   UNL     1      -2.558  -2.947   0.180  0.00  0.00    -0.153 OA
BRANCH  20  23
ATOM     23  N   UNL     1      -4.440  -2.816  -1.416  0.00  0.00    -0.180 NA
ATOM     24  C   UNL     1      -5.722  -3.349  -1.885  0.00  0.00    +0.131 C 
BRANCH  23  25
ATOM     25  C   UNL     1      -3.570  -2.085  -2.340  0.00  0.00    +0.109 C 
BRANCH  25  26
ATOM     26  C   UNL     1      -3.996  -0.616  -2.387  0.00  0.00    +0.017 C 
BRANCH  26  28
ATOM     27  C   UNL     1      -3.513   1.617  -3.399  0.00  0.00    +0.004 C 
ATOM     28  C   UNL     1      -3.087   0.148  -3.352  0.00  0.00    -0.002 C 
ENDBRANCH  26  28
ENDBRANCH  25  26
ENDBRANCH  23  25
ENDBRANCH  20  23
ENDBRANCH  14  20
ENDBRANCH   1  17
BRANCH   7  29
ATOM     29  O   UNL     1     -11.522   5.167   3.692  0.00  0.00    -0.493 OA
ATOM     30  C   UNL     1     -12.730   5.926   3.763  0.00  0.00    +0.277 C 
ENDBRANCH   7  29
BRANCH   3  31
ATOM     31  C   UNL     1      -8.227   1.317   2.247  0.00  0.00    +0.097 C 
BRANCH  31  32
ATOM     32  C   UNL     1      -9.123   0.412   3.095  0.00  0.00    -0.060 C 
BRANCH  32  33
ATOM     33  N   UNL     1      -9.940  -0.433   2.213  0.00  0.00    +0.377 N 
ATOM     34  C   UNL     1     -10.711  -1.384   3.024  0.00  0.00    -0.097 C 
ATOM     35  C   UNL     1     -10.860   0.412   1.441  0.00  0.00    -0.097 C 
ATOM     36  H   UNL     1      -9.338  -0.940   1.581  0.00  0.00    -0.083 HD
ENDBRANCH  32  33
ENDBRANCH  31  32
ENDBRANCH   3  31
TORSDOF 10
