REMARK  Name = ZINC39462133
REMARK  9 active torsions:
REMARK  status: ('A' for Active; 'I' for Inactive)
REMARK    1  A    between atoms: C_1  and  C_2
REMARK    2  A    between atoms: C_5  and  C_33
REMARK    3  A    between atoms: C_12  and  N_15
REMARK    4  A    between atoms: C_16  and  C_18
REMARK    5  A    between atoms: C_18  and  N_19
REMARK    6  A    between atoms: N_19  and  C_20
REMARK    7  A    between atoms: N_19  and  C_27
REMARK    8  A    between atoms: C_20  and  C_21
REMARK    9  A    between atoms: C_27  and  C_28
REMARK                            x       y       z     vdW  Elec       q    Type
REMARK                         _______ _______ _______ _____ _____    ______ ____
ROOT
ATOM      1  N   UNL     1      -0.155   0.097   3.159  0.00  0.00    -0.288 N 
ATOM      2  C   UNL     1       0.215   0.301   4.439  0.00  0.00    +0.199 C 
ATOM      3  O   UNL     1       0.736  -0.594   5.070  0.00  0.00    -0.278 OA
ATOM      4  H   UNL     1      -0.572   0.812   2.655  0.00  0.00    +0.151 HD
ENDROOT
BRANCH   1  15
ATOM      5  C   UNL     1       0.880   0.727   0.259  0.00  0.00    +0.043 C 
ATOM      6  C   UNL     1       0.827  -0.794   0.417  0.00  0.00    +0.150 C 
ATOM      7  C   UNL     1      -0.596  -1.279   0.308  0.00  0.00    +0.016 A 
ATOM      8  C   UNL     1      -1.465  -1.502  -0.766  0.00  0.00    +0.065 A 
ATOM      9  N   UNL     1      -2.678  -1.937  -0.547  0.00  0.00    -0.176 NA
ATOM     10  N   UNL     1      -3.124  -2.176   0.633  0.00  0.00    -0.243 N 
ATOM     11  C   UNL     1      -2.363  -1.992   1.732  0.00  0.00    +0.272 A 
ATOM     12  O   UNL     1      -2.810  -2.227   2.843  0.00  0.00    -0.266 OA
ATOM     13  C   UNL     1      -1.046  -1.526   1.575  0.00  0.00    +0.072 A 
ATOM     14  H   UNL     1      -4.034  -2.497   0.737  0.00  0.00    +0.192 HD
ATOM     15  C   UNL     1       0.074  -1.207   2.530  0.00  0.00    +0.243 C 
ATOM     16  O   UNL     1       1.276  -1.172   1.733  0.00  0.00    -0.347 OA
ATOM     17  C   UNL     1      -1.003  -1.240  -2.176  0.00  0.00    +0.068 C 
ENDBRANCH   1  15
BRANCH   2  18
ATOM     18  C   UNL     1      -0.020   1.641   5.086  0.00  0.00    +0.020 C 
BRANCH  18  19
ATOM     19  N   UNL     1       0.466   1.608   6.472  0.00  0.00    +0.393 N 
ATOM     20  H   UNL     1       0.030   0.843   6.963  0.00  0.00    -0.080 HD
BRANCH  19  21
ATOM     21  C   UNL     1       0.130   2.873   7.139  0.00  0.00    -0.042 C 
BRANCH  21  22
ATOM     22  C   UNL     1      -1.367   2.995   7.260  0.00  0.00    -0.064 A 
ATOM     23  C   UNL     1      -2.082   3.701   6.311  0.00  0.00    +0.002 A 
ATOM     24  C   UNL     1      -3.455   3.812   6.422  0.00  0.00    +0.000 A 
ATOM     25  C   UNL     1      -4.114   3.218   7.482  0.00  0.00    +0.000 A 
ATOM     26  C   UNL     1      -3.399   2.511   8.431  0.00  0.00    +0.000 A 
ATOM     27  C   UNL     1      -2.026   2.396   8.318  0.00  0.00    +0.002 A 
ENDBRANCH  21  22
ENDBRANCH  19  21
BRANCH  19  28
ATOM     28  C   UNL     1       1.924   1.425   6.475  0.00  0.00    -0.002 C 
BRANCH  28  29
ATOM     29  C   UNL     1       2.408   1.271   7.894  0.00  0.00    +0.089 A 
ATOM     30  C   UNL     1       2.429   0.125   8.598  0.00  0.00    +0.042 A 
ATOM     31  C   UNL     1       2.956   0.437   9.872  0.00  0.00    +0.041 A 
ATOM     32  C   UNL     1       3.225   1.754   9.871  0.00  0.00    +0.195 A 
ATOM     33  O   UNL     1       2.897   2.254   8.668  0.00  0.00    -0.470 OA
ENDBRANCH  28  29
ENDBRANCH  19  28
ENDBRANCH  18  19
ENDBRANCH   2  18
TORSDOF 7
