REMARK  Name = ZINC32520226
REMARK  11 active torsions:
REMARK  status: ('A' for Active; 'I' for Inactive)
REMARK    1  A    between atoms: C_1  and  C_2
REMARK    2  A    between atoms: C_2  and  O_3
REMARK    3  A    between atoms: O_3  and  C_4
REMARK    4  A    between atoms: C_9  and  C_10
REMARK    5  A    between atoms: C_10  and  N_11
REMARK    6  A    between atoms: N_11  and  C_12
REMARK    7  A    between atoms: C_15  and  C_27
REMARK    8  A    between atoms: N_17  and  C_19
REMARK    9  A    between atoms: C_19  and  C_20
REMARK   10  A    between atoms: N_29  and  C_30
REMARK   11  A    between atoms: C_30  and  C_31
REMARK                            x       y       z     vdW  Elec       q    Type
REMARK                         _______ _______ _______ _____ _____    ______ ____
ROOT
ATOM      1  C   UNL     1       3.852   0.013  -4.039  0.00  0.00    -0.055 C 
ATOM      2  C   UNL     1       5.197   0.613  -3.551  0.00  0.00    +0.014 C 
ATOM      3  C   UNL     1       5.906   0.925  -4.892  0.00  0.00    +0.142 C 
ATOM      4  N   UNL     1       5.527  -0.188  -5.788  0.00  0.00    -0.289 NA
ATOM      5  C   UNL     1       4.255  -0.767  -5.308  0.00  0.00    +0.070 C 
ENDROOT
BRANCH   3   6
ATOM      6  C   UNL     1       7.400   0.962  -4.700  0.00  0.00    +0.230 C 
ATOM      7  O   UNL     1       8.075   0.003  -5.008  0.00  0.00    -0.274 OA
ATOM      8  N   UNL     1       7.986   2.062  -4.186  0.00  0.00    -0.310 N 
ATOM      9  H   UNL     1       7.446   2.829  -3.939  0.00  0.00    +0.149 HD
BRANCH   8  10
ATOM     10  C   UNL     1       9.439   2.098  -3.999  0.00  0.00    +0.141 C 
BRANCH  10  11
ATOM     11  C   UNL     1       9.837   3.428  -3.413  0.00  0.00    -0.012 A 
ATOM     12  C   UNL     1      10.148   4.495  -4.243  0.00  0.00    +0.008 A 
ATOM     13  C   UNL     1      10.509   5.700  -3.660  0.00  0.00    +0.020 A 
ATOM     14  C   UNL     1      10.547   5.797  -2.281  0.00  0.00    +0.111 A 
ATOM     15  N   UNL     1      10.246   4.761  -1.524  0.00  0.00    -0.263 NA
ATOM     16  C   UNL     1       9.892   3.601  -2.044  0.00  0.00    +0.115 A 
ENDBRANCH  10  11
ENDBRANCH   8  10
ENDBRANCH   3   6
BRANCH   1  17
ATOM     17  N   UNL     1       3.291  -0.893  -3.029  0.00  0.00    +0.385 N 
ATOM     18  H   UNL     1       3.168  -0.395  -2.160  0.00  0.00    -0.085 HD
ATOM     19  H   UNL     1       3.920  -1.669  -2.886  0.00  0.00    -0.085 HD
BRANCH  17  20
ATOM     20  C   UNL     1       1.990  -1.397  -3.491  0.00  0.00    -0.043 C 
BRANCH  20  26
ATOM     21  C   UNL     1       0.777  -1.810  -1.336  0.00  0.00    +0.122 A 
ATOM     22  C   UNL     1       0.243  -2.669  -0.386  0.00  0.00    +0.046 A 
ATOM     23  C   UNL     1       0.351  -4.036  -0.554  0.00  0.00    +0.004 A 
ATOM     24  C   UNL     1       0.991  -4.548  -1.667  0.00  0.00    +0.000 A 
ATOM     25  C   UNL     1       1.525  -3.695  -2.615  0.00  0.00    +0.005 A 
ATOM     26  C   UNL     1       1.414  -2.327  -2.455  0.00  0.00    -0.023 A 
BRANCH  21  27
ATOM     27  O   UNL     1       0.671  -0.465  -1.174  0.00  0.00    -0.492 OA
BRANCH  27  29
ATOM     28  C   UNL     1      -0.019   1.526   0.010  0.00  0.00    +0.048 C 
ATOM     29  C   UNL     1       0.002  -0.004   0.002  0.00  0.00    +0.225 C 
ENDBRANCH  27  29
ENDBRANCH  21  27
ENDBRANCH  20  26
ENDBRANCH  17  20
ENDBRANCH   1  17
BRANCH   4  30
ATOM     30  C   UNL     1       5.401   0.273  -7.177  0.00  0.00    +0.120 C 
BRANCH  30  31
ATOM     31  C   UNL     1       5.259  -0.918  -8.090  0.00  0.00    -0.032 A 
ATOM     32  C   UNL     1       6.384  -1.515  -8.628  0.00  0.00    +0.005 A 
ATOM     33  C   UNL     1       6.254  -2.606  -9.466  0.00  0.00    +0.002 A 
ATOM     34  C   UNL     1       4.999  -3.102  -9.767  0.00  0.00    +0.020 A 
ATOM     35  C   UNL     1       3.873  -2.505  -9.229  0.00  0.00    +0.041 A 
ATOM     36  C   UNL     1       4.004  -1.416  -8.385  0.00  0.00    +0.025 A 
ATOM     37 CL   UNL     1       2.297  -3.127  -9.606  0.00  0.00    -0.084 Cl
ENDBRANCH  30  31
ENDBRANCH   4  30
TORSDOF 10
