REMARK  Name = ZINC39672530
REMARK  7 active torsions:
REMARK  status: ('A' for Active; 'I' for Inactive)
REMARK    1  A    between atoms: C_1  and  C_2
REMARK    2  A    between atoms: C_5  and  C_7
REMARK    3  A    between atoms: C_7  and  N_8
REMARK    4  A    between atoms: C_9  and  C_11
REMARK    5  A    between atoms: C_22  and  C_24
REMARK    6  A    between atoms: C_29  and  S_30
REMARK    7  A    between atoms: S_30  and  C_31
REMARK                            x       y       z     vdW  Elec       q    Type
REMARK                         _______ _______ _______ _____ _____    ______ ____
ROOT
ATOM      1  C   UNL     1      -3.345  -4.909   3.933  0.00  0.00    +0.100 C 
ATOM      2  C   UNL     1      -3.852  -3.549   4.465  0.00  0.00    +0.121 C 
ATOM      3  N   UNL     1      -4.601  -3.886   5.698  0.00  0.00    -0.296 N 
ATOM      4  C   UNL     1      -3.796  -4.954   6.339  0.00  0.00    +0.115 C 
ATOM      5  C   UNL     1      -3.309  -5.827   5.165  0.00  0.00    -0.004 C 
ATOM      6  C   UNL     1      -4.247  -7.014   4.967  0.00  0.00    -0.010 C 
ATOM      7  C   UNL     1      -4.151  -7.942   6.182  0.00  0.00    -0.082 C 
ATOM      8  N   UNL     1      -2.767  -8.406   6.337  0.00  0.00    +0.379 N 
ATOM      9  C   UNL     1      -1.885  -7.267   6.620  0.00  0.00    -0.082 C 
ATOM     10  C   UNL     1      -1.886  -6.310   5.424  0.00  0.00    -0.010 C 
ATOM     11  C   UNL     1      -5.754  -3.345   6.138  0.00  0.00    +0.249 C 
ATOM     12  O   UNL     1      -6.199  -3.662   7.225  0.00  0.00    -0.270 OA
ATOM     13  H   UNL     1      -2.718  -9.065   7.100  0.00  0.00    -0.086 HD
ATOM     14  H   UNL     1      -2.468  -8.859   5.487  0.00  0.00    -0.086 HD
ENDROOT
BRANCH  11  15
ATOM     15  C   UNL     1      -6.476  -2.368   5.303  0.00  0.00    +0.069 A 
ATOM     16  C   UNL     1      -5.775  -1.456   4.506  0.00  0.00    +0.017 A 
ATOM     17  C   UNL     1      -6.498  -0.560   3.739  0.00  0.00    +0.020 A 
ATOM     18  C   UNL     1      -7.882  -0.589   3.780  0.00  0.00    +0.112 A 
ATOM     19  N   UNL     1      -8.525  -1.456   4.537  0.00  0.00    -0.248 NA
ATOM     20  C   UNL     1      -7.881  -2.339   5.287  0.00  0.00    +0.114 A 
BRANCH  20  21
ATOM     21  S   UNL     1      -8.792  -3.479   6.274  0.00  0.00    -0.069 S 
BRANCH  21  22
ATOM     22  C   UNL     1     -10.469  -2.978   6.068  0.00  0.00    +0.014 A 
ATOM     23  C   UNL     1     -11.264  -3.587   5.106  0.00  0.00    +0.015 A 
ATOM     24  C   UNL     1     -12.578  -3.192   4.947  0.00  0.00    +0.001 A 
ATOM     25  C   UNL     1     -13.102  -2.190   5.744  0.00  0.00    +0.000 A 
ATOM     26  C   UNL     1     -12.312  -1.581   6.702  0.00  0.00    +0.001 A 
ATOM     27  C   UNL     1     -11.000  -1.976   6.871  0.00  0.00    +0.015 A 
ENDBRANCH  21  22
ENDBRANCH  20  21
ENDBRANCH  11  15
BRANCH   1  29
ATOM     28  N   UNL     1      -1.561  -5.581   2.357  0.00  0.00    -0.309 N 
ATOM     29  C   UNL     1      -1.964  -4.761   3.348  0.00  0.00    +0.219 C 
ATOM     30  O   UNL     1      -1.216  -3.904   3.768  0.00  0.00    -0.275 OA
ATOM     31  H   UNL     1      -2.159  -6.266   2.021  0.00  0.00    +0.149 HD
BRANCH  28  32
ATOM     32  C   UNL     1      -0.218  -5.438   1.789  0.00  0.00    +0.167 C 
BRANCH  32  37
ATOM     33  C   UNL     1      -0.337  -7.244  -2.876  0.00  0.00    +0.066 C 
ATOM     34  C   UNL     1      -0.044  -7.361  -1.403  0.00  0.00    +0.046 A 
ATOM     35  C   UNL     1       0.471  -8.498  -0.869  0.00  0.00    +0.070 A 
ATOM     36  S   UNL     1       0.590  -8.030   0.850  0.00  0.00    -0.079 S 
ATOM     37  C   UNL     1      -0.018  -6.467   0.707  0.00  0.00    +0.096 A 
ATOM     38  N   UNL     1      -0.270  -6.361  -0.574  0.00  0.00    -0.248 NA
ENDBRANCH  32  37
ENDBRANCH  28  32
ENDBRANCH   1  29
TORSDOF 6
