REMARK  Name = ZINC39359649
REMARK  7 active torsions:
REMARK  status: ('A' for Active; 'I' for Inactive)
REMARK    1  A    between atoms: C_7  and  C_10
REMARK    2  A    between atoms: N_11  and  N_12
REMARK    3  A    between atoms: C_13  and  C_15
REMARK    4  A    between atoms: C_15  and  N_16
REMARK    5  A    between atoms: C_17  and  C_19
REMARK    6  A    between atoms: C_22  and  S_25
REMARK    7  A    between atoms: S_25  and  N_28
REMARK                            x       y       z     vdW  Elec       q    Type
REMARK                         _______ _______ _______ _____ _____    ______ ____
ROOT
ATOM      1  N   UNL     1       0.540  -9.116  -0.052  0.00  0.00    -0.303 N 
ATOM      2  C   UNL     1      -0.107 -10.298  -0.052  0.00  0.00    +0.244 C 
ATOM      3  O   UNL     1      -1.322 -10.326  -0.041  0.00  0.00    -0.270 OA
ATOM      4  H   UNL     1       1.510  -9.095  -0.062  0.00  0.00    +0.150 HD
ENDROOT
BRANCH   2   5
ATOM      5  C   UNL     1       0.661 -11.562  -0.067  0.00  0.00    +0.037 A 
ATOM      6  C   UNL     1       2.056 -11.534  -0.074  0.00  0.00    +0.015 A 
ATOM      7  C   UNL     1       2.767 -12.716  -0.087  0.00  0.00    +0.029 A 
ATOM      8  C   UNL     1       2.099 -13.928  -0.093  0.00  0.00    +0.106 A 
ATOM      9  C   UNL     1       0.716 -13.963  -0.086  0.00  0.00    +0.029 A 
ATOM     10  C   UNL     1      -0.007 -12.788  -0.067  0.00  0.00    +0.015 A 
BRANCH   8  11
ATOM     11  S   UNL     1       3.014 -15.434  -0.110  0.00  0.00    +0.061 S 
ATOM     12  O   UNL     1       2.157 -16.423  -0.664  0.00  0.00    -0.153 OA
ATOM     13  O   UNL     1       4.286 -15.130  -0.666  0.00  0.00    -0.153 OA
BRANCH  11  14
ATOM     14  N   UNL     1       3.277 -15.865   1.467  0.00  0.00    -0.177 NA
ATOM     15  C   UNL     1       4.431 -15.462   2.284  0.00  0.00    +0.109 C 
ATOM     16  C   UNL     1       4.263 -16.119   3.670  0.00  0.00    +0.018 C 
ATOM     17  C   UNL     1       3.315 -17.312   3.377  0.00  0.00    +0.018 C 
ATOM     18  C   UNL     1       2.390 -16.710   2.286  0.00  0.00    +0.109 C 
ENDBRANCH  11  14
ENDBRANCH   8  11
ENDBRANCH   2   5
BRANCH   1  19
ATOM     19  C   UNL     1      -0.220  -7.864  -0.038  0.00  0.00    +0.202 C 
BRANCH  19  21
ATOM     20  N   UNL     1       0.255  -5.437  -0.030  0.00  0.00    -0.206 N 
ATOM     21  C   UNL     1       0.733  -6.697  -0.041  0.00  0.00    +0.249 C 
ATOM     22  O   UNL     1       1.930  -6.892  -0.054  0.00  0.00    -0.272 OA
ATOM     23  H   UNL     1      -0.702  -5.281  -0.020  0.00  0.00    +0.177 HD
BRANCH  20  25
ATOM     24  C   UNL     1       0.677  -3.128  -0.022  0.00  0.00    +0.136 C 
ATOM     25  N   UNL     1       1.141  -4.352  -0.033  0.00  0.00    -0.188 NA
BRANCH  24  32
ATOM     26  C   UNL     1      -0.016   1.353   0.009  0.00  0.00    +0.001 A 
ATOM     27  C   UNL     1       1.164   2.102   0.002  0.00  0.00    +0.002 A 
ATOM     28  C   UNL     1       2.384   1.514  -0.013  0.00  0.00    +0.026 A 
ATOM     29  C   UNL     1       2.485   0.097  -0.022  0.00  0.00    +0.043 A 
ATOM     30  N   UNL     1       3.531  -0.702  -0.037  0.00  0.00    -0.380 N 
ATOM     31  C   UNL     1       3.076  -2.096  -0.040  0.00  0.00    +0.150 C 
ATOM     32  C   UNL     1       1.565  -2.042  -0.024  0.00  0.00    +0.000 C 
ATOM     33  C   UNL     1       1.238  -0.688  -0.013  0.00  0.00    +0.004 A 
ATOM     34  C   UNL     1       0.002  -0.004   0.002  0.00  0.00    +0.010 A 
ATOM     35  H   UNL     1       4.458  -0.414  -0.045  0.00  0.00    +0.160 HD
ENDBRANCH  24  32
ENDBRANCH  20  25
ENDBRANCH  19  21
ENDBRANCH   1  19
TORSDOF 7
