REMARK  Name = ZINC39670819
REMARK  9 active torsions:
REMARK  status: ('A' for Active; 'I' for Inactive)
REMARK    1  A    between atoms: C_1  and  C_2
REMARK    2  A    between atoms: C_2  and  C_3
REMARK    3  A    between atoms: C_3  and  C_5
REMARK    4  A    between atoms: C_3  and  C_6
REMARK    5  A    between atoms: C_6  and  C_7
REMARK    6  A    between atoms: C_11  and  C_20
REMARK    7  A    between atoms: N_22  and  C_23
REMARK    8  A    between atoms: C_23  and  C_24
REMARK    9  A    between atoms: C_27  and  C_33
REMARK                            x       y       z     vdW  Elec       q    Type
REMARK                         _______ _______ _______ _____ _____    ______ ____
ROOT
ATOM      1  C   UNL     1       1.600  -2.525  -2.074  0.00  0.00    +0.216 C 
ATOM      2  O   UNL     1       2.018  -1.650  -2.802  0.00  0.00    -0.276 OA
ATOM      3  N   UNL     1       1.869  -3.816  -2.349  0.00  0.00    -0.300 N 
ATOM      4  C   UNL     1       1.444  -5.015  -1.587  0.00  0.00    +0.121 C 
ATOM      5  C   UNL     1       1.094  -6.061  -2.670  0.00  0.00    +0.100 C 
ATOM      6  C   UNL     1       1.895  -5.626  -3.909  0.00  0.00    -0.004 C 
ATOM      7  C   UNL     1       2.652  -4.360  -3.485  0.00  0.00    +0.115 C 
ATOM      8  C   UNL     1       2.878  -6.721  -4.313  0.00  0.00    -0.010 C 
ATOM      9  C   UNL     1       3.620  -6.290  -5.581  0.00  0.00    -0.082 C 
ATOM     10  N   UNL     1       2.654  -6.050  -6.659  0.00  0.00    +0.379 N 
ATOM     11  C   UNL     1       1.770  -4.934  -6.301  0.00  0.00    -0.082 C 
ATOM     12  C   UNL     1       0.949  -5.307  -5.063  0.00  0.00    -0.010 C 
ATOM     13  H   UNL     1       3.149  -5.826  -7.509  0.00  0.00    -0.086 HD
ATOM     14  H   UNL     1       2.101  -6.882  -6.804  0.00  0.00    -0.086 HD
ENDROOT
BRANCH   5  15
ATOM     15  C   UNL     1      -0.384  -6.038  -2.962  0.00  0.00    +0.219 C 
ATOM     16  O   UNL     1      -1.011  -5.007  -2.841  0.00  0.00    -0.275 OA
ATOM     17  N   UNL     1      -1.010  -7.164  -3.359  0.00  0.00    -0.309 N 
ATOM     18  H   UNL     1      -0.509  -7.989  -3.456  0.00  0.00    +0.149 HD
BRANCH  17  19
ATOM     19  C   UNL     1      -2.447  -7.142  -3.644  0.00  0.00    +0.159 C 
BRANCH  19  20
ATOM     20  C   UNL     1      -2.896  -8.518  -4.065  0.00  0.00    +0.051 A 
ATOM     21  C   UNL     1      -3.005  -8.956  -5.338  0.00  0.00    +0.115 A 
ATOM     22  N   UNL     1      -3.442 -10.252  -5.283  0.00  0.00    -0.305 N 
ATOM     23  C   UNL     1      -3.722 -11.173  -6.250  0.00  0.00    +0.022 A 
ATOM     24  C   UNL     1      -4.146 -12.410  -5.918  0.00  0.00    +0.021 A 
ATOM     25  C   UNL     1      -4.307 -12.766  -4.569  0.00  0.00    +0.005 A 
ATOM     26  C   UNL     1      -4.031 -11.857  -3.595  0.00  0.00    +0.045 A 
ATOM     27  C   UNL     1      -3.588 -10.570  -3.958  0.00  0.00    +0.116 A 
ATOM     28  N   UNL     1      -3.248  -9.508  -3.241  0.00  0.00    -0.342 N 
ATOM     29  C   UNL     1      -3.555 -10.806  -7.702  0.00  0.00    +0.064 C 
ATOM     30  H   UNL     1      -3.256  -9.458  -2.272  0.00  0.00    +0.167 HD
ENDBRANCH  19  20
ENDBRANCH  17  19
ENDBRANCH   5  15
BRANCH   1  31
ATOM     31  C   UNL     1       0.779  -2.168  -0.862  0.00  0.00    +0.099 C 
BRANCH  31  32
ATOM     32  C   UNL     1       0.622  -0.648  -0.782  0.00  0.00    -0.006 C 
ATOM     33  C   UNL     1      -0.192  -0.156  -1.980  0.00  0.00    +0.008 C 
BRANCH  32  35
ATOM     34  C   UNL     1      -0.151   1.245   0.654  0.00  0.00    +0.004 C 
ATOM     35  C   UNL     1      -0.103  -0.278   0.514  0.00  0.00    +0.000 C 
ENDBRANCH  32  35
ENDBRANCH  31  32
ENDBRANCH   1  31
TORSDOF 6
