REMARK  Name = ZINC04673139
REMARK  10 active torsions:
REMARK  status: ('A' for Active; 'I' for Inactive)
REMARK    1  A    between atoms: C_1  and  C_2
REMARK    2  A    between atoms: C_2  and  C_3
REMARK    3  A    between atoms: C_3  and  C_4
REMARK    4  A    between atoms: N_6  and  C_7
REMARK    5  A    between atoms: C_10  and  C_13
REMARK    6  A    between atoms: N_15  and  N_16
REMARK    7  A    between atoms: N_16  and  C_17
REMARK    8  A    between atoms: C_19  and  O_20
REMARK    9  A    between atoms: C_22  and  C_24
REMARK   10  A    between atoms: C_22  and  C_25
REMARK                            x       y       z     vdW  Elec       q    Type
REMARK                         _______ _______ _______ _____ _____    ______ ____
ROOT
ATOM      1  C   UNL     1       1.823  -8.284  -2.330  0.00  0.00    +0.260 C 
ATOM      2  O   UNL     1       1.318  -8.946  -1.444  0.00  0.00    -0.269 OA
ATOM      3  N   UNL     1       2.502  -8.892  -3.322  0.00  0.00    -0.232 N 
ATOM      4  H   UNL     1       2.905  -8.363  -4.029  0.00  0.00    +0.173 HD
ENDROOT
BRANCH   1   8
ATOM      5  C   UNL     1       1.446  -4.054  -2.296  0.00  0.00    +0.033 A 
ATOM      6  C   UNL     1       0.867  -4.810  -1.282  0.00  0.00    +0.024 A 
ATOM      7  C   UNL     1       0.987  -6.182  -1.290  0.00  0.00    +0.015 A 
ATOM      8  C   UNL     1       1.692  -6.814  -2.318  0.00  0.00    +0.038 A 
ATOM      9  C   UNL     1       2.272  -6.051  -3.335  0.00  0.00    +0.015 A 
ATOM     10  C   UNL     1       2.143  -4.680  -3.324  0.00  0.00    +0.024 A 
BRANCH   5  13
ATOM     11  C   UNL     1       1.326  -1.997  -1.114  0.00  0.00    +0.217 C 
ATOM     12  O   UNL     1       1.354  -2.609  -0.068  0.00  0.00    -0.275 OA
ATOM     13  N   UNL     1       1.322  -2.665  -2.285  0.00  0.00    -0.285 N 
ATOM     14  H   UNL     1       1.232  -2.179  -3.120  0.00  0.00    +0.155 HD
BRANCH  11  15
ATOM     15  C   UNL     1       1.297  -0.490  -1.106  0.00  0.00    +0.096 C 
BRANCH  15  17
ATOM     16  C   UNL     1       1.278   1.542   0.347  0.00  0.00    +0.004 C 
ATOM     17  C   UNL     1       1.308   0.012   0.339  0.00  0.00    +0.006 C 
ENDBRANCH  15  17
ENDBRANCH  11  15
ENDBRANCH   5  13
ENDBRANCH   1   8
BRANCH   3  18
ATOM     18  N   UNL     1       2.627 -10.287  -3.333  0.00  0.00    -0.264 N 
ATOM     19  H   UNL     1       2.224 -10.816  -2.627  0.00  0.00    +0.170 HD
BRANCH  18  20
ATOM     20  C   UNL     1       3.331 -10.917  -4.361  0.00  0.00    +0.044 C 
ATOM     21  C   UNL     1       3.464 -12.384  -4.377  0.00  0.00    +0.065 C 
ATOM     22  C   UNL     1       4.429 -12.952  -5.105  0.00  0.00    +0.097 C 
ATOM     23  C   UNL     1       5.377 -12.098  -5.904  0.00  0.00    +0.084 C 
ATOM     24  C   UNL     1       4.644 -10.873  -6.448  0.00  0.00    -0.008 C 
ATOM     25  C   UNL     1       3.883 -10.192  -5.341  0.00  0.00    +0.004 C 
ATOM     26  C   UNL     1       3.662 -11.310  -7.537  0.00  0.00    +0.016 C 
ATOM     27  C   UNL     1       5.659  -9.896  -7.044  0.00  0.00    +0.016 C 
BRANCH  22  28
ATOM     28  O   UNL     1       4.555 -14.300  -5.125  0.00  0.00    -0.511 OA
ATOM     29  H   UNL     1       3.902 -14.764  -4.583  0.00  0.00    +0.292 HD
ENDBRANCH  22  28
ENDBRANCH  18  20
ENDBRANCH   3  18
TORSDOF 7
