REMARK  Name = ZINC05824337
REMARK  12 active torsions:
REMARK  status: ('A' for Active; 'I' for Inactive)
REMARK    1  A    between atoms: C_1  and  C_2
REMARK    2  A    between atoms: C_2  and  C_11
REMARK    3  A    between atoms: N_3  and  N_4
REMARK    4  A    between atoms: N_4  and  C_5
REMARK    5  A    between atoms: C_11  and  C_13
REMARK    6  A    between atoms: C_11  and  C_16
REMARK    7  A    between atoms: C_13  and  N_63
REMARK    8  A    between atoms: C_14  and  N_63
REMARK    9  A    between atoms: C_15  and  N_63
REMARK   10  A    between atoms: C_16  and  C_18
REMARK   11  A    between atoms: C_16  and  C_24
REMARK   12  A    between atoms: C_25  and  O_35
REMARK                            x       y       z     vdW  Elec       q    Type
REMARK                         _______ _______ _______ _____ _____    ______ ____
ROOT
ATOM      1  C   UNL     1       7.969   0.005  -1.262  0.00  0.00    +0.066 C 
ENDROOT
BRANCH   1   2
ATOM      2  C   UNL     1       9.406   0.394  -1.497  0.00  0.00    +0.087 A 
ATOM      3  C   UNL     1       9.922   0.380  -2.763  0.00  0.00    +0.138 A 
ATOM      4  C   UNL     1      11.331   0.769  -2.938  0.00  0.00    +0.059 A 
ATOM      5  C   UNL     1      11.923   0.778  -4.203  0.00  0.00    +0.015 A 
ATOM      6  C   UNL     1      13.243   1.147  -4.333  0.00  0.00    +0.001 A 
ATOM      7  C   UNL     1      13.983   1.508  -3.217  0.00  0.00    +0.004 A 
ATOM      8  C   UNL     1      13.410   1.503  -1.962  0.00  0.00    +0.047 A 
ATOM      9  C   UNL     1      12.080   1.134  -1.809  0.00  0.00    +0.143 A 
ATOM     10  O   UNL     1      11.503   1.124  -0.588  0.00  0.00    -0.422 OA
ATOM     11  C   UNL     1      10.218   0.776  -0.418  0.00  0.00    +0.345 A 
ATOM     12  O   UNL     1       9.744   0.788   0.705  0.00  0.00    -0.245 OA
BRANCH   3  13
ATOM     13  O   UNL     1       9.162   0.021  -3.822  0.00  0.00    -0.506 OA
ATOM     14  H   UNL     1       8.695   0.758  -4.239  0.00  0.00    +0.292 HD
ENDBRANCH   3  13
ENDBRANCH   1   2
BRANCH   1  15
ATOM     15  C   UNL     1       7.913  -1.385  -0.681  0.00  0.00    -0.039 A 
ATOM     16  C   UNL     1       8.328  -1.608   0.618  0.00  0.00    +0.004 A 
ATOM     17  C   UNL     1       8.272  -2.882   1.152  0.00  0.00    +0.000 A 
ATOM     18  C   UNL     1       7.810  -3.934   0.384  0.00  0.00    +0.000 A 
ATOM     19  C   UNL     1       7.400  -3.712  -0.918  0.00  0.00    +0.000 A 
ATOM     20  C   UNL     1       7.451  -2.437  -1.450  0.00  0.00    +0.004 A 
ENDBRANCH   1  15
BRANCH   1  21
ATOM     21  C   UNL     1       7.327   0.992  -0.285  0.00  0.00    +0.030 C 
BRANCH  21  23
ATOM     22  C   UNL     1       5.319  -0.559   0.328  0.00  0.00    +0.062 C 
ATOM     23  C   UNL     1       5.842   0.743  -0.222  0.00  0.00    +0.036 C 
ATOM     24  N   UNL     1       5.025   1.637  -0.636  0.00  0.00    -0.191 NA
BRANCH  24  25
ATOM     25  N   UNL     1       3.644   1.406  -0.578  0.00  0.00    -0.238 N 
ATOM     26  H   UNL     1       3.308   0.568  -0.224  0.00  0.00    +0.174 HD
BRANCH  25  27
ATOM     27  C   UNL     1       2.753   2.381  -1.030  0.00  0.00    +0.048 A 
ATOM     28  C   UNL     1       1.384   2.153  -0.974  0.00  0.00    +0.025 A 
ATOM     29  C   UNL     1       0.505   3.120  -1.421  0.00  0.00    +0.002 A 
ATOM     30  C   UNL     1       0.987   4.314  -1.925  0.00  0.00    +0.000 A 
ATOM     31  C   UNL     1       2.350   4.544  -1.983  0.00  0.00    +0.002 A 
ATOM     32  C   UNL     1       3.234   3.582  -1.538  0.00  0.00    +0.025 A 
ENDBRANCH  25  27
ENDBRANCH  24  25
ENDBRANCH  21  23
BRANCH  21  33
ATOM     33  C   UNL     1       7.584   2.422  -0.762  0.00  0.00    -0.069 C 
BRANCH  33  36
ATOM     34  C   UNL     1       7.702   3.303   1.490  0.00  0.00    -0.097 C 
ATOM     35  C   UNL     1       7.022   4.739  -0.337  0.00  0.00    -0.097 C 
ATOM     36  N   UNL     1       6.978   3.364   0.203  0.00  0.00    +0.376 N 
ATOM     37  H   UNL     1       5.998   3.097   0.358  0.00  0.00    -0.083 HD
ENDBRANCH  33  36
ENDBRANCH  21  33
ENDBRANCH   1  21
TORSDOF 9
