REMARK  Name = ZINC40284742
REMARK  3 active torsions:
REMARK  status: ('A' for Active; 'I' for Inactive)
REMARK    1  A    between atoms: C_3  and  N_8
REMARK    2  A    between atoms: C_14  and  O_23
REMARK    3  A    between atoms: C_16  and  C_18
REMARK                            x       y       z     vdW  Elec       q    Type
REMARK                         _______ _______ _______ _____ _____    ______ ____
ROOT
ATOM      1  N   UNL     1       3.586   2.129  -0.021  0.00  0.00    -0.283 N 
ATOM      2  C   UNL     1       3.914   3.159  -0.855  0.00  0.00    +0.206 A 
ATOM      3  N   UNL     1       5.122   3.575  -0.563  0.00  0.00    -0.237 NA
ATOM      4  C   UNL     1       5.606   2.852   0.439  0.00  0.00    +0.094 A 
ATOM      5  C   UNL     1       4.653   1.937   0.806  0.00  0.00    +0.165 A 
ATOM      6  N   UNL     1       4.855   1.055   1.827  0.00  0.00    -0.197 NA
ATOM      7  C   UNL     1       6.066   0.856   2.257  0.00  0.00    +0.190 C 
ATOM      8  C   UNL     1       7.271   1.523   1.661  0.00  0.00    +0.110 C 
ATOM      9  C   UNL     1       6.941   2.922   1.138  0.00  0.00    +0.087 C 
ENDROOT
BRANCH   1  12
ATOM     10  C   UNL     1      -0.017   1.378   0.010  0.00  0.00    +0.005 A 
ATOM     11  C   UNL     1       1.169   2.087   0.002  0.00  0.00    +0.026 A 
ATOM     12  C   UNL     1       2.381   1.411  -0.013  0.00  0.00    +0.052 A 
ATOM     13  C   UNL     1       2.400   0.023  -0.021  0.00  0.00    +0.064 A 
ATOM     14  C   UNL     1       1.210  -0.682  -0.013  0.00  0.00    +0.125 A 
ATOM     15  C   UNL     1       0.002  -0.004   0.002  0.00  0.00    +0.038 A 
ATOM     16  F   UNL     1       1.225  -2.033  -0.021  0.00  0.00    -0.205 F 
ENDBRANCH   1  12
BRANCH   9  17
ATOM     17  C   UNL     1       6.861   3.881   2.297  0.00  0.00    -0.001 A 
ATOM     18  C   UNL     1       7.569   5.016   2.517  0.00  0.00    +0.012 A 
ATOM     19  C   UNL     1       7.324   5.747   3.663  0.00  0.00    +0.008 A 
ATOM     20  C   UNL     1       6.384   5.308   4.535  0.00  0.00    +0.045 A 
ATOM     21  S   UNL     1       5.804   3.821   3.735  0.00  0.00    -0.101 S 
ENDBRANCH   9  17
BRANCH   7  22
ATOM     22  O   UNL     1       6.249   0.008   3.291  0.00  0.00    -0.495 OA
ATOM     23  H   UNL     1       5.431  -0.385   3.626  0.00  0.00    +0.293 HD
ENDBRANCH   7  22
TORSDOF 3
