REMARK  Name = ZINC16633369
REMARK  8 active torsions:
REMARK  status: ('A' for Active; 'I' for Inactive)
REMARK    1  A    between atoms: N_9  and  C_29
REMARK    2  A    between atoms: C_10  and  S_12
REMARK    3  A    between atoms: S_12  and  C_13
REMARK    4  A    between atoms: C_13  and  C_14
REMARK    5  A    between atoms: C_14  and  C_16
REMARK    6  A    between atoms: C_17  and  N_28
REMARK    7  A    between atoms: N_18  and  C_25
REMARK    8  A    between atoms: C_29  and  C_30
REMARK                            x       y       z     vdW  Elec       q    Type
REMARK                         _______ _______ _______ _____ _____    ______ ____
ROOT
ATOM      1  S   UNL     1       1.509   5.907   1.032  0.00  0.00    -0.080 S 
ENDROOT
BRANCH   1  11
ATOM      2  C   UNL     1      -1.169  11.937   1.726  0.00  0.00    +0.001 A 
ATOM      3  C   UNL     1      -2.150  10.988   1.466  0.00  0.00    +0.002 A 
ATOM      4  C   UNL     1      -1.827   9.673   1.287  0.00  0.00    +0.028 A 
ATOM      5  C   UNL     1      -0.489   9.272   1.366  0.00  0.00    +0.079 A 
ATOM      6  C   UNL     1       0.506  10.241   1.630  0.00  0.00    +0.065 A 
ATOM      7  C   UNL     1       0.147  11.576   1.808  0.00  0.00    +0.015 A 
ATOM      8  C   UNL     1       1.904   9.795   1.707  0.00  0.00    +0.262 A 
ATOM      9  O   UNL     1       2.805  10.582   1.932  0.00  0.00    -0.267 OA
ATOM     10  N   UNL     1       2.151   8.478   1.520  0.00  0.00    -0.285 N 
ATOM     11  C   UNL     1       1.127   7.610   1.269  0.00  0.00    +0.173 A 
ATOM     12  N   UNL     1      -0.125   7.986   1.190  0.00  0.00    -0.223 NA
BRANCH  10  13
ATOM     13  C   UNL     1       3.527   7.980   1.587  0.00  0.00    +0.159 C 
BRANCH  13  14
ATOM     14  C   UNL     1       4.159   8.036   0.194  0.00  0.00    +0.138 C 
ATOM     15  C   UNL     1       5.591   7.447   0.228  0.00  0.00    +0.035 C 
ATOM     16  C   UNL     1       5.765   7.008  -1.251  0.00  0.00    +0.031 C 
ATOM     17  C   UNL     1       4.335   6.569  -1.633  0.00  0.00    +0.160 C 
ATOM     18  O   UNL     1       3.430   7.199  -0.718  0.00  0.00    -0.375 OA
ENDBRANCH  13  14
ENDBRANCH  10  13
ENDBRANCH   1  11
BRANCH   1  19
ATOM     19  C   UNL     1      -0.153   5.248   0.747  0.00  0.00    +0.157 C 
BRANCH  19  20
ATOM     20  C   UNL     1      -0.071   3.762   0.513  0.00  0.00    +0.182 C 
ATOM     21  O   UNL     1       1.006   3.202   0.537  0.00  0.00    -0.291 OA
BRANCH  20  22
ATOM     22  C   UNL     1      -1.247   3.021   0.267  0.00  0.00    +0.120 A 
ATOM     23  C   UNL     1      -1.208   1.622   0.134  0.00  0.00    +0.116 A 
ATOM     24  N   UNL     1      -2.373   0.948  -0.099  0.00  0.00    -0.278 N 
ATOM     25  C   UNL     1      -3.544   1.595  -0.206  0.00  0.00    +0.331 A 
ATOM     26  O   UNL     1      -4.553   0.949  -0.413  0.00  0.00    -0.246 OA
ATOM     27  N   UNL     1      -3.642   2.930  -0.094  0.00  0.00    -0.274 N 
ATOM     28  H   UNL     1      -4.536   3.368  -0.182  0.00  0.00    +0.173 HD
ATOM     29  C   UNL     1      -2.549   3.687   0.136  0.00  0.00    +0.266 A 
ATOM     30  O   UNL     1      -2.641   4.896   0.237  0.00  0.00    -0.267 OA
BRANCH  24  31
ATOM     31  C   UNL     1      -2.344  -0.510  -0.233  0.00  0.00    +0.094 C 
ATOM     32  C   UNL     1      -1.284  -1.114  -1.157  0.00  0.00    +0.027 C 
ATOM     33  C   UNL     1      -2.754  -1.104  -1.582  0.00  0.00    +0.027 C 
ENDBRANCH  24  31
BRANCH  23  34
ATOM     34  N   UNL     1      -0.030   0.950   0.240  0.00  0.00    -0.344 N 
ATOM     35  H   UNL     1       0.803   1.391   0.011  0.00  0.00    +0.144 HD
ATOM     36  H   UNL     1      -0.022   0.031   0.550  0.00  0.00    +0.144 HD
ENDBRANCH  23  34
ENDBRANCH  20  22
ENDBRANCH  19  20
ENDBRANCH   1  19
TORSDOF 8
