REMARK  Name = ZINC36549572
REMARK  12 active torsions:
REMARK  status: ('A' for Active; 'I' for Inactive)
REMARK    1  A    between atoms: C_1  and  C_2
REMARK    2  A    between atoms: C_2  and  C_3
REMARK    3  A    between atoms: C_2  and  C_4
REMARK    4  A    between atoms: C_2  and  N_5
REMARK    5  A    between atoms: C_6  and  C_8
REMARK    6  A    between atoms: C_8  and  C_10
REMARK    7  A    between atoms: C_8  and  N_19
REMARK    8  A    between atoms: C_11  and  O_18
REMARK    9  A    between atoms: C_13  and  O_17
REMARK   10  A    between atoms: C_15  and  O_16
REMARK   11  A    between atoms: N_19  and  C_20
REMARK   12  A    between atoms: C_27  and  C_29
REMARK                            x       y       z     vdW  Elec       q    Type
REMARK                         _______ _______ _______ _____ _____    ______ ____
ROOT
ATOM      1  C   UNL     1       3.187  -0.358  -2.325  0.00  0.00    +0.204 C 
ENDROOT
BRANCH   1   2
ATOM      2  C   UNL     1       3.543  -1.803  -2.087  0.00  0.00    +0.065 A 
ATOM      3  C   UNL     1       4.631  -2.126  -1.290  0.00  0.00    +0.129 A 
ATOM      4  C   UNL     1       4.958  -3.456  -1.071  0.00  0.00    +0.091 A 
ATOM      5  C   UNL     1       4.198  -4.462  -1.647  0.00  0.00    +0.124 A 
ATOM      6  C   UNL     1       3.109  -4.138  -2.443  0.00  0.00    +0.091 A 
ATOM      7  C   UNL     1       2.779  -2.808  -2.659  0.00  0.00    +0.129 A 
BRANCH   7   8
ATOM      8  O   UNL     1       1.710  -2.491  -3.435  0.00  0.00    -0.506 OA
ATOM      9  H   UNL     1       1.921  -2.389  -4.373  0.00  0.00    +0.292 HD
ENDBRANCH   7   8
BRANCH   5  10
ATOM     10  O   UNL     1       4.519  -5.765  -1.433  0.00  0.00    -0.507 OA
ATOM     11  H   UNL     1       4.089  -6.154  -0.659  0.00  0.00    +0.292 HD
ENDBRANCH   5  10
BRANCH   3  12
ATOM     12  O   UNL     1       5.377  -1.141  -0.725  0.00  0.00    -0.506 OA
ATOM     13  H   UNL     1       5.068  -0.867   0.150  0.00  0.00    +0.292 HD
ENDBRANCH   3  12
ENDBRANCH   1   2
BRANCH   1  15
ATOM     14  N   UNL     1       1.738  -0.017  -0.350  0.00  0.00    -0.309 N 
ATOM     15  C   UNL     1       2.869   0.305  -1.010  0.00  0.00    +0.239 C 
ATOM     16  O   UNL     1       3.629   1.127  -0.545  0.00  0.00    -0.273 OA
ATOM     17  H   UNL     1       1.130  -0.674  -0.722  0.00  0.00    +0.149 HD
BRANCH  14  19
ATOM     18  C   UNL     1       1.320   2.140   0.725  0.00  0.00    +0.031 C 
ATOM     19  C   UNL     1       1.428   0.627   0.929  0.00  0.00    +0.026 C 
ATOM     20  C   UNL     1       2.541   0.327   1.934  0.00  0.00    +0.031 C 
ATOM     21  C   UNL     1       0.100   0.088   1.463  0.00  0.00    +0.031 C 
ENDBRANCH  14  19
ENDBRANCH   1  15
BRANCH   1  22
ATOM     22  N   UNL     1       4.319   0.326  -2.955  0.00  0.00    -0.250 N 
ATOM     23  C   UNL     1       4.195   1.607  -3.355  0.00  0.00    +0.253 C 
ATOM     24  O   UNL     1       3.172   2.221  -3.120  0.00  0.00    -0.270 OA
BRANCH  22  25
ATOM     25  C   UNL     1       5.530  -0.350  -3.141  0.00  0.00    +0.056 A 
ATOM     26  C   UNL     1       5.614  -1.385  -4.062  0.00  0.00    +0.025 A 
ATOM     27  C   UNL     1       6.811  -2.051  -4.244  0.00  0.00    +0.002 A 
ATOM     28  C   UNL     1       7.925  -1.688  -3.509  0.00  0.00    +0.002 A 
ATOM     29  C   UNL     1       7.845  -0.658  -2.590  0.00  0.00    +0.022 A 
ATOM     30  C   UNL     1       6.652   0.017  -2.408  0.00  0.00    +0.062 A 
ATOM     31 CL   UNL     1       6.555   1.315  -1.260  0.00  0.00    -0.082 Cl
ENDBRANCH  22  25
BRANCH  23  32
ATOM     32  C   UNL     1       5.301   2.266  -4.080  0.00  0.00    +0.056 A 
ATOM     33  C   UNL     1       6.012   1.568  -5.058  0.00  0.00    +0.014 A 
ATOM     34  C   UNL     1       7.043   2.189  -5.731  0.00  0.00    +0.001 A 
ATOM     35  C   UNL     1       7.375   3.501  -5.439  0.00  0.00    +0.001 A 
ATOM     36  C   UNL     1       6.676   4.198  -4.471  0.00  0.00    +0.021 A 
ATOM     37  C   UNL     1       5.637   3.591  -3.793  0.00  0.00    +0.053 A 
ATOM     38 CL   UNL     1       4.756   4.471  -2.583  0.00  0.00    -0.083 Cl
ENDBRANCH  23  32
ENDBRANCH   1  22
TORSDOF 9
