REMARK  Name = ZINC32960664
REMARK  9 active torsions:
REMARK  status: ('A' for Active; 'I' for Inactive)
REMARK    1  A    between atoms: C_1  and  C_2
REMARK    2  A    between atoms: C_2  and  C_3
REMARK    3  A    between atoms: C_3  and  C_5
REMARK    4  A    between atoms: C_3  and  C_6
REMARK    5  A    between atoms: C_6  and  C_8
REMARK    6  A    between atoms: C_6  and  N_24
REMARK    7  A    between atoms: N_10  and  C_11
REMARK    8  A    between atoms: C_11  and  C_13
REMARK    9  A    between atoms: C_11  and  C_14
REMARK                            x       y       z     vdW  Elec       q    Type
REMARK                         _______ _______ _______ _____ _____    ______ ____
ROOT
ATOM      1  C   UNL     1       3.661  -2.500  -3.719  0.00  0.00    +0.234 C 
ATOM      2  O   UNL     1       4.261  -1.934  -4.608  0.00  0.00    -0.274 OA
ATOM      3  N   UNL     1       2.804  -1.811  -2.939  0.00  0.00    -0.311 N 
ATOM      4  H   UNL     1       2.260  -2.324  -2.133  0.00  0.00    +0.149 HD
ENDROOT
BRANCH   3   5
ATOM      5  C   UNL     1       2.597  -0.378  -3.166  0.00  0.00    +0.076 C 
ATOM      6  C   UNL     1       1.537  -0.182  -4.252  0.00  0.00    +0.028 C 
BRANCH   5   7
ATOM      7  C   UNL     1       2.126   0.281  -1.868  0.00  0.00    -0.010 C 
ATOM      8  C   UNL     1       0.810  -0.360  -1.420  0.00  0.00    +0.012 C 
ATOM      9  C   UNL     1       0.339   0.299  -0.122  0.00  0.00    -0.010 C 
ATOM     10  C   UNL     1       0.123   1.795  -0.359  0.00  0.00    +0.007 C 
ATOM     11  C   UNL     1       1.438   2.436  -0.807  0.00  0.00    -0.010 C 
ATOM     12  C   UNL     1       1.909   1.777  -2.105  0.00  0.00    +0.012 C 
ATOM     13  C   UNL     1       2.498   2.239   0.279  0.00  0.00    +0.007 C 
ATOM     14  C   UNL     1       2.714   0.743   0.515  0.00  0.00    -0.010 C 
ATOM     15  C   UNL     1       1.399   0.103   0.964  0.00  0.00    +0.007 C 
ATOM     16  C   UNL     1       3.185   0.084  -0.782  0.00  0.00    +0.012 C 
ENDBRANCH   5   7
ENDBRANCH   3   5
BRANCH   1  17
ATOM     17  C   UNL     1       3.873  -3.973  -3.486  0.00  0.00    +0.163 C 
BRANCH  17  18
ATOM     18  N   UNL     1       5.141  -4.386  -4.093  0.00  0.00    -0.288 N 
ATOM     19  C   UNL     1       6.287  -4.291  -3.391  0.00  0.00    +0.298 C 
ATOM     20  O   UNL     1       6.259  -3.950  -2.224  0.00  0.00    -0.253 OA
ATOM     21  N   UNL     1       7.465  -4.574  -3.982  0.00  0.00    -0.313 N 
ATOM     22  H   UNL     1       5.157  -4.773  -5.123  0.00  0.00    +0.151 HD
ATOM     23  H   UNL     1       8.401  -4.497  -3.408  0.00  0.00    +0.146 HD
ATOM     24  H   UNL     1       7.491  -4.883  -5.037  0.00  0.00    +0.146 HD
ENDBRANCH  17  18
BRANCH  17  25
ATOM     25  C   UNL     1       2.724  -4.761  -4.118  0.00  0.00    +0.015 C 
ATOM     26  C   UNL     1       2.707  -4.513  -5.628  0.00  0.00    +0.010 C 
BRANCH  25  28
ATOM     27  C   UNL     1       1.710  -7.030  -4.372  0.00  0.00    +0.004 C 
ATOM     28  C   UNL     1       2.921  -6.254  -3.849  0.00  0.00    +0.002 C 
ENDBRANCH  25  28
ENDBRANCH  17  25
ENDBRANCH   1  17
TORSDOF 6
