REMARK  Name = ZINC39676105
REMARK  11 active torsions:
REMARK  status: ('A' for Active; 'I' for Inactive)
REMARK    1  A    between atoms: C_1  and  C_2
REMARK    2  A    between atoms: C_2  and  C_3
REMARK    3  A    between atoms: C_3  and  C_4
REMARK    4  A    between atoms: C_4  and  C_5
REMARK    5  A    between atoms: C_5  and  C_7
REMARK    6  A    between atoms: C_5  and  C_8
REMARK    7  A    between atoms: C_12  and  C_21
REMARK    8  A    between atoms: N_23  and  C_24
REMARK    9  A    between atoms: C_24  and  C_25
REMARK   10  A    between atoms: N_28  and  C_30
REMARK   11  A    between atoms: C_30  and  C_31
REMARK                            x       y       z     vdW  Elec       q    Type
REMARK                         _______ _______ _______ _____ _____    ______ ____
ROOT
ATOM      1  C   UNL     1       1.523  -3.767  -2.649  0.00  0.00    +0.218 C 
ATOM      2  O   UNL     1       1.026  -4.298  -1.678  0.00  0.00    -0.275 OA
ATOM      3  N   UNL     1       2.140  -4.516  -3.584  0.00  0.00    -0.300 N 
ATOM      4  C   UNL     1       2.806  -4.052  -4.824  0.00  0.00    +0.121 C 
ATOM      5  C   UNL     1       4.066  -4.939  -4.946  0.00  0.00    +0.100 C 
ATOM      6  C   UNL     1       3.731  -6.208  -4.145  0.00  0.00    -0.004 C 
ATOM      7  C   UNL     1       2.311  -5.988  -3.602  0.00  0.00    +0.115 C 
ATOM      8  C   UNL     1       4.711  -6.378  -2.989  0.00  0.00    -0.010 C 
ATOM      9  C   UNL     1       4.393  -7.677  -2.243  0.00  0.00    -0.082 C 
ATOM     10  N   UNL     1       4.494  -8.812  -3.167  0.00  0.00    +0.379 N 
ATOM     11  C   UNL     1       3.485  -8.688  -4.226  0.00  0.00    -0.082 C 
ATOM     12  C   UNL     1       3.765  -7.432  -5.056  0.00  0.00    -0.010 C 
ATOM     13  H   UNL     1       5.414  -8.825  -3.582  0.00  0.00    -0.086 HD
ATOM     14  H   UNL     1       4.344  -9.672  -2.661  0.00  0.00    -0.086 HD
ENDROOT
BRANCH   5  15
ATOM     15  C   UNL     1       5.259  -4.239  -4.348  0.00  0.00    +0.218 C 
ATOM     16  O   UNL     1       5.109  -3.460  -3.430  0.00  0.00    -0.275 OA
ATOM     17  N   UNL     1       6.494  -4.478  -4.834  0.00  0.00    -0.311 N 
ATOM     18  H   UNL     1       6.614  -5.101  -5.567  0.00  0.00    +0.149 HD
BRANCH  17  19
ATOM     19  C   UNL     1       7.654  -3.798  -4.253  0.00  0.00    +0.142 C 
BRANCH  19  20
ATOM     20  C   UNL     1       8.905  -4.237  -4.970  0.00  0.00    +0.007 A 
ATOM     21  C   UNL     1       9.711  -5.327  -4.626  0.00  0.00    +0.139 A 
ATOM     22  N   UNL     1      10.700  -5.389  -5.479  0.00  0.00    -0.179 NA
ATOM     23  N   UNL     1      10.555  -4.339  -6.395  0.00  0.00    -0.267 N 
ATOM     24  C   UNL     1       9.443  -3.650  -6.064  0.00  0.00    +0.113 A 
BRANCH  23  25
ATOM     25  C   UNL     1      11.450  -4.043  -7.517  0.00  0.00    +0.178 C 
BRANCH  25  26
ATOM     26  C   UNL     1      12.860  -3.891  -7.008  0.00  0.00    -0.026 A 
ATOM     27  C   UNL     1      13.320  -2.650  -6.609  0.00  0.00    +0.005 A 
ATOM     28  C   UNL     1      14.614  -2.510  -6.143  0.00  0.00    +0.000 A 
ATOM     29  C   UNL     1      15.447  -3.610  -6.075  0.00  0.00    +0.000 A 
ATOM     30  C   UNL     1      14.987  -4.851  -6.473  0.00  0.00    +0.000 A 
ATOM     31  C   UNL     1      13.692  -4.992  -6.936  0.00  0.00    +0.005 A 
ENDBRANCH  25  26
ENDBRANCH  23  25
ENDBRANCH  19  20
ENDBRANCH  17  19
ENDBRANCH   5  15
BRANCH   1  32
ATOM     32  C   UNL     1       1.451  -2.270  -2.809  0.00  0.00    +0.072 C 
ATOM     33  C   UNL     1       0.708  -1.931  -4.103  0.00  0.00    +0.017 C 
BRANCH  32  34
ATOM     34  C   UNL     1       0.704  -1.665  -1.618  0.00  0.00    +0.012 C 
BRANCH  34  35
ATOM     35  C   UNL     1       0.738  -0.139  -1.716  0.00  0.00    +0.000 C 
BRANCH  35  37
ATOM     36  C   UNL     1       0.025   1.992  -0.624  0.00  0.00    +0.004 C 
ATOM     37  C   UNL     1      -0.009   0.466  -0.526  0.00  0.00    -0.003 C 
ENDBRANCH  35  37
ENDBRANCH  34  35
ENDBRANCH  32  34
ENDBRANCH   1  32
TORSDOF 9
