REMARK  Name = ZINC14987798
REMARK  10 active torsions:
REMARK  status: ('A' for Active; 'I' for Inactive)
REMARK    1  A    between atoms: C_1  and  C_2
REMARK    2  A    between atoms: C_2  and  C_3
REMARK    3  A    between atoms: C_3  and  C_22
REMARK    4  A    between atoms: N_6  and  C_10
REMARK    5  A    between atoms: C_10  and  C_11
REMARK    6  A    between atoms: C_27  and  C_28
REMARK    7  A    between atoms: C_27  and  N_71
REMARK    8  A    between atoms: C_33  and  O_34
REMARK    9  A    between atoms: O_34  and  C_35
REMARK   10  A    between atoms: C_35  and  C_36
REMARK                            x       y       z     vdW  Elec       q    Type
REMARK                         _______ _______ _______ _____ _____    ______ ____
ROOT
ATOM      1  C   UNL     1       7.659   2.348  -1.572  0.00  0.00    +0.115 C 
ATOM      2  C   UNL     1       6.668   2.549  -0.443  0.00  0.00    +0.247 C 
ATOM      3  O   UNL     1       6.570   1.891   0.571  0.00  0.00    -0.273 OA
ATOM      4  N   UNL     1       5.918   3.610  -0.801  0.00  0.00    -0.221 N 
ATOM      5  C   UNL     1       6.298   4.106  -1.984  0.00  0.00    +0.309 C 
ATOM      6  O   UNL     1       5.774   5.066  -2.514  0.00  0.00    -0.252 OA
ATOM      7  N   UNL     1       7.326   3.424  -2.521  0.00  0.00    -0.285 N 
ATOM      8  H   UNL     1       7.762   3.605  -3.368  0.00  0.00    +0.151 HD
ENDROOT
BRANCH   1   9
ATOM      9  C   UNL     1       9.093   2.504  -1.063  0.00  0.00    +0.018 C 
ATOM     10  C   UNL     1       9.449   1.319  -0.161  0.00  0.00    -0.013 C 
ATOM     11  C   UNL     1      10.861   1.512   0.395  0.00  0.00    -0.078 C 
ATOM     12  C   UNL     1      10.632   3.923   0.299  0.00  0.00    -0.078 C 
ATOM     13  C   UNL     1       9.212   3.802  -0.259  0.00  0.00    -0.013 C 
ATOM     14  N   UNL     1      10.903   2.765   1.178  0.00  0.00    +0.382 N 
ATOM     15  H   UNL     1      10.181   2.726   1.908  0.00  0.00    -0.081 HD
BRANCH  14  16
ATOM     16  C   UNL     1      12.225   2.917   1.819  0.00  0.00    -0.039 C 
BRANCH  16  17
ATOM     17  C   UNL     1      12.601   1.620   2.488  0.00  0.00    -0.022 A 
ATOM     18  C   UNL     1      12.414   1.464   3.848  0.00  0.00    +0.005 A 
ATOM     19  C   UNL     1      12.753   0.273   4.462  0.00  0.00    +0.000 A 
ATOM     20  C   UNL     1      13.291  -0.762   3.719  0.00  0.00    +0.004 A 
ATOM     21  C   UNL     1      13.485  -0.610   2.360  0.00  0.00    +0.046 A 
ATOM     22  C   UNL     1      13.140   0.583   1.740  0.00  0.00    +0.122 A 
BRANCH  22  23
ATOM     23  O   UNL     1      13.330   0.736   0.404  0.00  0.00    -0.492 OA
BRANCH  23  24
ATOM     24  C   UNL     1      13.890  -0.373  -0.303  0.00  0.00    +0.225 C 
ATOM     25  C   UNL     1      14.028  -0.017  -1.784  0.00  0.00    +0.048 C 
ENDBRANCH  23  24
ENDBRANCH  22  23
ENDBRANCH  16  17
ENDBRANCH  14  16
ENDBRANCH   1   9
BRANCH   1  27
ATOM     26  C   UNL     1       6.049   0.873  -2.787  0.00  0.00    +0.006 C 
ATOM     27  C   UNL     1       7.468   0.977  -2.224  0.00  0.00    +0.032 C 
ENDBRANCH   1  27
BRANCH   4  28
ATOM     28  C   UNL     1       4.826   4.156   0.008  0.00  0.00    +0.166 C 
BRANCH  28  29
ATOM     29  C   UNL     1       3.514   3.469  -0.377  0.00  0.00    +0.229 C 
ATOM     30  C   UNL     1       2.347   4.123   0.377  0.00  0.00    +0.275 C 
ATOM     31  O   UNL     1       1.140   3.450   0.004  0.00  0.00    -0.485 OA
ATOM     32  C   UNL     1       1.174   2.089   0.002  0.00  0.00    +0.162 A 
ATOM     33  C   UNL     1      -0.017   1.378   0.010  0.00  0.00    +0.049 A 
ATOM     34  C   UNL     1       0.002  -0.004   0.002  0.00  0.00    +0.004 A 
ATOM     35  C   UNL     1       1.207  -0.681  -0.013  0.00  0.00    +0.004 A 
ATOM     36  C   UNL     1       2.397   0.021  -0.020  0.00  0.00    +0.049 A 
ATOM     37  C   UNL     1       2.386   1.408  -0.012  0.00  0.00    +0.163 A 
ATOM     38  O   UNL     1       3.566   2.086  -0.012  0.00  0.00    -0.480 OA
ENDBRANCH  28  29
ENDBRANCH   4  28
TORSDOF 8
