REMARK  Name = ZINC20637881
REMARK  3 active torsions:
REMARK  status: ('A' for Active; 'I' for Inactive)
REMARK    1  A    between atoms: C_7  and  N_26
REMARK    2  A    between atoms: C_9  and  O_25
REMARK    3  A    between atoms: N_14  and  C_17
REMARK                            x       y       z     vdW  Elec       q    Type
REMARK                         _______ _______ _______ _____ _____    ______ ____
ROOT
ATOM      1  C   UNL     1      -0.094   1.241  -0.407  0.00  0.00    +0.000 A 
ATOM      2  C   UNL     1       1.077   1.971  -0.478  0.00  0.00    +0.000 A 
ATOM      3  C   UNL     1       2.297   1.328  -0.404  0.00  0.00    +0.004 A 
ATOM      4  C   UNL     1       2.352  -0.049  -0.257  0.00  0.00    -0.037 A 
ATOM      5  C   UNL     1       1.179  -0.780  -0.188  0.00  0.00    -0.055 A 
ATOM      6  C   UNL     1      -0.042  -0.132  -0.262  0.00  0.00    +0.002 A 
ATOM      7  C   UNL     1       1.502  -2.251  -0.035  0.00  0.00    -0.007 C 
ATOM      8  C   UNL     1       2.977  -2.296   0.419  0.00  0.00    +0.116 C 
ATOM      9  C   UNL     1       3.536  -0.979  -0.148  0.00  0.00    +0.023 C 
ATOM     10  C   UNL     1       4.576  -0.401   0.808  0.00  0.00    +0.033 C 
ATOM     11  C   UNL     1       5.739  -1.389   0.953  0.00  0.00    +0.107 C 
ATOM     12  N   UNL     1       6.248  -1.718  -0.385  0.00  0.00    -0.315 N 
ATOM     13  C   UNL     1       5.307  -2.217  -1.398  0.00  0.00    +0.107 C 
ATOM     14  C   UNL     1       4.148  -1.222  -1.525  0.00  0.00    +0.033 C 
ENDROOT
BRANCH  12  15
ATOM     15  C   UNL     1       7.586  -1.562  -0.686  0.00  0.00    +0.130 A 
ATOM     16  C   UNL     1       8.547  -1.736   0.299  0.00  0.00    +0.113 A 
ATOM     17  C   UNL     1       9.894  -1.571  -0.038  0.00  0.00    +0.254 A 
ATOM     18  N   UNL     1      10.212  -1.247  -1.309  0.00  0.00    -0.295 N 
ATOM     19  C   UNL     1       9.232  -1.087  -2.239  0.00  0.00    +0.195 A 
ATOM     20  N   UNL     1       7.962  -1.247  -1.931  0.00  0.00    -0.201 NA
ATOM     21  N   UNL     1       9.574  -0.757  -3.523  0.00  0.00    -0.329 N 
ATOM     22  O   UNL     1      10.767  -1.716   0.803  0.00  0.00    -0.268 OA
ATOM     23  H   UNL     1      10.507  -0.641  -3.762  0.00  0.00    +0.145 HD
ATOM     24  H   UNL     1       8.883  -0.640  -4.195  0.00  0.00    +0.145 HD
ATOM     25  H   UNL     1      11.141  -1.129  -1.559  0.00  0.00    +0.172 HD
ENDBRANCH  12  15
BRANCH   7  26
ATOM     26  N   UNL     1       1.340  -2.944  -1.319  0.00  0.00    +0.386 N 
ATOM     27  C   UNL     1       1.607  -4.396  -1.155  0.00  0.00    -0.078 C 
ATOM     28  C   UNL     1       0.874  -5.031  -2.364  0.00  0.00    -0.020 C 
ATOM     29  C   UNL     1      -0.403  -4.168  -2.486  0.00  0.00    -0.020 C 
ATOM     30  C   UNL     1      -0.061  -2.841  -1.782  0.00  0.00    -0.078 C 
ATOM     31  H   UNL     1       1.964  -2.551  -2.008  0.00  0.00    -0.081 HD
ENDBRANCH   7  26
BRANCH   8  32
ATOM     32  O   UNL     1       3.070  -2.320   1.845  0.00  0.00    -0.392 OA
ATOM     33  H   UNL     1       2.654  -3.092   2.253  0.00  0.00    +0.210 HD
ENDBRANCH   8  32
TORSDOF 3
