REMARK  Name = ZINC63625926
REMARK  7 active torsions:
REMARK  status: ('A' for Active; 'I' for Inactive)
REMARK    1  A    between atoms: C_6  and  C_11
REMARK    2  A    between atoms: N_13  and  N_14
REMARK    3  A    between atoms: C_15  and  C_17
REMARK    4  A    between atoms: C_17  and  C_18
REMARK    5  A    between atoms: C_18  and  C_19
REMARK    6  A    between atoms: C_19  and  C_20
REMARK    7  A    between atoms: N_25  and  C_28
REMARK                            x       y       z     vdW  Elec       q    Type
REMARK                         _______ _______ _______ _____ _____    ______ ____
ROOT
ATOM      1  N   UNL     1       3.834  -4.694  -2.634  0.00  0.00    -0.234 N 
ATOM      2  C   UNL     1       3.525  -5.989  -2.846  0.00  0.00    +0.229 C 
ATOM      3  O   UNL     1       2.852  -6.593  -2.038  0.00  0.00    -0.274 OA
ATOM      4  H   UNL     1       4.372  -4.212  -3.280  0.00  0.00    +0.173 HD
ENDROOT
BRANCH   1   7
ATOM      5  C   UNL     1       3.686  -2.751  -1.266  0.00  0.00    +0.255 C 
ATOM      6  O   UNL     1       4.359  -2.148  -2.074  0.00  0.00    -0.272 OA
ATOM      7  N   UNL     1       3.377  -4.046  -1.479  0.00  0.00    -0.232 N 
ATOM      8  H   UNL     1       2.839  -4.529  -0.832  0.00  0.00    +0.173 HD
BRANCH   5  14
ATOM      9  C   UNL     1       0.071   1.381   0.011  0.00  0.00    +0.001 A 
ATOM     10  C   UNL     1       1.261   2.121   0.017  0.00  0.00    +0.002 A 
ATOM     11  C   UNL     1       2.481   1.542   0.010  0.00  0.00    +0.026 A 
ATOM     12  C   UNL     1       2.603   0.125  -0.003  0.00  0.00    +0.043 A 
ATOM     13  N   UNL     1       3.653  -0.660  -0.011  0.00  0.00    -0.370 N 
ATOM     14  C   UNL     1       3.194  -2.054  -0.024  0.00  0.00    +0.191 C 
ATOM     15  C   UNL     1       1.683  -1.994  -0.021  0.00  0.00    +0.016 C 
ATOM     16  C   UNL     1       1.361  -0.680  -0.009  0.00  0.00    -0.004 A 
ATOM     17  C   UNL     1       0.075   0.028  -0.001  0.00  0.00    +0.010 A 
ATOM     18  H   UNL     1       4.578  -0.369  -0.010  0.00  0.00    +0.161 HD
ENDBRANCH   5  14
ENDBRANCH   1   7
BRANCH   2  19
ATOM     19  C   UNL     1       4.017  -6.686  -4.089  0.00  0.00    +0.098 C 
BRANCH  19  20
ATOM     20  C   UNL     1       3.530  -8.137  -4.086  0.00  0.00    +0.018 C 
BRANCH  20  21
ATOM     21  C   UNL     1       4.029  -8.845  -5.347  0.00  0.00    +0.096 C 
BRANCH  21  22
ATOM     22  C   UNL     1       3.550 -10.274  -5.344  0.00  0.00    +0.216 C 
ATOM     23  O   UNL     1       2.876 -10.685  -4.424  0.00  0.00    -0.276 OA
ATOM     24  N   UNL     1       3.870 -11.094  -6.364  0.00  0.00    -0.298 N 
ATOM     25  C   UNL     1       4.692 -10.611  -7.483  0.00  0.00    +0.126 C 
ATOM     26  C   UNL     1       5.909 -11.532  -7.631  0.00  0.00    +0.124 C 
ATOM     27  N   UNL     1       5.444 -12.926  -7.644  0.00  0.00    -0.327 N 
ATOM     28  C   UNL     1       4.622 -13.410  -6.525  0.00  0.00    +0.124 C 
ATOM     29  C   UNL     1       3.410 -12.490  -6.374  0.00  0.00    +0.126 C 
BRANCH  27  30
ATOM     30  C   UNL     1       5.777 -13.778  -8.702  0.00  0.00    +0.030 A 
ATOM     31  C   UNL     1       5.430 -15.121  -8.649  0.00  0.00    +0.026 A 
ATOM     32  C   UNL     1       5.759 -15.960  -9.695  0.00  0.00    +0.040 A 
ATOM     33  C   UNL     1       6.434 -15.463 -10.797  0.00  0.00    +0.124 A 
ATOM     34  C   UNL     1       6.781 -14.123 -10.852  0.00  0.00    +0.040 A 
ATOM     35  C   UNL     1       6.449 -13.280  -9.810  0.00  0.00    +0.026 A 
ATOM     36  F   UNL     1       6.756 -16.285 -11.819  0.00  0.00    -0.205 F 
ENDBRANCH  27  30
ENDBRANCH  21  22
ENDBRANCH  20  21
ENDBRANCH  19  20
ENDBRANCH   2  19
TORSDOF 7
