REMARK  Name = ZINC09298257
REMARK  8 active torsions:
REMARK  status: ('A' for Active; 'I' for Inactive)
REMARK    1  A    between atoms: C_1  and  C_2
REMARK    2  A    between atoms: C_2  and  O_3
REMARK    3  A    between atoms: O_3  and  C_4
REMARK    4  A    between atoms: C_7  and  C_9
REMARK    5  A    between atoms: C_13  and  N_14
REMARK    6  A    between atoms: C_15  and  C_17
REMARK    7  A    between atoms: C_19  and  C_27
REMARK    8  A    between atoms: C_33  and  C_37
REMARK                            x       y       z     vdW  Elec       q    Type
REMARK                         _______ _______ _______ _____ _____    ______ ____
ROOT
ATOM      1  C   UNL     1      -0.587  -4.122   1.025  0.00  0.00    +0.069 A 
ATOM      2  C   UNL     1      -0.348  -2.701   0.832  0.00  0.00    -0.023 A 
ATOM      3  C   UNL     1      -1.392  -2.004   0.334  0.00  0.00    -0.004 A 
ATOM      4  S   UNL     1      -2.678  -3.203   0.122  0.00  0.00    -0.077 S 
ATOM      5  C   UNL     1      -1.842  -4.612   0.686  0.00  0.00    +0.085 A 
ATOM      6  C   UNL     1      -1.438  -0.538   0.032  0.00  0.00    +0.046 C 
ATOM      7  C   UNL     1       0.002  -0.003   0.018  0.00  0.00    -0.009 C 
ATOM      8  C   UNL     1       0.728  -0.507   1.268  0.00  0.00    +0.008 C 
ATOM      9  C   UNL     1       0.972  -2.013   1.156  0.00  0.00    +0.037 C 
ATOM     10  C   UNL     1      -0.021   1.527   0.019  0.00  0.00    +0.008 C 
ENDROOT
BRANCH   1  14
ATOM     11  C   UNL     1       2.269  -6.429   1.207  0.00  0.00    +0.407 C 
ATOM     12  O   UNL     1       2.363  -6.604   2.406  0.00  0.00    -0.226 OA
ATOM     13  N   UNL     1       1.310  -5.619   0.718  0.00  0.00    -0.217 N 
ATOM     14  C   UNL     1       0.455  -5.003   1.558  0.00  0.00    +0.255 C 
ATOM     15  O   UNL     1       0.549  -5.178   2.758  0.00  0.00    -0.270 OA
ATOM     16  H   UNL     1       1.236  -5.479  -0.239  0.00  0.00    +0.161 HD
BRANCH  11  17
ATOM     17  O   UNL     1       3.123  -7.045   0.368  0.00  0.00    -0.450 OA
BRANCH  17  19
ATOM     18  C   UNL     1       5.002  -8.510  -0.136  0.00  0.00    +0.048 C 
ATOM     19  C   UNL     1       4.131  -7.903   0.966  0.00  0.00    +0.230 C 
ENDBRANCH  17  19
ENDBRANCH  11  17
ENDBRANCH   1  14
BRANCH   5  20
ATOM     20  N   UNL     1      -2.310  -5.912   0.776  0.00  0.00    -0.275 N 
ATOM     21  C   UNL     1      -3.570  -6.202   0.395  0.00  0.00    +0.249 C 
ATOM     22  O   UNL     1      -4.295  -5.323  -0.028  0.00  0.00    -0.270 OA
ATOM     23  H   UNL     1      -1.732  -6.614   1.113  0.00  0.00    +0.156 HD
BRANCH  21  24
ATOM     24  C   UNL     1      -4.071  -7.590   0.491  0.00  0.00    +0.048 A 
ATOM     25  C   UNL     1      -3.234  -8.634   0.858  0.00  0.00    +0.042 A 
ATOM     26  C   UNL     1      -3.753  -9.938   0.937  0.00  0.00    +0.079 A 
ATOM     27  N   UNL     1      -5.017 -10.210   0.674  0.00  0.00    -0.246 NA
ATOM     28  C   UNL     1      -5.889  -9.266   0.315  0.00  0.00    +0.072 A 
ATOM     29  C   UNL     1      -5.470  -7.916   0.209  0.00  0.00    +0.013 A 
ATOM     30  C   UNL     1      -6.389  -6.929  -0.162  0.00  0.00    +0.011 A 
ATOM     31  C   UNL     1      -7.683  -7.274  -0.415  0.00  0.00    +0.001 A 
ATOM     32  C   UNL     1      -8.102  -8.599  -0.309  0.00  0.00    +0.002 A 
ATOM     33  C   UNL     1      -7.232  -9.585   0.040  0.00  0.00    +0.028 A 
BRANCH  26  34
ATOM     34  C   UNL     1      -2.854 -11.040   1.328  0.00  0.00    +0.038 A 
ATOM     35  C   UNL     1      -3.135 -12.374   1.475  0.00  0.00    +0.017 A 
ATOM     36  C   UNL     1      -2.122 -13.226   1.848  0.00  0.00    +0.008 A 
ATOM     37  C   UNL     1      -0.879 -12.722   2.070  0.00  0.00    +0.046 A 
ATOM     38  S   UNL     1      -1.117 -10.983   1.740  0.00  0.00    -0.095 S 
ENDBRANCH  26  34
ENDBRANCH  21  24
ENDBRANCH   5  20
TORSDOF 6
