REMARK  Name = ZINC01177262
REMARK  9 active torsions:
REMARK  status: ('A' for Active; 'I' for Inactive)
REMARK    1  A    between atoms: C_1  and  C_2
REMARK    2  A    between atoms: C_5  and  N_9
REMARK    3  A    between atoms: C_6  and  C_8
REMARK    4  A    between atoms: C_10  and  C_12
REMARK    5  A    between atoms: C_13  and  C_29
REMARK    6  A    between atoms: C_18  and  C_20
REMARK    7  A    between atoms: C_23  and  O_28
REMARK    8  A    between atoms: C_24  and  O_26
REMARK    9  A    between atoms: O_26  and  C_27
REMARK                            x       y       z     vdW  Elec       q    Type
REMARK                         _______ _______ _______ _____ _____    ______ ____
ROOT
ATOM      1  C   UNL     1      -2.676  -0.897   0.931  0.00  0.00    +0.056 C 
ATOM      2  C   UNL     1      -3.656  -0.116   1.433  0.00  0.00    +0.017 C 
ATOM      3  N   UNL     1      -4.538   0.523   0.610  0.00  0.00    -0.300 N 
ATOM      4  C   UNL     1      -4.508   0.432  -0.726  0.00  0.00    +0.135 C 
ATOM      5  S   UNL     1      -5.675   1.287  -1.641  0.00  0.00    -0.019 S 
ATOM      6  N   UNL     1      -3.588  -0.310  -1.373  0.00  0.00    -0.315 N 
ATOM      7  C   UNL     1      -2.589  -1.040  -0.575  0.00  0.00    +0.139 C 
ATOM      8  C   UNL     1      -3.779   0.053   2.925  0.00  0.00    +0.061 C 
ATOM      9  H   UNL     1      -5.226   1.074   1.016  0.00  0.00    +0.154 HD
ATOM     10  H   UNL     1      -3.584  -0.361  -2.341  0.00  0.00    +0.149 HD
ENDROOT
BRANCH   7  11
ATOM     11  C   UNL     1      -1.221  -0.578  -1.007  0.00  0.00    -0.019 A 
ATOM     12  C   UNL     1      -0.964   0.772  -1.154  0.00  0.00    +0.009 A 
ATOM     13  C   UNL     1       0.289   1.201  -1.551  0.00  0.00    +0.049 A 
ATOM     14  C   UNL     1       1.291   0.277  -1.801  0.00  0.00    +0.158 A 
ATOM     15  C   UNL     1       1.032  -1.082  -1.652  0.00  0.00    +0.162 A 
ATOM     16  C   UNL     1      -0.226  -1.505  -1.254  0.00  0.00    +0.055 A 
BRANCH  15  17
ATOM     17  O   UNL     1       2.012  -1.993  -1.896  0.00  0.00    -0.491 OA
ATOM     18  C   UNL     1       1.652  -3.373  -1.806  0.00  0.00    +0.277 C 
ENDBRANCH  15  17
BRANCH  14  19
ATOM     19  O   UNL     1       2.524   0.697  -2.191  0.00  0.00    -0.503 OA
ATOM     20  H   UNL     1       2.628   0.774  -3.149  0.00  0.00    +0.292 HD
ENDBRANCH  14  19
ENDBRANCH   7  11
BRANCH   1  22
ATOM     21  N   UNL     1      -0.732  -0.880   2.329  0.00  0.00    -0.281 N 
ATOM     22  C   UNL     1      -1.760  -1.560   1.784  0.00  0.00    +0.248 C 
ATOM     23  O   UNL     1      -1.901  -2.745   2.025  0.00  0.00    -0.270 OA
ATOM     24  H   UNL     1      -0.665   0.080   2.204  0.00  0.00    +0.155 HD
BRANCH  21  29
ATOM     25  C   UNL     1       3.203  -3.628   5.351  0.00  0.00    +0.044 C 
ATOM     26  C   UNL     1       2.158  -2.898   4.548  0.00  0.00    -0.050 A 
ATOM     27  C   UNL     1       1.363  -3.594   3.656  0.00  0.00    +0.005 A 
ATOM     28  C   UNL     1       0.400  -2.929   2.922  0.00  0.00    +0.024 A 
ATOM     29  C   UNL     1       0.238  -1.558   3.074  0.00  0.00    +0.037 A 
ATOM     30  C   UNL     1       1.038  -0.862   3.971  0.00  0.00    -0.029 A 
ATOM     31  C   UNL     1       1.996  -1.534   4.705  0.00  0.00    +0.008 A 
ATOM     32  C   UNL     1       0.862   0.625   4.143  0.00  0.00    +0.045 C 
ENDBRANCH  21  29
ENDBRANCH   1  22
TORSDOF 5
