REMARK  Name = ZINC22746405
REMARK  10 active torsions:
REMARK  status: ('A' for Active; 'I' for Inactive)
REMARK    1  A    between atoms: C_1  and  C_2
REMARK    2  A    between atoms: C_7  and  N_12
REMARK    3  A    between atoms: C_9  and  C_11
REMARK    4  A    between atoms: C_13  and  C_15
REMARK    5  A    between atoms: C_15  and  C_17
REMARK    6  A    between atoms: C_15  and  S_18
REMARK    7  A    between atoms: S_18  and  C_19
REMARK    8  A    between atoms: C_22  and  C_31
REMARK    9  A    between atoms: N_23  and  C_24
REMARK   10  A    between atoms: C_24  and  C_25
REMARK                            x       y       z     vdW  Elec       q    Type
REMARK                         _______ _______ _______ _____ _____    ______ ____
ROOT
ATOM      1  C   UNL     1      -3.187  -1.696   0.239  0.00  0.00    +0.193 A 
ATOM      2  N   UNL     1      -2.337  -2.677   0.044  0.00  0.00    -0.122 NA
ATOM      3  N   UNL     1      -1.165  -2.207  -0.192  0.00  0.00    -0.128 NA
ATOM      4  C   UNL     1      -1.192  -0.894  -0.155  0.00  0.00    +0.167 A 
ATOM      5  N   UNL     1      -2.489  -0.526   0.119  0.00  0.00    -0.300 N 
ENDROOT
BRANCH   4   6
ATOM      6  C   UNL     1      -0.048   0.014  -0.372  0.00  0.00    +0.044 A 
ATOM      7  C   UNL     1       0.293   1.085   0.389  0.00  0.00    +0.095 A 
ATOM      8  N   UNL     1       1.410   1.679  -0.126  0.00  0.00    -0.360 N 
ATOM      9  H   UNL     1       1.834   2.568   0.363  0.00  0.00    +0.165 HD
ATOM     10  C   UNL     1       1.833   1.003  -1.250  0.00  0.00    +0.047 A 
ATOM     11  C   UNL     1       0.945  -0.066  -1.457  0.00  0.00    +0.010 A 
ATOM     12  C   UNL     1       1.131  -0.928  -2.536  0.00  0.00    +0.011 A 
ATOM     13  C   UNL     1       2.188  -0.726  -3.396  0.00  0.00    +0.001 A 
ATOM     14  C   UNL     1       3.066   0.329  -3.192  0.00  0.00    +0.002 A 
ATOM     15  C   UNL     1       2.894   1.189  -2.130  0.00  0.00    +0.026 A 
ENDBRANCH   4   6
BRANCH   1  16
ATOM     16  S   UNL     1      -4.906  -1.856   0.589  0.00  0.00    -0.074 S 
BRANCH  16  17
ATOM     17  C   UNL     1      -5.061  -3.659   0.585  0.00  0.00    +0.137 C 
ATOM     18  C   UNL     1      -4.773  -4.193  -0.820  0.00  0.00    +0.029 C 
BRANCH  17  20
ATOM     19  N   UNL     1      -6.694  -5.252   1.541  0.00  0.00    -0.311 N 
ATOM     20  C   UNL     1      -6.460  -4.044   0.991  0.00  0.00    +0.226 C 
ATOM     21  O   UNL     1      -7.376  -3.267   0.822  0.00  0.00    -0.275 OA
ATOM     22  H   UNL     1      -5.864  -5.957   1.694  0.00  0.00    +0.149 HD
BRANCH  19  28
ATOM     23  C   UNL     1     -10.608  -6.941   1.356  0.00  0.00    +0.008 C 
ATOM     24  C   UNL     1      -9.606  -7.541   2.345  0.00  0.00    -0.009 C 
ATOM     25  C   UNL     1      -9.894  -7.008   3.750  0.00  0.00    +0.003 C 
ATOM     26  C   UNL     1      -9.763  -5.484   3.753  0.00  0.00    +0.002 C 
ATOM     27  C   UNL     1      -8.343  -5.093   3.341  0.00  0.00    +0.022 C 
ATOM     28  C   UNL     1      -8.055  -5.626   1.936  0.00  0.00    +0.076 C 
ATOM     29  C   UNL     1      -8.185  -7.151   1.932  0.00  0.00    +0.009 C 
ATOM     30  C   UNL     1      -7.897  -7.684   0.528  0.00  0.00    +0.009 C 
ENDBRANCH  19  28
ENDBRANCH  17  20
ENDBRANCH  16  17
ENDBRANCH   1  16
BRANCH   5  31
ATOM     31  C   UNL     1      -3.013   0.836   0.254  0.00  0.00    +0.157 C 
BRANCH  31  32
ATOM     32  C   UNL     1      -3.401   1.372  -1.125  0.00  0.00    +0.138 C 
ATOM     33  C   UNL     1      -3.839   2.850  -1.024  0.00  0.00    +0.035 C 
ATOM     34  C   UNL     1      -4.999   2.968  -2.038  0.00  0.00    +0.031 C 
ATOM     35  C   UNL     1      -5.125   1.548  -2.632  0.00  0.00    +0.160 C 
ATOM     36  O   UNL     1      -4.564   0.676  -1.626  0.00  0.00    -0.375 OA
ENDBRANCH  31  32
ENDBRANCH   5  31
TORSDOF 7
