REMARK  Name = ZINC12813874
REMARK  10 active torsions:
REMARK  status: ('A' for Active; 'I' for Inactive)
REMARK    1  A    between atoms: C_1  and  C_2
REMARK    2  A    between atoms: C_8  and  C_30
REMARK    3  A    between atoms: C_12  and  C_13
REMARK    4  A    between atoms: N_15  and  N_16
REMARK    5  A    between atoms: C_17  and  C_19
REMARK    6  A    between atoms: C_19  and  C_21
REMARK    7  A    between atoms: C_19  and  O_22
REMARK    8  A    between atoms: O_22  and  C_23
REMARK    9  A    between atoms: C_30  and  S_31
REMARK   10  A    between atoms: S_31  and  C_32
REMARK                            x       y       z     vdW  Elec       q    Type
REMARK                         _______ _______ _______ _____ _____    ______ ____
ROOT
ATOM      1  C   UNL     1      -2.207   8.225   1.335  0.00  0.00    +0.267 C 
ATOM      2  O   UNL     1      -3.274   7.791   0.941  0.00  0.00    -0.268 OA
ATOM      3  N   UNL     1      -1.092   7.477   1.220  0.00  0.00    -0.230 N 
ATOM      4  H   UNL     1      -0.242   7.823   1.534  0.00  0.00    +0.173 HD
ENDROOT
BRANCH   1  16
ATOM      5  C   UNL     1      -4.549  10.125   1.709  0.00  0.00    +0.046 C 
ATOM      6  C   UNL     1      -3.142  10.460   2.132  0.00  0.00    -0.017 A 
ATOM      7  C   UNL     1      -2.866  11.692   2.731  0.00  0.00    +0.076 A 
ATOM      8  C   UNL     1      -3.787  12.808   3.044  0.00  0.00    +0.260 A 
ATOM      9  O   UNL     1      -4.975  12.729   2.783  0.00  0.00    -0.267 OA
ATOM     10  N   UNL     1      -3.279  13.912   3.625  0.00  0.00    -0.310 N 
ATOM     11  H   UNL     1      -3.869  14.652   3.836  0.00  0.00    +0.170 HD
ATOM     12  C   UNL     1      -1.959  14.010   3.920  0.00  0.00    +0.121 A 
ATOM     13  N   UNL     1      -1.120  13.045   3.657  0.00  0.00    -0.226 NA
ATOM     14  C   UNL     1      -1.516  11.915   3.086  0.00  0.00    +0.116 A 
ATOM     15  S   UNL     1      -0.709  10.416   2.583  0.00  0.00    -0.064 S 
ATOM     16  C   UNL     1      -2.136   9.561   1.935  0.00  0.00    +0.081 A 
BRANCH  12  17
ATOM     17  C   UNL     1      -1.446  15.269   4.570  0.00  0.00    +0.143 C 
BRANCH  17  18
ATOM     18  S   UNL     1       0.341  15.122   4.846  0.00  0.00    -0.156 S 
ATOM     19  C   UNL     1       0.795  16.697   5.623  0.00  0.00    +0.084 C 
ENDBRANCH  17  18
ENDBRANCH  12  17
ENDBRANCH   1  16
BRANCH   3  20
ATOM     20  N   UNL     1      -1.160   6.201   0.646  0.00  0.00    -0.231 N 
ATOM     21  C   UNL     1      -0.045   5.453   0.531  0.00  0.00    +0.270 C 
ATOM     22  O   UNL     1       1.018   5.885   0.923  0.00  0.00    -0.270 OA
ATOM     23  H   UNL     1      -2.010   5.855   0.332  0.00  0.00    +0.173 HD
BRANCH  21  24
ATOM     24  C   UNL     1      -0.118   4.080  -0.086  0.00  0.00    +0.257 C 
ATOM     25  C   UNL     1      -0.518   4.203  -1.558  0.00  0.00    +0.062 C 
BRANCH  24  26
ATOM     26  O   UNL     1       1.159   3.446   0.009  0.00  0.00    -0.477 OA
BRANCH  26  27
ATOM     27  C   UNL     1       1.175   2.087   0.004  0.00  0.00    +0.157 A 
ATOM     28  C   UNL     1       0.001   1.379  -0.206  0.00  0.00    +0.048 A 
ATOM     29  C   UNL     1       0.020  -0.003  -0.212  0.00  0.00    +0.004 A 
ATOM     30  C   UNL     1       1.207  -0.681  -0.009  0.00  0.00    +0.003 A 
ATOM     31  C   UNL     1       2.380   0.021   0.200  0.00  0.00    +0.042 A 
ATOM     32  C   UNL     1       2.367   1.404   0.207  0.00  0.00    +0.165 A 
ATOM     33  F   UNL     1       3.513   2.090   0.412  0.00  0.00    -0.202 F 
ENDBRANCH  26  27
ENDBRANCH  24  26
ENDBRANCH  21  24
ENDBRANCH   3  20
TORSDOF 7
