REMARK  Name = ZINC15945335
REMARK  14 active torsions:
REMARK  status: ('A' for Active; 'I' for Inactive)
REMARK    1  A    between atoms: C_1  and  C_2
REMARK    2  A    between atoms: C_2  and  C_3
REMARK    3  A    between atoms: C_3  and  C_4
REMARK    4  A    between atoms: C_7  and  C_11
REMARK    5  A    between atoms: C_10  and  N_60
REMARK    6  A    between atoms: N_13  and  C_14
REMARK    7  A    between atoms: C_14  and  C_16
REMARK    8  A    between atoms: C_14  and  C_32
REMARK    9  A    between atoms: C_18  and  O_31
REMARK   10  A    between atoms: C_20  and  O_30
REMARK   11  A    between atoms: C_22  and  O_29
REMARK   12  A    between atoms: C_24  and  S_27
REMARK   13  A    between atoms: S_27  and  C_28
REMARK   14  A    between atoms: C_32  and  C_34
REMARK                            x       y       z     vdW  Elec       q    Type
REMARK                         _______ _______ _______ _____ _____    ______ ____
ROOT
ATOM      1  C   UNL     1       1.120   3.657   0.011  0.00  0.00    +0.122 C 
ENDROOT
BRANCH   1   2
ATOM      2  C   UNL     1       2.414   4.188  -0.608  0.00  0.00    +0.172 C 
ATOM      3  C   UNL     1       2.533   3.688  -2.050  0.00  0.00    +0.176 C 
ATOM      4  C   UNL     1       3.800   4.273  -2.682  0.00  0.00    +0.177 C 
ATOM      5  C   UNL     1       3.740   5.801  -2.600  0.00  0.00    +0.184 C 
ATOM      6  C   UNL     1       3.575   6.220  -1.137  0.00  0.00    +0.207 C 
ATOM      7  O   UNL     1       2.395   5.617  -0.601  0.00  0.00    -0.356 OA
BRANCH   6   8
ATOM      8  S   UNL     1       3.432   8.025  -1.036  0.00  0.00    -0.131 S 
ATOM      9  C   UNL     1       3.549   8.376   0.740  0.00  0.00    +0.087 C 
ENDBRANCH   6   8
BRANCH   5  10
ATOM     10  O   UNL     1       2.629   6.278  -3.362  0.00  0.00    -0.386 OA
ATOM     11  H   UNL     1       2.528   7.240  -3.350  0.00  0.00    +0.210 HD
ENDBRANCH   5  10
BRANCH   4  12
ATOM     12  O   UNL     1       4.948   3.800  -1.975  0.00  0.00    -0.386 OA
ATOM     13  H   UNL     1       5.787   4.137  -2.318  0.00  0.00    +0.210 HD
ENDBRANCH   4  12
BRANCH   3  14
ATOM     14  O   UNL     1       2.611   2.261  -2.056  0.00  0.00    -0.387 OA
ATOM     15  H   UNL     1       2.688   1.875  -2.939  0.00  0.00    +0.210 HD
ENDBRANCH   3  14
ENDBRANCH   1   2
BRANCH   1  18
ATOM     16  C   UNL     1      -0.018   1.503   0.010  0.00  0.00    +0.200 C 
ATOM     17  O   UNL     1      -1.077   2.095   0.018  0.00  0.00    -0.278 OA
ATOM     18  N   UNL     1       1.139   2.192   0.003  0.00  0.00    -0.310 N 
ATOM     19  H   UNL     1       1.986   1.719  -0.008  0.00  0.00    +0.149 HD
BRANCH  16  22
ATOM     20  C   UNL     1      -0.652  -1.809   1.523  0.00  0.00    -0.029 C 
ATOM     21  C   UNL     1       0.233  -0.547   1.429  0.00  0.00    -0.005 C 
ATOM     22  C   UNL     1       0.002  -0.004   0.002  0.00  0.00    +0.019 C 
ATOM     23  C   UNL     1      -1.339  -1.922   0.145  0.00  0.00    -0.075 C 
ATOM     24  C   UNL     1      -1.478  -0.541  -1.855  0.00  0.00    -0.095 C 
ATOM     25  N   UNL     1      -1.307  -0.555  -0.368  0.00  0.00    +0.386 N 
ATOM     26  H   UNL     1      -2.056  -0.001   0.063  0.00  0.00    -0.081 HD
BRANCH  20  27
ATOM     27  C   UNL     1       0.212  -3.043   1.789  0.00  0.00    +0.001 C 
BRANCH  27  29
ATOM     28  C   UNL     1       0.179  -5.508   2.196  0.00  0.00    +0.004 C 
ATOM     29  C   UNL     1      -0.686  -4.274   1.930  0.00  0.00    -0.003 C 
ENDBRANCH  27  29
ENDBRANCH  20  27
ENDBRANCH  16  22
ENDBRANCH   1  18
BRANCH   1  30
ATOM     30  C   UNL     1       1.001   4.158   1.452  0.00  0.00    +0.100 C 
ATOM     31  C   UNL     1      -0.228   3.527   2.111  0.00  0.00    +0.026 C 
ATOM     32 CL   UNL     1       2.481   3.696   2.373  0.00  0.00    -0.120 Cl
ENDBRANCH   1  30
TORSDOF 10
