REMARK  Name = ZINC63426744
REMARK  8 active torsions:
REMARK  status: ('A' for Active; 'I' for Inactive)
REMARK    1  A    between atoms: C_1  and  O_2
REMARK    2  A    between atoms: O_2  and  C_3
REMARK    3  A    between atoms: C_3  and  C_5
REMARK    4  A    between atoms: C_5  and  C_7
REMARK    5  A    between atoms: C_5  and  N_17
REMARK    6  A    between atoms: C_7  and  C_8
REMARK    7  A    between atoms: N_17  and  C_18
REMARK    8  A    between atoms: N_25  and  C_28
REMARK                            x       y       z     vdW  Elec       q    Type
REMARK                         _______ _______ _______ _____ _____    ______ ____
ROOT
ATOM      1  N   UNL     1       1.344  -2.530  -2.342  0.00  0.00    -0.336 N 
ATOM      2  H   UNL     1       2.298  -2.705  -2.320  0.00  0.00    +0.146 HD
ENDROOT
BRANCH   1   3
ATOM      3  C   UNL     1       0.665  -2.647  -3.500  0.00  0.00    +0.086 C 
ATOM      4  C   UNL     1       1.344  -2.898  -4.678  0.00  0.00    +0.113 C 
ATOM      5  C   UNL     1       2.791  -3.178  -4.687  0.00  0.00    +0.258 C 
ATOM      6  O   UNL     1       3.430  -3.196  -3.651  0.00  0.00    -0.270 OA
ATOM      7  N   UNL     1       3.388  -3.414  -5.873  0.00  0.00    -0.235 N 
ATOM      8  C   UNL     1       2.696  -3.398  -7.021  0.00  0.00    +0.320 C 
ATOM      9  O   UNL     1       3.293  -3.619  -8.056  0.00  0.00    -0.251 OA
ATOM     10  N   UNL     1       1.380  -3.152  -7.087  0.00  0.00    -0.190 N 
ATOM     11  C   UNL     1       0.652  -2.904  -5.979  0.00  0.00    +0.265 C 
ATOM     12  O   UNL     1      -0.543  -2.687  -6.052  0.00  0.00    -0.269 OA
ATOM     13  H   UNL     1       4.340  -3.600  -5.896  0.00  0.00    +0.159 HD
BRANCH  10  14
ATOM     14  C   UNL     1       0.744  -3.157  -8.337  0.00  0.00    +0.046 A 
ATOM     15  C   UNL     1       0.218  -1.982  -8.855  0.00  0.00    +0.025 A 
ATOM     16  C   UNL     1      -0.407  -1.990 -10.086  0.00  0.00    +0.017 A 
ATOM     17  C   UNL     1      -0.510  -3.168 -10.803  0.00  0.00    +0.018 A 
ATOM     18  C   UNL     1       0.012  -4.342 -10.289  0.00  0.00    +0.017 A 
ATOM     19  C   UNL     1       0.644  -4.338  -9.061  0.00  0.00    +0.025 A 
ATOM     20 BR   UNL     1      -1.368  -3.176 -12.489  0.00  0.00    -0.050 Br
ENDBRANCH  10  14
ENDBRANCH   1   3
BRANCH   1  21
ATOM     21  C   UNL     1       0.642  -2.140  -1.117  0.00  0.00    +0.184 C 
BRANCH  21  22
ATOM     22  C   UNL     1       0.552  -0.637  -1.048  0.00  0.00    +0.328 C 
ATOM     23  O   UNL     1       1.025   0.038  -1.931  0.00  0.00    -0.249 OA
BRANCH  22  25
ATOM     24  C   UNL     1      -0.104   1.379  -0.004  0.00  0.00    +0.280 C 
ATOM     25  O   UNL     1      -0.055  -0.049  -0.004  0.00  0.00    -0.467 OA
ENDBRANCH  22  25
ENDBRANCH  21  22
BRANCH  21  26
ATOM     26  C   UNL     1       1.410  -2.661   0.099  0.00  0.00    +0.066 C 
BRANCH  26  27
ATOM     27  C   UNL     1       1.395  -4.168   0.095  0.00  0.00    -0.039 C 
ATOM     28  C   UNL     1       2.349  -4.989  -0.400  0.00  0.00    -0.001 A 
ATOM     29  C   UNL     1       3.636  -4.735  -1.059  0.00  0.00    +0.010 A 
ATOM     30  C   UNL     1       4.390  -5.786  -1.454  0.00  0.00    +0.001 A 
ATOM     31  C   UNL     1       3.974  -7.109  -1.251  0.00  0.00    +0.002 A 
ATOM     32  C   UNL     1       2.805  -7.422  -0.654  0.00  0.00    +0.026 A 
ATOM     33  C   UNL     1       1.933  -6.395  -0.198  0.00  0.00    +0.043 A 
ATOM     34  N   UNL     1       0.767  -6.441   0.399  0.00  0.00    -0.380 N 
ATOM     35  C   UNL     1       0.314  -5.068   0.648  0.00  0.00    +0.144 C 
ATOM     36  H   UNL     1       0.285  -7.249   0.639  0.00  0.00    +0.160 HD
ENDBRANCH  26  27
ENDBRANCH  21  26
ENDBRANCH   1  21
TORSDOF 7
