REMARK  Name = ZINC13995254
REMARK  9 active torsions:
REMARK  status: ('A' for Active; 'I' for Inactive)
REMARK    1  A    between atoms: C_1  and  C_2
REMARK    2  A    between atoms: N_5  and  C_7
REMARK    3  A    between atoms: C_16  and  C_32
REMARK    4  A    between atoms: C_19  and  C_21
REMARK    5  A    between atoms: C_23  and  O_30
REMARK    6  A    between atoms: C_24  and  O_29
REMARK    7  A    between atoms: C_25  and  O_27
REMARK    8  A    between atoms: O_27  and  C_28
REMARK    9  A    between atoms: O_30  and  C_31
REMARK                            x       y       z     vdW  Elec       q    Type
REMARK                         _______ _______ _______ _____ _____    ______ ____
ROOT
ATOM      1  C   UNL     1       0.221   1.496  -0.006  0.00  0.00    +0.068 C 
ATOM      2  C   UNL     1       0.109  -0.007  -0.005  0.00  0.00    +0.067 A 
ATOM      3  C   UNL     1      -0.091  -0.816  -1.144  0.00  0.00    +0.033 A 
ATOM      4  C   UNL     1      -0.137  -2.103  -0.734  0.00  0.00    +0.133 A 
ATOM      5  N   UNL     1       0.034  -2.096   0.633  0.00  0.00    -0.218 N 
ATOM      6  N   UNL     1       0.188  -0.773   1.046  0.00  0.00    -0.170 NA
ATOM      7  N   UNL     1      -0.316  -3.279  -1.422  0.00  0.00    -0.269 N 
ATOM      8  C   UNL     1      -0.451  -3.598  -2.674  0.00  0.00    +0.231 C 
ATOM      9  O   UNL     1      -0.485  -4.790  -2.895  0.00  0.00    -0.274 OA
ATOM     10  C   UNL     1      -0.570  -2.740  -3.872  0.00  0.00    +0.130 C 
ATOM     11  S   UNL     1       0.481  -1.283  -3.798  0.00  0.00    -0.135 S 
ATOM     12  C   UNL     1      -0.215  -0.234  -2.518  0.00  0.00    +0.112 C 
ATOM     13  C   UNL     1      -2.025  -2.289  -4.012  0.00  0.00    +0.029 C 
ATOM     14  H   UNL     1      -0.348  -4.051  -0.835  0.00  0.00    +0.156 HD
ENDROOT
BRANCH   5  15
ATOM     15  C   UNL     1       0.055  -3.224   1.464  0.00  0.00    +0.067 A 
ATOM     16  C   UNL     1       0.763  -4.356   1.083  0.00  0.00    +0.028 A 
ATOM     17  C   UNL     1       0.783  -5.466   1.904  0.00  0.00    +0.002 A 
ATOM     18  C   UNL     1       0.098  -5.451   3.105  0.00  0.00    +0.000 A 
ATOM     19  C   UNL     1      -0.609  -4.326   3.487  0.00  0.00    +0.002 A 
ATOM     20  C   UNL     1      -0.627  -3.210   2.673  0.00  0.00    +0.028 A 
ENDBRANCH   5  15
BRANCH  12  21
ATOM     21  C   UNL     1       0.491   1.096  -2.545  0.00  0.00    -0.023 A 
ATOM     22  C   UNL     1       1.844   1.165  -2.266  0.00  0.00    +0.054 A 
ATOM     23  C   UNL     1       2.497   2.387  -2.289  0.00  0.00    +0.165 A 
ATOM     24  C   UNL     1       1.792   3.545  -2.595  0.00  0.00    +0.201 A 
ATOM     25  C   UNL     1       0.432   3.472  -2.875  0.00  0.00    +0.165 A 
ATOM     26  C   UNL     1      -0.213   2.245  -2.854  0.00  0.00    +0.054 A 
BRANCH  25  27
ATOM     27  O   UNL     1      -0.263   4.602  -3.174  0.00  0.00    -0.491 OA
ATOM     28  C   UNL     1      -1.657   4.452  -3.452  0.00  0.00    +0.277 C 
ENDBRANCH  25  27
BRANCH  24  29
ATOM     29  O   UNL     1       2.430   4.747  -2.618  0.00  0.00    -0.501 OA
ATOM     30  H   UNL     1       2.797   4.980  -3.482  0.00  0.00    +0.292 HD
ENDBRANCH  24  29
BRANCH  23  31
ATOM     31  O   UNL     1       3.828   2.453  -2.014  0.00  0.00    -0.491 OA
ATOM     32  C   UNL     1       4.489   1.224  -1.708  0.00  0.00    +0.277 C 
ENDBRANCH  23  31
ENDBRANCH  12  21
TORSDOF 5
