REMARK  Name = ZINC57095725
REMARK  11 active torsions:
REMARK  status: ('A' for Active; 'I' for Inactive)
REMARK    1  A    between atoms: C_1  and  C_2
REMARK    2  A    between atoms: C_2  and  C_3
REMARK    3  A    between atoms: C_2  and  C_4
REMARK    4  A    between atoms: C_2  and  C_5
REMARK    5  A    between atoms: C_8  and  O_11
REMARK    6  A    between atoms: O_11  and  C_12
REMARK    7  A    between atoms: C_12  and  C_13
REMARK    8  A    between atoms: C_13  and  O_14
REMARK    9  A    between atoms: O_14  and  C_15
REMARK   10  A    between atoms: C_19  and  C_21
REMARK   11  A    between atoms: C_26  and  C_33
REMARK                            x       y       z     vdW  Elec       q    Type
REMARK                         _______ _______ _______ _____ _____    ______ ____
ROOT
ATOM      1  C   UNL     1       5.210  -1.560  -8.613  0.00  0.00    +0.121 A 
ATOM      2  C   UNL     1       6.363  -2.279  -8.900  0.00  0.00    +0.045 A 
ATOM      3  C   UNL     1       6.698  -2.570 -10.210  0.00  0.00    +0.004 A 
ATOM      4  C   UNL     1       5.888  -2.148 -11.244  0.00  0.00    +0.008 A 
ATOM      5  C   UNL     1       4.723  -1.423 -10.967  0.00  0.00    -0.021 A 
ATOM      6  C   UNL     1       4.385  -1.135  -9.639  0.00  0.00    +0.053 A 
ENDROOT
BRANCH   5   7
ATOM      7  C   UNL     1       3.857  -0.971 -12.063  0.00  0.00    +0.024 C 
ATOM      8  C   UNL     1       3.680  -1.761 -13.162  0.00  0.00    +0.082 C 
ATOM      9  C   UNL     1       2.966  -1.270 -14.377  0.00  0.00    +0.144 C 
ATOM     10  N   UNL     1       1.959  -0.437 -14.331  0.00  0.00    -0.282 NA
ATOM     11  N   UNL     1       3.482  -1.791 -15.575  0.00  0.00    -0.278 N 
ATOM     12  C   UNL     1       3.438  -1.125 -16.698  0.00  0.00    +0.045 C 
ATOM     13  C   UNL     1       4.037  -1.806 -17.921  0.00  0.00    +0.131 C 
ATOM     14  S   UNL     1       4.330  -3.483 -17.209  0.00  0.00    -0.084 S 
ATOM     15  C   UNL     1       4.083  -3.024 -15.508  0.00  0.00    +0.168 C 
ATOM     16  N   UNL     1       4.407  -3.698 -14.431  0.00  0.00    -0.152 NA
ATOM     17  C   UNL     1       4.191  -3.154 -13.217  0.00  0.00    +0.273 C 
ATOM     18  O   UNL     1       4.404  -3.788 -12.198  0.00  0.00    -0.268 OA
ATOM     19  H   UNL     1       1.687  -0.051 -13.484  0.00  0.00    +0.188 HD
BRANCH  12  20
ATOM     20  C   UNL     1       2.842   0.211 -16.776  0.00  0.00    -0.004 A 
ATOM     21  C   UNL     1       3.177   1.190 -15.830  0.00  0.00    +0.009 A 
ATOM     22  C   UNL     1       2.611   2.443 -15.912  0.00  0.00    +0.001 A 
ATOM     23  C   UNL     1       1.714   2.738 -16.925  0.00  0.00    +0.000 A 
ATOM     24  C   UNL     1       1.378   1.778 -17.864  0.00  0.00    +0.001 A 
ATOM     25  C   UNL     1       1.938   0.521 -17.802  0.00  0.00    +0.009 A 
ENDBRANCH  12  20
ENDBRANCH   5   7
BRANCH   1  26
ATOM     26  O   UNL     1       4.888  -1.278  -7.323  0.00  0.00    -0.489 OA
BRANCH  26  27
ATOM     27  C   UNL     1       5.785  -1.748  -6.314  0.00  0.00    +0.270 C 
BRANCH  27  28
ATOM     28  C   UNL     1       5.261  -1.338  -4.936  0.00  0.00    +0.270 C 
BRANCH  28  29
ATOM     29  O   UNL     1       4.022  -2.004  -4.681  0.00  0.00    -0.489 OA
BRANCH  29  33
ATOM     30  C   UNL     1       2.191  -1.229  -1.066  0.00  0.00    -0.042 A 
ATOM     31  C   UNL     1       1.602  -2.099  -1.966  0.00  0.00    +0.008 A 
ATOM     32  C   UNL     1       2.214  -2.360  -3.176  0.00  0.00    +0.046 A 
ATOM     33  C   UNL     1       3.418  -1.748  -3.490  0.00  0.00    +0.121 A 
ATOM     34  C   UNL     1       4.006  -0.875  -2.586  0.00  0.00    +0.046 A 
ATOM     35  C   UNL     1       3.389  -0.614  -1.379  0.00  0.00    +0.008 A 
BRANCH  30  37
ATOM     36  C   UNL     1       1.209   0.548   0.358  0.00  0.00    +0.015 C 
ATOM     37  C   UNL     1       1.522  -0.947   0.254  0.00  0.00    -0.013 C 
ATOM     38  C   UNL     1       2.456  -1.352   1.396  0.00  0.00    +0.015 C 
ATOM     39  C   UNL     1       0.222  -1.748   0.350  0.00  0.00    +0.015 C 
ENDBRANCH  30  37
ENDBRANCH  29  33
ENDBRANCH  28  29
ENDBRANCH  27  28
ENDBRANCH  26  27
ENDBRANCH   1  26
TORSDOF 8
