REMARK  Name = ZINC20528296
REMARK  10 active torsions:
REMARK  status: ('A' for Active; 'I' for Inactive)
REMARK    1  A    between atoms: C_1  and  O_2
REMARK    2  A    between atoms: O_2  and  C_3
REMARK    3  A    between atoms: C_6  and  C_9
REMARK    4  A    between atoms: C_9  and  N_10
REMARK    5  A    between atoms: C_11  and  C_13
REMARK    6  A    between atoms: C_13  and  S_14
REMARK    7  A    between atoms: S_14  and  C_15
REMARK    8  A    between atoms: N_19  and  N_20
REMARK    9  A    between atoms: N_21  and  N_22
REMARK   10  A    between atoms: C_23  and  C_24
REMARK                            x       y       z     vdW  Elec       q    Type
REMARK                         _______ _______ _______ _____ _____    ______ ____
ROOT
ATOM      1  C   UNL     1       0.715  -2.097  -0.015  0.00  0.00    +0.210 A 
ATOM      2  N   UNL     1      -0.597  -2.115  -0.003  0.00  0.00    -0.119 NA
ATOM      3  N   UNL     1      -1.048  -0.789   0.014  0.00  0.00    -0.109 NA
ATOM      4  C   UNL     1       0.002  -0.004   0.002  0.00  0.00    +0.254 A 
ATOM      5  N   UNL     1       1.119  -0.793  -0.013  0.00  0.00    -0.211 N 
ATOM      6  N   UNL     1      -0.017   1.383   0.010  0.00  0.00    -0.204 N 
ATOM      7  H   UNL     1       0.928   1.946   0.008  0.00  0.00    +0.177 HD
ENDROOT
BRANCH   5   8
ATOM      8  N   UNL     1       2.412  -0.353  -0.024  0.00  0.00    -0.294 N 
ATOM      9  H   UNL     1       2.626   0.726  -0.021  0.00  0.00    +0.163 HD
ATOM     10  H   UNL     1       3.240  -1.077  -0.036  0.00  0.00    +0.163 HD
ENDBRANCH   5   8
BRANCH   6  11
ATOM     11  N   UNL     1      -1.239   2.067   0.019  0.00  0.00    -0.188 NA
ATOM     12  C   UNL     1      -1.257   3.366   0.026  0.00  0.00    +0.138 C 
BRANCH  12  13
ATOM     13  C   UNL     1      -2.544   4.085   0.036  0.00  0.00    -0.005 A 
ATOM     14  C   UNL     1      -3.746   3.373   0.032  0.00  0.00    +0.011 A 
ATOM     15  C   UNL     1      -4.946   4.053   0.047  0.00  0.00    +0.020 A 
ATOM     16  C   UNL     1      -4.961   5.438   0.055  0.00  0.00    +0.041 A 
ATOM     17  C   UNL     1      -3.773   6.149   0.053  0.00  0.00    +0.020 A 
ATOM     18  C   UNL     1      -2.566   5.482   0.044  0.00  0.00    +0.011 A 
ATOM     19 CL   UNL     1      -6.476   6.285   0.067  0.00  0.00    -0.084 Cl
ENDBRANCH  12  13
ENDBRANCH   6  11
BRANCH   1  20
ATOM     20  S   UNL     1       1.770  -3.508  -0.033  0.00  0.00    -0.075 S 
BRANCH  20  21
ATOM     21  C   UNL     1       0.623  -4.914  -0.029  0.00  0.00    +0.173 C 
BRANCH  21  23
ATOM     22  N   UNL     1       0.759  -7.384  -0.043  0.00  0.00    -0.311 N 
ATOM     23  C   UNL     1       1.406  -6.201  -0.043  0.00  0.00    +0.224 C 
ATOM     24  O   UNL     1       2.619  -6.173  -0.055  0.00  0.00    -0.275 OA
ATOM     25  H   UNL     1      -0.341  -7.409  -0.032  0.00  0.00    +0.149 HD
BRANCH  22  26
ATOM     26  C   UNL     1       1.520  -8.635  -0.057  0.00  0.00    +0.139 C 
BRANCH  26  30
ATOM     27  C   UNL     1      -1.181 -11.946  -0.047  0.00  0.00    +0.120 A 
ATOM     28  C   UNL     1      -0.754 -11.402  -1.249  0.00  0.00    +0.046 A 
ATOM     29  C   UNL     1       0.120 -10.332  -1.250  0.00  0.00    +0.009 A 
ATOM     30  C   UNL     1       0.568  -9.803  -0.053  0.00  0.00    -0.030 A 
ATOM     31  C   UNL     1       0.148 -10.347   1.146  0.00  0.00    +0.009 A 
ATOM     32  C   UNL     1      -0.730 -11.414   1.152  0.00  0.00    +0.046 A 
BRANCH  27  34
ATOM     33  C   UNL     1      -2.438 -13.508   1.231  0.00  0.00    +0.277 C 
ATOM     34  O   UNL     1      -2.041 -12.999  -0.044  0.00  0.00    -0.495 OA
ENDBRANCH  27  34
ENDBRANCH  26  30
ENDBRANCH  22  26
ENDBRANCH  21  23
ENDBRANCH  20  21
ENDBRANCH   1  20
TORSDOF 9
