REMARK  Name = ZINC40685499
REMARK  4 active torsions:
REMARK  status: ('A' for Active; 'I' for Inactive)
REMARK    1  A    between atoms: C_1  and  C_2
REMARK    2  A    between atoms: C_6  and  N_8
REMARK    3  A    between atoms: C_10  and  N_25
REMARK    4  A    between atoms: C_11  and  N_15
REMARK                            x       y       z     vdW  Elec       q    Type
REMARK                         _______ _______ _______ _____ _____    ______ ____
ROOT
ATOM      1  N   UNL     1       0.051  -2.637   2.415  0.00  0.00    -0.283 N 
ATOM      2  C   UNL     1      -0.035  -4.025   2.467  0.00  0.00    +0.150 A 
ATOM      3  C   UNL     1      -0.131  -4.684   3.694  0.00  0.00    +0.106 A 
ATOM      4  C   UNL     1      -0.214  -6.077   3.689  0.00  0.00    +0.150 A 
ATOM      5  N   UNL     1      -0.199  -6.720   2.524  0.00  0.00    -0.219 NA
ATOM      6  C   UNL     1      -0.106  -6.059   1.388  0.00  0.00    +0.225 A 
ATOM      7  N   UNL     1      -0.032  -4.744   1.348  0.00  0.00    -0.219 NA
ATOM      8  H   UNL     1       0.119  -2.124   3.235  0.00  0.00    +0.155 HD
ENDROOT
BRANCH   4   9
ATOM      9  N   UNL     1      -0.312  -6.783   4.885  0.00  0.00    -0.277 N 
ATOM     10  C   UNL     1      -0.393  -8.163   4.867  0.00  0.00    +0.165 A 
ATOM     11  N   UNL     1      -0.389  -8.975   3.835  0.00  0.00    -0.225 NA
ATOM     12  C   UNL     1      -0.476 -10.317   3.968  0.00  0.00    +0.080 A 
ATOM     13  C   UNL     1      -0.482 -11.296   2.948  0.00  0.00    +0.029 A 
ATOM     14  C   UNL     1      -0.578 -12.628   3.257  0.00  0.00    +0.002 A 
ATOM     15  C   UNL     1      -0.672 -13.063   4.571  0.00  0.00    +0.001 A 
ATOM     16  C   UNL     1      -0.669 -12.132   5.594  0.00  0.00    +0.017 A 
ATOM     17  C   UNL     1      -0.573 -10.796   5.294  0.00  0.00    +0.041 A 
ATOM     18  S   UNL     1      -0.524  -9.295   6.244  0.00  0.00    -0.052 S 
ATOM     19  H   UNL     1      -0.322  -6.307   5.730  0.00  0.00    +0.156 HD
ENDBRANCH   4   9
BRANCH   1  25
ATOM     20  C   UNL     1       0.050  -2.966  -2.362  0.00  0.00    +0.065 C 
ATOM     21  C   UNL     1       0.038  -2.115  -1.119  0.00  0.00    +0.040 A 
ATOM     22  C   UNL     1       0.015  -0.739  -1.234  0.00  0.00    +0.023 A 
ATOM     23  C   UNL     1       0.003   0.041  -0.086  0.00  0.00    +0.005 A 
ATOM     24  C   UNL     1       0.015  -0.595   1.143  0.00  0.00    +0.044 A 
ATOM     25  C   UNL     1       0.038  -1.985   1.186  0.00  0.00    +0.124 A 
ATOM     26  N   UNL     1       0.044  -2.693   0.067  0.00  0.00    -0.237 NA
ENDBRANCH   1  25
BRANCH   3  27
ATOM     27  N   UNL     1      -0.144  -3.965   4.900  0.00  0.00    -0.353 N 
ATOM     28  H   UNL     1      -0.085  -2.997   4.888  0.00  0.00    +0.143 HD
ATOM     29  H   UNL     1      -0.211  -4.436   5.745  0.00  0.00    +0.143 HD
ENDBRANCH   3  27
TORSDOF 3
