REMARK  Name = ZINC38811110
REMARK  6 active torsions:
REMARK  status: ('A' for Active; 'I' for Inactive)
REMARK    1  A    between atoms: C_6  and  C_10
REMARK    2  A    between atoms: C_15  and  C_20
REMARK    3  A    between atoms: C_16  and  C_18
REMARK    4  A    between atoms: N_22  and  C_26
REMARK    5  A    between atoms: C_23  and  N_25
REMARK    6  A    between atoms: C_26  and  C_27
REMARK                            x       y       z     vdW  Elec       q    Type
REMARK                         _______ _______ _______ _____ _____    ______ ____
ROOT
ATOM      1  C   UNL     1      -3.662  -3.423   0.003  0.00  0.00    +0.109 C 
ATOM      2  C   UNL     1      -2.912  -4.497  -0.754  0.00  0.00    +0.093 A 
ATOM      3  C   UNL     1      -2.637  -5.545   0.129  0.00  0.00    +0.144 A 
ATOM      4  N   UNL     1      -1.977  -6.614  -0.316  0.00  0.00    -0.217 NA
ATOM      5  C   UNL     1      -1.587  -6.682  -1.583  0.00  0.00    +0.178 A 
ATOM      6  C   UNL     1      -1.869  -5.622  -2.461  0.00  0.00    +0.176 A 
ATOM      7  N   UNL     1      -2.529  -4.556  -2.012  0.00  0.00    -0.234 NA
ATOM      8  N   UNL     1      -3.124  -5.284   1.398  0.00  0.00    -0.320 N 
ATOM      9  C   UNL     1      -3.789  -3.976   1.432  0.00  0.00    +0.032 C 
ENDROOT
BRANCH   1  15
ATOM     10  C   UNL     1      -0.017   1.374   0.010  0.00  0.00    +0.002 A 
ATOM     11  C   UNL     1      -1.222   2.061   0.019  0.00  0.00    +0.002 A 
ATOM     12  C   UNL     1      -2.409   1.385   0.021  0.00  0.00    +0.030 A 
ATOM     13  C   UNL     1      -2.415  -0.012   0.014  0.00  0.00    +0.089 A 
ATOM     14  N   UNL     1      -3.402  -0.944   0.014  0.00  0.00    -0.232 NA
ATOM     15  C   UNL     1      -2.879  -2.135   0.005  0.00  0.00    +0.117 A 
ATOM     16  N   UNL     1      -1.521  -2.049  -0.001  0.00  0.00    -0.341 N 
ATOM     17  C   UNL     1      -1.194  -0.708   0.004  0.00  0.00    +0.066 A 
ATOM     18  C   UNL     1       0.002  -0.004   0.002  0.00  0.00    +0.028 A 
ATOM     19  H   UNL     1      -0.898  -2.793  -0.008  0.00  0.00    +0.167 HD
ENDBRANCH   1  15
BRANCH   9  20
ATOM     20  N   UNL     1      -5.205  -4.131   1.794  0.00  0.00    +0.391 N 
ATOM     21  H   UNL     1      -5.648  -4.771   1.152  0.00  0.00    -0.087 HD
ATOM     22  H   UNL     1      -5.274  -4.495   2.732  0.00  0.00    -0.087 HD
ATOM     23  H   UNL     1      -5.665  -3.235   1.745  0.00  0.00    -0.087 HD
ENDBRANCH   9  20
BRANCH   6  24
ATOM     24  C   UNL     1      -1.451  -5.687  -3.829  0.00  0.00    +0.122 C 
ATOM     25  N   UNL     1      -1.120  -5.739  -4.915  0.00  0.00    -0.189 NA
ENDBRANCH   6  24
BRANCH   5  26
ATOM     26  C   UNL     1      -0.879  -7.834  -2.054  0.00  0.00    +0.122 C 
ATOM     27  N   UNL     1      -0.317  -8.748  -2.428  0.00  0.00    -0.189 NA
ENDBRANCH   5  26
BRANCH   8  28
ATOM     28  C   UNL     1      -2.996  -6.187   2.545  0.00  0.00    +0.178 C 
BRANCH  28  29
ATOM     29  C   UNL     1      -1.720  -5.881   3.285  0.00  0.00    +0.122 A 
ATOM     30  C   UNL     1      -1.590  -5.007   4.300  0.00  0.00    +0.046 A 
ATOM     31  C   UNL     1      -0.232  -5.036   4.693  0.00  0.00    +0.041 A 
ATOM     32  C   UNL     1       0.386  -5.925   3.895  0.00  0.00    +0.195 A 
ATOM     33  O   UNL     1      -0.521  -6.438   3.048  0.00  0.00    -0.466 OA
ENDBRANCH  28  29
ENDBRANCH   8  28
TORSDOF 6
