REMARK  Name = ZINC39533323
REMARK  13 active torsions:
REMARK  status: ('A' for Active; 'I' for Inactive)
REMARK    1  A    between atoms: C_1  and  C_2
REMARK    2  A    between atoms: C_2  and  C_3
REMARK    3  A    between atoms: C_2  and  C_4
REMARK    4  A    between atoms: C_4  and  C_5
REMARK    5  A    between atoms: C_8  and  C_11
REMARK    6  A    between atoms: C_11  and  C_13
REMARK    7  A    between atoms: C_11  and  N_25
REMARK    8  A    between atoms: C_13  and  N_14
REMARK    9  A    between atoms: N_14  and  S_15
REMARK   10  A    between atoms: S_15  and  O_18
REMARK   11  A    between atoms: O_18  and  C_19
REMARK   12  A    between atoms: C_29  and  C_32
REMARK   13  A    between atoms: C_32  and  C_33
REMARK                            x       y       z     vdW  Elec       q    Type
REMARK                         _______ _______ _______ _____ _____    ______ ____
ROOT
ATOM      1  C   UNL     1      -4.262   1.315  -5.096  0.00  0.00    -0.060 C 
ENDROOT
BRANCH   1   2
ATOM      2  N   UNL     1      -3.902   1.107  -6.505  0.00  0.00    +0.381 N 
ATOM      3  C   UNL     1      -2.473   1.393  -6.693  0.00  0.00    -0.098 C 
ATOM      4  C   UNL     1      -2.099   1.175  -8.160  0.00  0.00    -0.101 C 
ATOM      5  N   UNL     1      -2.893   2.075  -9.007  0.00  0.00    +0.379 N 
ATOM      6  C   UNL     1      -4.322   1.790  -8.819  0.00  0.00    -0.085 C 
ATOM      7  C   UNL     1      -4.697   2.007  -7.351  0.00  0.00    -0.094 C 
ATOM      8  H   UNL     1      -2.705   3.033  -8.750  0.00  0.00    -0.086 HD
ATOM      9  H   UNL     1      -2.647   1.932  -9.975  0.00  0.00    -0.086 HD
ATOM     10  H   UNL     1      -4.090   0.150  -6.762  0.00  0.00    -0.081 HD
BRANCH   6  11
ATOM     11  C   UNL     1      -5.150   2.727  -9.700  0.00  0.00    +0.017 C 
BRANCH  11  12
ATOM     12  C   UNL     1      -4.848   2.449 -11.151  0.00  0.00    -0.049 A 
ATOM     13  C   UNL     1      -3.863   3.167 -11.801  0.00  0.00    +0.003 A 
ATOM     14  C   UNL     1      -3.586   2.913 -13.132  0.00  0.00    +0.000 A 
ATOM     15  C   UNL     1      -4.294   1.939 -13.811  0.00  0.00    +0.000 A 
ATOM     16  C   UNL     1      -5.279   1.220 -13.160  0.00  0.00    +0.000 A 
ATOM     17  C   UNL     1      -5.553   1.472 -11.829  0.00  0.00    +0.003 A 
ENDBRANCH  11  12
ENDBRANCH   6  11
ENDBRANCH   1   2
BRANCH   1  21
ATOM     18  C   UNL     1      -1.966  -1.315  -2.635  0.00  0.00    -0.047 A 
ATOM     19  C   UNL     1      -2.200  -0.015  -2.226  0.00  0.00    +0.004 A 
ATOM     20  C   UNL     1      -2.943   0.836  -3.023  0.00  0.00    +0.002 A 
ATOM     21  C   UNL     1      -3.451   0.388  -4.228  0.00  0.00    -0.063 A 
ATOM     22  C   UNL     1      -3.215  -0.911  -4.636  0.00  0.00    +0.002 A 
ATOM     23  C   UNL     1      -2.469  -1.761  -3.842  0.00  0.00    +0.004 A 
BRANCH  18  24
ATOM     24  C   UNL     1      -1.156  -2.242  -1.766  0.00  0.00    +0.038 C 
BRANCH  24  26
ATOM     25  C   UNL     1       0.823  -0.717  -1.799  0.00  0.00    +0.007 C 
ATOM     26  C   UNL     1       0.325  -2.124  -2.135  0.00  0.00    -0.013 C 
ATOM     27  C   UNL     1       1.132  -3.154  -1.342  0.00  0.00    +0.007 C 
ENDBRANCH  24  26
ENDBRANCH  18  24
ENDBRANCH   1  21
BRANCH   1  28
ATOM     28  C   UNL     1      -5.751   1.024  -4.901  0.00  0.00    -0.121 C 
BRANCH  28  29
ATOM     29  N   UNL     1      -6.128   1.313  -3.515  0.00  0.00    +0.491 NA
BRANCH  29  30
ATOM     30  S   UNL     1      -7.659   0.970  -2.985  0.00  0.00    +0.066 S 
ATOM     31  O   UNL     1      -8.552   1.651  -3.855  0.00  0.00    -0.159 OA
ATOM     32  O   UNL     1      -7.713  -0.436  -2.785  0.00  0.00    -0.159 OA
BRANCH  30  33
ATOM     33  O   UNL     1      -7.814   1.611  -1.613  0.00  0.00    -0.362 OA
BRANCH  33  34
ATOM     34  C   UNL     1      -7.926   2.965  -1.646  0.00  0.00    +0.154 A 
ATOM     35  C   UNL     1      -6.787   3.756  -1.685  0.00  0.00    +0.048 A 
ATOM     36  C   UNL     1      -6.904   5.132  -1.718  0.00  0.00    +0.004 A 
ATOM     37  C   UNL     1      -8.155   5.721  -1.712  0.00  0.00    +0.000 A 
ATOM     38  C   UNL     1      -9.292   4.935  -1.673  0.00  0.00    +0.004 A 
ATOM     39  C   UNL     1      -9.180   3.558  -1.645  0.00  0.00    +0.048 A 
ENDBRANCH  33  34
ENDBRANCH  30  33
ENDBRANCH  29  30
ENDBRANCH  28  29
ENDBRANCH   1  28
TORSDOF 11
