REMARK  Name = ZINC21254834
REMARK  11 active torsions:
REMARK  status: ('A' for Active; 'I' for Inactive)
REMARK    1  A    between atoms: C_1  and  C_2
REMARK    2  A    between atoms: C_2  and  C_3
REMARK    3  A    between atoms: C_3  and  C_5
REMARK    4  A    between atoms: C_3  and  O_6
REMARK    5  A    between atoms: O_6  and  C_7
REMARK    6  A    between atoms: C_12  and  C_13
REMARK    7  A    between atoms: C_18  and  C_23
REMARK    8  A    between atoms: C_26  and  O_31
REMARK    9  A    between atoms: C_27  and  O_29
REMARK   10  A    between atoms: O_29  and  C_30
REMARK   11  A    between atoms: O_31  and  C_32
REMARK                            x       y       z     vdW  Elec       q    Type
REMARK                         _______ _______ _______ _____ _____    ______ ____
ROOT
ATOM      1  C   UNL     1      -5.784  -2.142  -0.245  0.00  0.00    +0.139 C 
ATOM      2  C   UNL     1      -4.578  -1.325  -0.642  0.00  0.00    +0.037 C 
ATOM      3  C   UNL     1      -4.031  -1.270  -1.868  0.00  0.00    +0.017 C 
ATOM      4  C   UNL     1      -2.796  -0.421  -2.122  0.00  0.00    +0.059 C 
ATOM      5  C   UNL     1      -2.818   0.812  -1.222  0.00  0.00    +0.032 C 
ATOM      6  C   UNL     1      -2.839   0.328   0.233  0.00  0.00    +0.088 C 
ATOM      7  C   UNL     1      -4.023  -0.572   0.420  0.00  0.00    +0.163 C 
ATOM      8  O   UNL     1      -4.525  -0.659   1.524  0.00  0.00    -0.292 OA
ATOM      9  N   UNL     1      -4.496  -1.935  -2.956  0.00  0.00    -0.316 N 
ATOM     10  C   UNL     1      -4.854  -3.278  -2.971  0.00  0.00    +0.052 A 
ATOM     11  C   UNL     1      -4.173  -4.217  -3.725  0.00  0.00    +0.025 A 
ATOM     12  C   UNL     1      -4.611  -5.531  -3.730  0.00  0.00    +0.002 A 
ATOM     13  C   UNL     1      -5.719  -5.899  -2.990  0.00  0.00    +0.002 A 
ATOM     14  C   UNL     1      -6.391  -4.965  -2.222  0.00  0.00    +0.025 A 
ATOM     15  C   UNL     1      -5.943  -3.654  -2.199  0.00  0.00    +0.049 A 
ATOM     16  N   UNL     1      -6.520  -2.703  -1.359  0.00  0.00    -0.331 N 
ATOM     17  H   UNL     1      -4.611  -1.408  -3.914  0.00  0.00    +0.152 HD
ATOM     18  H   UNL     1      -7.553  -2.379  -1.554  0.00  0.00    +0.147 HD
ENDROOT
BRANCH   1  24
ATOM     19  C   UNL     1      -6.245  -3.957   1.423  0.00  0.00    +0.126 A 
ATOM     20  C   UNL     1      -5.821  -4.999   2.235  0.00  0.00    +0.046 A 
ATOM     21  C   UNL     1      -4.484  -5.344   2.271  0.00  0.00    +0.004 A 
ATOM     22  C   UNL     1      -3.569  -4.656   1.495  0.00  0.00    +0.001 A 
ATOM     23  C   UNL     1      -3.990  -3.621   0.681  0.00  0.00    +0.009 A 
ATOM     24  C   UNL     1      -5.326  -3.271   0.642  0.00  0.00    +0.019 A 
BRANCH  19  25
ATOM     25  O   UNL     1      -7.559  -3.611   1.390  0.00  0.00    -0.489 OA
BRANCH  25  26
ATOM     26  C   UNL     1      -8.465  -4.433   2.128  0.00  0.00    +0.170 C 
ATOM     27  C   UNL     1      -8.492  -3.978   3.588  0.00  0.00    +0.052 C 
BRANCH  26  29
ATOM     28  C   UNL     1      -9.868  -4.883   0.110  0.00  0.00    +0.007 C 
ATOM     29  C   UNL     1      -9.868  -4.312   1.529  0.00  0.00    +0.041 C 
ENDBRANCH  26  29
ENDBRANCH  25  26
ENDBRANCH  19  25
ENDBRANCH   1  24
BRANCH   5  30
ATOM     30  C   UNL     1      -1.586   1.645  -1.465  0.00  0.00    -0.040 A 
ATOM     31  C   UNL     1      -0.333   1.091  -1.284  0.00  0.00    +0.008 A 
ATOM     32  C   UNL     1       0.801   1.848  -1.511  0.00  0.00    +0.049 A 
ATOM     33  C   UNL     1       0.682   3.168  -1.916  0.00  0.00    +0.161 A 
ATOM     34  C   UNL     1      -0.579   3.728  -2.094  0.00  0.00    +0.162 A 
ATOM     35  C   UNL     1      -1.711   2.962  -1.864  0.00  0.00    +0.053 A 
BRANCH  34  36
ATOM     36  O   UNL     1      -0.701   5.022  -2.491  0.00  0.00    -0.491 OA
ATOM     37  C   UNL     1      -2.027   5.530  -2.652  0.00  0.00    +0.277 C 
ENDBRANCH  34  36
BRANCH  33  38
ATOM     38  O   UNL     1       1.797   3.915  -2.141  0.00  0.00    -0.491 OA
ATOM     39  C   UNL     1       3.058   3.275  -1.939  0.00  0.00    +0.277 C 
ENDBRANCH  33  38
ENDBRANCH   5  30
TORSDOF 7
