REMARK  Name = ZINC24772160
REMARK  8 active torsions:
REMARK  status: ('A' for Active; 'I' for Inactive)
REMARK    1  A    between atoms: C_1  and  N_2
REMARK    2  A    between atoms: N_2  and  C_3
REMARK    3  A    between atoms: C_6  and  N_9
REMARK    4  A    between atoms: C_12  and  C_14
REMARK    5  A    between atoms: C_14  and  S_15
REMARK    6  A    between atoms: S_15  and  C_16
REMARK    7  A    between atoms: C_19  and  C_22
REMARK    8  A    between atoms: N_20  and  N_21
REMARK                            x       y       z     vdW  Elec       q    Type
REMARK                         _______ _______ _______ _____ _____    ______ ____
ROOT
ATOM      1  C   UNL     1       0.800   1.167  -2.526  0.00  0.00    +0.209 A 
ATOM      2  N   UNL     1       1.738   0.270  -2.321  0.00  0.00    -0.121 NA
ATOM      3  N   UNL     1       2.445   0.120  -3.384  0.00  0.00    -0.127 NA
ATOM      4  C   UNL     1       2.008   0.918  -4.329  0.00  0.00    +0.183 A 
ATOM      5  N   UNL     1       0.941   1.614  -3.809  0.00  0.00    -0.224 N 
ENDROOT
BRANCH   4   6
ATOM      6  C   UNL     1       2.558   1.046  -5.695  0.00  0.00    +0.039 A 
ATOM      7  C   UNL     1       2.797   2.309  -6.239  0.00  0.00    +0.014 A 
ATOM      8  C   UNL     1       3.315   2.422  -7.512  0.00  0.00    +0.021 A 
ATOM      9  C   UNL     1       3.587   1.286  -8.256  0.00  0.00    +0.042 A 
ATOM     10  C   UNL     1       3.347   0.030  -7.725  0.00  0.00    +0.040 A 
ATOM     11  C   UNL     1       2.834  -0.096  -6.450  0.00  0.00    +0.053 A 
ATOM     12 CL   UNL     1       2.532  -1.672  -5.785  0.00  0.00    -0.083 Cl
ATOM     13 CL   UNL     1       4.233   1.437  -9.861  0.00  0.00    -0.083 Cl
ENDBRANCH   4   6
BRANCH   5  14
ATOM     14  N   UNL     1       0.180   2.555  -4.443  0.00  0.00    -0.295 N 
ATOM     15  H   UNL     1       0.399   2.827  -5.486  0.00  0.00    +0.163 HD
ATOM     16  H   UNL     1      -0.651   3.040  -3.911  0.00  0.00    +0.163 HD
ENDBRANCH   5  14
BRANCH   1  17
ATOM     17  S   UNL     1      -0.408   1.700  -1.360  0.00  0.00    -0.075 S 
BRANCH  17  18
ATOM     18  C   UNL     1       0.050   0.674   0.059  0.00  0.00    +0.173 C 
BRANCH  18  21
ATOM     19  C   UNL     1       0.405  -0.599   2.569  0.00  0.00    +0.138 C 
ATOM     20  N   UNL     1      -0.724   0.317   2.381  0.00  0.00    -0.274 N 
ATOM     21  C   UNL     1      -0.876   0.968   1.211  0.00  0.00    +0.230 C 
ATOM     22  O   UNL     1      -1.759   1.790   1.085  0.00  0.00    -0.274 OA
BRANCH  20  23
ATOM     23  C   UNL     1      -1.643   0.515   3.417  0.00  0.00    +0.036 A 
ATOM     24  C   UNL     1      -1.247   1.151   4.587  0.00  0.00    +0.026 A 
ATOM     25  C   UNL     1      -2.159   1.350   5.605  0.00  0.00    +0.034 A 
ATOM     26  C   UNL     1      -3.461   0.907   5.466  0.00  0.00    +0.126 A 
ATOM     27  C   UNL     1      -3.857   0.268   4.305  0.00  0.00    +0.034 A 
ATOM     28  C   UNL     1      -2.952   0.071   3.281  0.00  0.00    +0.026 A 
BRANCH  26  29
ATOM     29  N   UNL     1      -4.434   1.117   6.562  0.00  0.00    +0.056 N 
ATOM     30  O   UNL     1      -5.581   0.727   6.441  0.00  0.00    -0.126 OA
ATOM     31  O   UNL     1      -4.087   1.679   7.585  0.00  0.00    -0.126 OA
ENDBRANCH  26  29
ENDBRANCH  20  23
ENDBRANCH  18  21
ENDBRANCH  17  18
ENDBRANCH   1  17
TORSDOF 7
