REMARK  Name = ZINC21408766
REMARK  7 active torsions:
REMARK  status: ('A' for Active; 'I' for Inactive)
REMARK    1  A    between atoms: C_1  and  C_2
REMARK    2  A    between atoms: C_2  and  C_4
REMARK    3  A    between atoms: C_2  and  N_18
REMARK    4  A    between atoms: C_4  and  C_5
REMARK    5  A    between atoms: N_7  and  N_8
REMARK    6  A    between atoms: C_9  and  C_11
REMARK    7  A    between atoms: C_19  and  C_21
REMARK                            x       y       z     vdW  Elec       q    Type
REMARK                         _______ _______ _______ _____ _____    ______ ____
ROOT
ATOM      1  C   UNL     1       0.847  -1.998  -1.206  0.00  0.00    +0.231 C 
ATOM      2  O   UNL     1       0.410  -2.612  -0.256  0.00  0.00    -0.274 OA
ATOM      3  N   UNL     1       1.449  -2.657  -2.215  0.00  0.00    -0.234 N 
ATOM      4  H   UNL     1       1.799  -2.166  -2.975  0.00  0.00    +0.173 HD
ENDROOT
BRANCH   3   5
ATOM      5  N   UNL     1       1.569  -4.053  -2.168  0.00  0.00    -0.229 N 
ATOM      6  C   UNL     1       2.171  -4.712  -3.178  0.00  0.00    +0.276 C 
ATOM      7  O   UNL     1       2.610  -4.095  -4.131  0.00  0.00    -0.267 OA
ATOM      8  H   UNL     1       1.219  -4.544  -1.408  0.00  0.00    +0.173 HD
BRANCH   6   9
ATOM      9  C   UNL     1       2.297  -6.172  -3.128  0.00  0.00    +0.104 A 
ATOM     10  C   UNL     1       2.890  -6.972  -4.082  0.00  0.00    +0.047 A 
ATOM     11  C   UNL     1       2.788  -8.293  -3.632  0.00  0.00    +0.036 A 
ATOM     12  C   UNL     1       2.148  -8.277  -2.438  0.00  0.00    +0.098 A 
ATOM     13  N   UNL     1       1.849  -6.993  -2.118  0.00  0.00    -0.356 N 
ATOM     14  H   UNL     1       1.393  -6.702  -1.313  0.00  0.00    +0.166 HD
ATOM     15 BR   UNL     1       3.429  -9.828  -4.531  0.00  0.00    -0.049 Br
ENDBRANCH   6   9
ENDBRANCH   3   5
BRANCH   1  16
ATOM     16  C   UNL     1       0.718  -0.497  -1.257  0.00  0.00    +0.119 C 
BRANCH  16  18
ATOM     17  C   UNL     1      -0.019   1.526   0.010  0.00  0.00    +0.028 C 
ATOM     18  C   UNL     1       0.002  -0.004   0.002  0.00  0.00    +0.079 C 
BRANCH  18  19
ATOM     19  N   UNL     1      -1.372  -0.511   0.012  0.00  0.00    -0.308 N 
ATOM     20  C   UNL     1      -2.029  -0.655   1.181  0.00  0.00    +0.244 C 
ATOM     21  O   UNL     1      -1.480  -0.364   2.226  0.00  0.00    -0.270 OA
ATOM     22  H   UNL     1      -1.810  -0.743  -0.822  0.00  0.00    +0.149 HD
BRANCH  20  23
ATOM     23  C   UNL     1      -3.416  -1.167   1.191  0.00  0.00    +0.037 A 
ATOM     24  C   UNL     1      -4.046  -1.507  -0.006  0.00  0.00    +0.013 A 
ATOM     25  C   UNL     1      -5.340  -1.985   0.010  0.00  0.00    +0.001 A 
ATOM     26  C   UNL     1      -6.013  -2.126   1.211  0.00  0.00    +0.000 A 
ATOM     27  C   UNL     1      -5.394  -1.790   2.402  0.00  0.00    +0.001 A 
ATOM     28  C   UNL     1      -4.098  -1.317   2.399  0.00  0.00    +0.013 A 
ENDBRANCH  20  23
ENDBRANCH  18  19
ENDBRANCH  16  18
ENDBRANCH   1  16
TORSDOF 6
