REMARK  Name = ZINC27603760
REMARK  11 active torsions:
REMARK  status: ('A' for Active; 'I' for Inactive)
REMARK    1  A    between atoms: C_1  and  C_2
REMARK    2  A    between atoms: C_2  and  C_4
REMARK    3  A    between atoms: C_7  and  S_10
REMARK    4  A    between atoms: S_10  and  N_13
REMARK    5  A    between atoms: N_13  and  C_14
REMARK    6  A    between atoms: C_14  and  C_15
REMARK    7  A    between atoms: C_15  and  C_16
REMARK    8  A    between atoms: N_18  and  C_19
REMARK    9  A    between atoms: C_19  and  C_20
REMARK   10  A    between atoms: C_20  and  C_22
REMARK   11  A    between atoms: C_20  and  N_27
REMARK                            x       y       z     vdW  Elec       q    Type
REMARK                         _______ _______ _______ _____ _____    ______ ____
ROOT
ATOM      1  C   UNL     1      -3.751   1.838  -3.817  0.00  0.00    +0.214 C 
ATOM      2  O   UNL     1      -3.490   2.155  -4.958  0.00  0.00    -0.276 OA
ATOM      3  N   UNL     1      -2.767   1.447  -2.984  0.00  0.00    -0.316 N 
ATOM      4  H   UNL     1      -3.004   1.160  -1.949  0.00  0.00    +0.149 HD
ENDROOT
BRANCH   1   5
ATOM      5  C   UNL     1      -5.177   1.882  -3.330  0.00  0.00    +0.112 C 
BRANCH   5   6
ATOM      6  C   UNL     1      -6.088   2.356  -4.464  0.00  0.00    +0.115 C 
BRANCH   6   7
ATOM      7  N   UNL     1      -7.474   2.399  -3.991  0.00  0.00    -0.189 NA
ATOM      8  H   UNL     1      -7.790   1.759  -3.154  0.00  0.00    +0.148 HD
BRANCH   7   9
ATOM      9  S   UNL     1      -8.622   3.216  -4.862  0.00  0.00    +0.058 S 
ATOM     10  O   UNL     1      -9.851   3.052  -4.169  0.00  0.00    -0.153 OA
ATOM     11  O   UNL     1      -8.076   4.495  -5.154  0.00  0.00    -0.153 OA
BRANCH   9  15
ATOM     12  C   UNL     1      -9.075   1.067  -8.827  0.00  0.00    +0.017 A 
ATOM     13  C   UNL     1      -9.866   0.700  -7.734  0.00  0.00    +0.013 A 
ATOM     14  C   UNL     1      -9.722   1.358  -6.531  0.00  0.00    +0.029 A 
ATOM     15  C   UNL     1      -8.798   2.380  -6.404  0.00  0.00    +0.105 A 
ATOM     16  C   UNL     1      -8.015   2.753  -7.482  0.00  0.00    +0.029 A 
ATOM     17  C   UNL     1      -8.143   2.101  -8.691  0.00  0.00    +0.013 A 
BRANCH  12  19
ATOM     18  C   UNL     1      -8.367   0.768 -11.290  0.00  0.00    +0.091 C 
ATOM     19  C   UNL     1      -9.222   0.369 -10.114  0.00  0.00    +0.160 C 
ATOM     20  O   UNL     1     -10.030  -0.527 -10.229  0.00  0.00    -0.292 OA
ENDBRANCH  12  19
ENDBRANCH   9  15
ENDBRANCH   7   9
ENDBRANCH   6   7
ENDBRANCH   5   6
ENDBRANCH   1   5
BRANCH   3  21
ATOM     21  C   UNL     1      -1.381   1.404  -3.457  0.00  0.00    +0.094 C 
BRANCH  21  22
ATOM     22  C   UNL     1      -0.488   0.807  -2.367  0.00  0.00    -0.013 C 
BRANCH  22  23
ATOM     23  N   UNL     1       0.915   0.866  -2.797  0.00  0.00    +0.386 N 
ATOM     24  C   UNL     1       1.821   0.373  -1.728  0.00  0.00    -0.078 C 
ATOM     25  C   UNL     1       3.200   0.974  -2.074  0.00  0.00    -0.020 C 
ATOM     26  C   UNL     1       2.886   2.224  -2.927  0.00  0.00    -0.020 C 
ATOM     27  C   UNL     1       1.346   2.270  -3.022  0.00  0.00    -0.078 C 
ATOM     28  H   UNL     1       0.964   0.255  -3.711  0.00  0.00    -0.081 HD
ENDBRANCH  22  23
BRANCH  22  29
ATOM     29  C   UNL     1      -0.881  -0.627  -2.126  0.00  0.00    -0.022 A 
ATOM     30  C   UNL     1      -1.650  -1.148  -1.139  0.00  0.00    +0.009 A 
ATOM     31  C   UNL     1      -1.881  -2.510  -1.116  0.00  0.00    +0.008 A 
ATOM     32  C   UNL     1      -1.330  -3.286  -2.082  0.00  0.00    +0.045 A 
ATOM     33  S   UNL     1      -0.459  -2.082  -3.071  0.00  0.00    -0.103 S 
ENDBRANCH  22  29
ENDBRANCH  21  22
ENDBRANCH   3  21
TORSDOF 10
