REMARK  Name = ZINC34750198
REMARK  8 active torsions:
REMARK  status: ('A' for Active; 'I' for Inactive)
REMARK    1  A    between atoms: C_1  and  C_2
REMARK    2  A    between atoms: C_2  and  C_4
REMARK    3  A    between atoms: C_4  and  N_5
REMARK    4  A    between atoms: C_18  and  S_20
REMARK    5  A    between atoms: S_20  and  C_21
REMARK    6  A    between atoms: C_21  and  C_22
REMARK    7  A    between atoms: C_31  and  C_33
REMARK    8  A    between atoms: C_31  and  C_34
REMARK                            x       y       z     vdW  Elec       q    Type
REMARK                         _______ _______ _______ _____ _____    ______ ____
ROOT
ATOM      1  N   UNL     1      -2.347  -0.235  -1.003  0.00  0.00    +0.384 N 
ATOM      2  C   UNL     1      -3.801  -0.189  -1.197  0.00  0.00    -0.059 C 
ATOM      3  C   UNL     1      -4.161  -0.872  -2.521  0.00  0.00    +0.088 C 
ATOM      4  N   UNL     1      -3.384  -0.238  -3.598  0.00  0.00    -0.318 N 
ATOM      5  C   UNL     1      -1.931  -0.095  -3.413  0.00  0.00    +0.088 C 
ATOM      6  C   UNL     1      -1.677   0.551  -2.047  0.00  0.00    -0.059 C 
ATOM      7  C   UNL     1      -4.001   0.209  -4.752  0.00  0.00    +0.134 A 
ATOM      8  C   UNL     1      -4.049  -0.619  -5.909  0.00  0.00    +0.051 A 
ATOM      9  C   UNL     1      -3.511  -1.965  -6.096  0.00  0.00    -0.020 A 
ATOM     10  C   UNL     1      -3.692  -2.537  -7.306  0.00  0.00    +0.021 A 
ATOM     11  S   UNL     1      -4.579  -1.335  -8.256  0.00  0.00    -0.071 S 
ATOM     12  C   UNL     1      -4.704  -0.062  -7.026  0.00  0.00    +0.115 A 
ATOM     13  N   UNL     1      -5.231   1.147  -6.987  0.00  0.00    -0.214 NA
ATOM     14  C   UNL     1      -5.155   1.874  -5.880  0.00  0.00    +0.191 A 
ATOM     15  N   UNL     1      -4.558   1.407  -4.790  0.00  0.00    -0.206 NA
ATOM     16  C   UNL     1      -3.228  -3.898  -7.721  0.00  0.00    +0.203 C 
ATOM     17  O   UNL     1      -2.290  -4.364  -6.738  0.00  0.00    -0.368 OA
ATOM     18  C   UNL     1      -2.752  -4.214  -5.393  0.00  0.00    +0.068 C 
ATOM     19  C   UNL     1      -2.770  -2.733  -5.004  0.00  0.00    +0.071 C 
ATOM     20  C   UNL     1      -4.167  -4.786  -5.277  0.00  0.00    +0.041 C 
ATOM     21  C   UNL     1      -1.821  -4.975  -4.448  0.00  0.00    +0.041 C 
ATOM     22  H   UNL     1      -2.034  -1.193  -1.052  0.00  0.00    -0.081 HD
ENDROOT
BRANCH   1  23
ATOM     23  C   UNL     1      -2.013   0.320   0.316  0.00  0.00    -0.048 C 
BRANCH  23  25
ATOM     24  C   UNL     1      -1.826  -1.800   1.828  0.00  0.00    +0.036 C 
ATOM     25  C   UNL     1      -2.579  -0.569   1.393  0.00  0.00    -0.096 C 
ATOM     26  C   UNL     1      -3.726  -0.271   1.952  0.00  0.00    +0.005 C 
ENDBRANCH  23  25
ENDBRANCH   1  23
BRANCH  14  27
ATOM     27  S   UNL     1      -5.867   3.485  -5.854  0.00  0.00    -0.077 S 
BRANCH  27  28
ATOM     28  C   UNL     1      -6.560   3.686  -7.519  0.00  0.00    +0.173 C 
BRANCH  28  29
ATOM     29  C   UNL     1      -7.208   5.042  -7.633  0.00  0.00    +0.226 C 
ATOM     30  O   UNL     1      -7.203   5.798  -6.684  0.00  0.00    -0.275 OA
ATOM     31  N   UNL     1      -7.793   5.414  -8.788  0.00  0.00    -0.301 N 
ATOM     32  C   UNL     1      -7.877   4.598 -10.008  0.00  0.00    +0.108 C 
ATOM     33  C   UNL     1      -8.608   5.441 -11.074  0.00  0.00    +0.020 C 
ATOM     34  C   UNL     1      -8.394   6.894 -10.575  0.00  0.00    +0.020 C 
ATOM     35  C   UNL     1      -8.461   6.705  -9.036  0.00  0.00    +0.108 C 
ENDBRANCH  28  29
ENDBRANCH  27  28
ENDBRANCH  14  27
TORSDOF 5
