REMARK  Name = ZINC10255751
REMARK  4 active torsions:
REMARK  status: ('A' for Active; 'I' for Inactive)
REMARK    1  A    between atoms: C_4  and  C_7
REMARK    2  A    between atoms: C_10  and  C_13
REMARK    3  A    between atoms: C_13  and  C_14
REMARK    4  A    between atoms: C_24  and  C_26
REMARK                            x       y       z     vdW  Elec       q    Type
REMARK                         _______ _______ _______ _____ _____    ______ ____
ROOT
ATOM      1  C   UNL     1      -3.522   3.379  -0.875  0.00  0.00    +0.225 C 
ATOM      2  O   UNL     1      -3.244   2.711  -1.848  0.00  0.00    -0.275 OA
ATOM      3  N   UNL     1      -2.588   3.620   0.067  0.00  0.00    -0.259 N 
ATOM      4  C   UNL     1      -2.795   4.373   1.227  0.00  0.00    +0.040 A 
ATOM      5  C   UNL     1      -3.950   5.021   1.667  0.00  0.00    +0.024 A 
ATOM      6  C   UNL     1      -3.946   5.720   2.855  0.00  0.00    +0.002 A 
ATOM      7  C   UNL     1      -2.796   5.784   3.621  0.00  0.00    +0.000 A 
ATOM      8  C   UNL     1      -1.648   5.145   3.191  0.00  0.00    +0.005 A 
ATOM      9  C   UNL     1      -1.648   4.443   2.001  0.00  0.00    -0.024 A 
ATOM     10  C   UNL     1      -0.549   3.666   1.307  0.00  0.00    +0.069 C 
ATOM     11  C   UNL     1      -1.208   3.131   0.025  0.00  0.00    +0.171 C 
ENDROOT
BRANCH  11  12
ATOM     12  C   UNL     1      -1.187   1.624   0.017  0.00  0.00    +0.232 C 
ATOM     13  O   UNL     1      -2.229   1.003   0.018  0.00  0.00    -0.274 OA
ATOM     14  N   UNL     1      -0.011   0.966   0.007  0.00  0.00    -0.328 N 
ATOM     15  H   UNL     1       0.002  -0.004   0.002  0.00  0.00    +0.145 HD
ATOM     16  H   UNL     1       0.822   1.462   0.002  0.00  0.00    +0.145 HD
ENDBRANCH  11  12
BRANCH   1  17
ATOM     17  C   UNL     1      -4.912   3.939  -0.718  0.00  0.00    +0.131 C 
BRANCH  17  21
ATOM     18  C   UNL     1      -7.307   2.772  -4.061  0.00  0.00    -0.018 A 
ATOM     19  C   UNL     1      -7.251   1.966  -2.926  0.00  0.00    +0.009 A 
ATOM     20  C   UNL     1      -6.476   2.348  -1.850  0.00  0.00    +0.005 A 
ATOM     21  C   UNL     1      -5.756   3.528  -1.896  0.00  0.00    -0.039 A 
ATOM     22  C   UNL     1      -5.813   4.334  -3.019  0.00  0.00    +0.005 A 
ATOM     23  C   UNL     1      -6.580   3.960  -4.103  0.00  0.00    +0.009 A 
BRANCH  18  27
ATOM     24  C   UNL     1      -9.688   1.610  -7.388  0.00  0.00    +0.000 A 
ATOM     25  C   UNL     1      -8.969   2.791  -7.434  0.00  0.00    +0.001 A 
ATOM     26  C   UNL     1      -8.194   3.172  -6.357  0.00  0.00    +0.008 A 
ATOM     27  C   UNL     1      -8.138   2.366  -5.222  0.00  0.00    -0.018 A 
ATOM     28  C   UNL     1      -8.860   1.175  -5.183  0.00  0.00    +0.008 A 
ATOM     29  C   UNL     1      -9.636   0.806  -6.263  0.00  0.00    +0.001 A 
ENDBRANCH  18  27
ENDBRANCH  17  21
ENDBRANCH   1  17
TORSDOF 4
