REMARK  Name = ZINC43437564
REMARK  12 active torsions:
REMARK  status: ('A' for Active; 'I' for Inactive)
REMARK    1  A    between atoms: C_1  and  C_2
REMARK    2  A    between atoms: C_2  and  C_3
REMARK    3  A    between atoms: C_2  and  C_4
REMARK    4  A    between atoms: C_2  and  C_5
REMARK    5  A    between atoms: C_5  and  C_6
REMARK    6  A    between atoms: C_6  and  C_7
REMARK    7  A    between atoms: C_6  and  C_8
REMARK    8  A    between atoms: C_6  and  N_9
REMARK    9  A    between atoms: N_9  and  S_10
REMARK   10  A    between atoms: S_10  and  C_13
REMARK   11  A    between atoms: C_18  and  N_19
REMARK   12  A    between atoms: N_19  and  N_20
REMARK                            x       y       z     vdW  Elec       q    Type
REMARK                         _______ _______ _______ _____ _____    ______ ____
ROOT
ATOM      1  S   UNL     1       4.639   0.341  -4.043  0.00  0.00    +0.062 S 
ATOM      2  O   UNL     1       4.734  -0.037  -5.410  0.00  0.00    -0.153 OA
ATOM      3  O   UNL     1       4.765   1.690  -3.615  0.00  0.00    -0.153 OA
ENDROOT
BRANCH   1   4
ATOM      4  C   UNL     1       5.869  -0.578  -3.179  0.00  0.00    +0.147 A 
ATOM      5  C   UNL     1       6.726   0.054  -2.297  0.00  0.00    +0.048 A 
ATOM      6  C   UNL     1       7.681  -0.710  -1.638  0.00  0.00    +0.038 A 
ATOM      7  C   UNL     1       7.746  -2.068  -1.881  0.00  0.00    +0.128 A 
ATOM      8  N   UNL     1       6.915  -2.644  -2.728  0.00  0.00    -0.236 NA
ATOM      9  C   UNL     1       5.987  -1.951  -3.371  0.00  0.00    +0.159 A 
ATOM     10 BR   UNL     1       8.880   0.102  -0.421  0.00  0.00    -0.049 Br
BRANCH   9  11
ATOM     11  N   UNL     1       5.128  -2.600  -4.250  0.00  0.00    -0.266 N 
ATOM     12  H   UNL     1       4.496  -2.087  -4.779  0.00  0.00    +0.167 HD
BRANCH  11  13
ATOM     13  N   UNL     1       5.172  -3.960  -4.370  0.00  0.00    -0.255 NA
ATOM     14  H   UNL     1       5.038  -4.406  -3.474  0.00  0.00    +0.140 HD
ATOM     15  H   UNL     1       4.494  -4.287  -5.041  0.00  0.00    +0.140 HD
ENDBRANCH  11  13
ENDBRANCH   9  11
ENDBRANCH   1   4
BRANCH   1  16
ATOM     16  N   UNL     1       3.165  -0.190  -3.507  0.00  0.00    -0.184 NA
ATOM     17  H   UNL     1       2.526  -0.562  -4.135  0.00  0.00    +0.149 HD
BRANCH  16  18
ATOM     18  C   UNL     1       2.825  -0.097  -2.085  0.00  0.00    +0.035 C 
ATOM     19  C   UNL     1       3.309   1.246  -1.532  0.00  0.00    +0.029 C 
ATOM     20  C   UNL     1       3.504  -1.236  -1.323  0.00  0.00    +0.029 C 
BRANCH  18  21
ATOM     21  C   UNL     1       1.308  -0.202  -1.915  0.00  0.00    +0.029 C 
BRANCH  21  23
ATOM     22  C   UNL     1       0.479  -0.185  -4.271  0.00  0.00    +0.010 C 
ATOM     23  C   UNL     1       0.615   0.638  -2.989  0.00  0.00    -0.036 C 
ATOM     24  C   UNL     1       1.447   1.891  -3.273  0.00  0.00    +0.010 C 
ATOM     25  C   UNL     1      -0.774   1.049  -2.498  0.00  0.00    +0.010 C 
ENDBRANCH  21  23
ENDBRANCH  18  21
ENDBRANCH  16  18
ENDBRANCH   1  16
TORSDOF 7
