REMARK  Name = ZINC39655347
REMARK  9 active torsions:
REMARK  status: ('A' for Active; 'I' for Inactive)
REMARK    1  A    between atoms: C_1  and  C_2
REMARK    2  A    between atoms: C_2  and  C_3
REMARK    3  A    between atoms: C_3  and  C_5
REMARK    4  A    between atoms: C_3  and  C_6
REMARK    5  A    between atoms: C_10  and  C_19
REMARK    6  A    between atoms: N_21  and  C_22
REMARK    7  A    between atoms: C_22  and  C_23
REMARK    8  A    between atoms: C_23  and  N_24
REMARK    9  A    between atoms: N_24  and  C_25
REMARK                            x       y       z     vdW  Elec       q    Type
REMARK                         _______ _______ _______ _____ _____    ______ ____
ROOT
ATOM      1  C   UNL     1       0.786  -1.744  -1.382  0.00  0.00    +0.218 C 
ATOM      2  O   UNL     1       0.289  -2.275  -0.411  0.00  0.00    -0.275 OA
ATOM      3  N   UNL     1       1.403  -2.492  -2.317  0.00  0.00    -0.300 N 
ATOM      4  C   UNL     1       2.069  -2.029  -3.557  0.00  0.00    +0.121 C 
ATOM      5  C   UNL     1       3.329  -2.915  -3.678  0.00  0.00    +0.100 C 
ATOM      6  C   UNL     1       2.994  -4.185  -2.878  0.00  0.00    -0.004 C 
ATOM      7  C   UNL     1       1.575  -3.965  -2.335  0.00  0.00    +0.115 C 
ATOM      8  C   UNL     1       3.974  -4.355  -1.721  0.00  0.00    -0.010 C 
ATOM      9  C   UNL     1       3.656  -5.654  -0.975  0.00  0.00    -0.082 C 
ATOM     10  N   UNL     1       3.757  -6.789  -1.900  0.00  0.00    +0.379 N 
ATOM     11  C   UNL     1       2.748  -6.665  -2.959  0.00  0.00    -0.082 C 
ATOM     12  C   UNL     1       3.028  -5.409  -3.789  0.00  0.00    -0.010 C 
ATOM     13  H   UNL     1       4.677  -6.802  -2.314  0.00  0.00    -0.086 HD
ATOM     14  H   UNL     1       3.607  -7.649  -1.393  0.00  0.00    -0.086 HD
ENDROOT
BRANCH   5  15
ATOM     15  C   UNL     1       4.522  -2.216  -3.081  0.00  0.00    +0.218 C 
ATOM     16  O   UNL     1       4.372  -1.437  -2.163  0.00  0.00    -0.275 OA
ATOM     17  N   UNL     1       5.757  -2.455  -3.566  0.00  0.00    -0.314 N 
ATOM     18  H   UNL     1       5.877  -3.078  -4.300  0.00  0.00    +0.149 HD
BRANCH  17  19
ATOM     19  C   UNL     1       6.917  -1.775  -2.986  0.00  0.00    +0.123 C 
BRANCH  19  20
ATOM     20  C   UNL     1       8.187  -2.220  -3.713  0.00  0.00    +0.120 C 
BRANCH  20  21
ATOM     21  N   UNL     1       9.347  -1.540  -3.133  0.00  0.00    -0.342 N 
ATOM     22  H   UNL     1       9.227  -0.917  -2.399  0.00  0.00    +0.146 HD
BRANCH  21  23
ATOM     23  C   UNL     1      10.626  -1.788  -3.636  0.00  0.00    +0.027 A 
ATOM     24  C   UNL     1      10.799  -2.675  -4.691  0.00  0.00    +0.023 A 
ATOM     25  C   UNL     1      12.065  -2.918  -5.186  0.00  0.00    +0.002 A 
ATOM     26  C   UNL     1      13.160  -2.280  -4.633  0.00  0.00    +0.000 A 
ATOM     27  C   UNL     1      12.991  -1.396  -3.583  0.00  0.00    +0.002 A 
ATOM     28  C   UNL     1      11.727  -1.144  -3.086  0.00  0.00    +0.023 A 
ENDBRANCH  21  23
ENDBRANCH  20  21
ENDBRANCH  19  20
ENDBRANCH  17  19
ENDBRANCH   5  15
BRANCH   1  29
ATOM     29  C   UNL     1       0.714  -0.247  -1.542  0.00  0.00    +0.072 C 
ATOM     30  C   UNL     1      -0.029   0.092  -2.835  0.00  0.00    +0.017 C 
BRANCH  29  32
ATOM     31  C   UNL     1       0.001   1.884  -0.449  0.00  0.00    +0.004 C 
ATOM     32  C   UNL     1      -0.033   0.358  -0.351  0.00  0.00    +0.009 C 
ENDBRANCH  29  32
ENDBRANCH   1  29
TORSDOF 7
