REMARK  Name = ZINC47599407
REMARK  9 active torsions:
REMARK  status: ('A' for Active; 'I' for Inactive)
REMARK    1  A    between atoms: C_1  and  C_2
REMARK    2  A    between atoms: C_2  and  CA_3
REMARK    3  A    between atoms: CA_3  and  C_5
REMARK    4  A    between atoms: CA_3  and  N_7
REMARK    5  A    between atoms: C_5  and  O_6
REMARK    6  A    between atoms: N_10  and  C_11
REMARK    7  A    between atoms: C_11  and  C_12
REMARK    8  A    between atoms: C_12  and  C_14
REMARK    9  A    between atoms: C_12  and  C_20
REMARK                            x       y       z     vdW  Elec       q    Type
REMARK                         _______ _______ _______ _____ _____    ______ ____
ROOT
ATOM      1  C   UNL     1      -1.346   2.934  -5.880  0.00  0.00    +0.068 C 
ENDROOT
BRANCH   1   2
ATOM      2  C   UNL     1      -1.256   4.340  -6.414  0.00  0.00    -0.013 A 
ATOM      3  C   UNL     1      -0.153   4.950  -6.875  0.00  0.00    +0.088 A 
ATOM      4  N   UNL     1      -0.457   6.223  -7.276  0.00  0.00    -0.360 N 
ATOM      5  H   UNL     1       0.177   6.857  -7.645  0.00  0.00    +0.165 HD
ATOM      6  C   UNL     1      -1.797   6.470  -7.076  0.00  0.00    +0.047 A 
ATOM      7  C   UNL     1      -2.358   5.299  -6.533  0.00  0.00    +0.003 A 
ATOM      8  C   UNL     1      -3.720   5.255  -6.231  0.00  0.00    +0.010 A 
ATOM      9  C   UNL     1      -4.503   6.349  -6.466  0.00  0.00    +0.001 A 
ATOM     10  C   UNL     1      -3.956   7.505  -7.005  0.00  0.00    +0.002 A 
ATOM     11  C   UNL     1      -2.612   7.574  -7.303  0.00  0.00    +0.026 A 
ENDBRANCH   1   2
BRANCH   1  12
ATOM     12  C   UNL     1      -0.918   1.962  -6.949  0.00  0.00    -0.038 A 
ATOM     13  C   UNL     1       0.357   2.033  -7.478  0.00  0.00    +0.004 A 
ATOM     14  C   UNL     1       0.749   1.142  -8.459  0.00  0.00    +0.000 A 
ATOM     15  C   UNL     1      -0.134   0.179  -8.911  0.00  0.00    +0.000 A 
ATOM     16  C   UNL     1      -1.409   0.108  -8.382  0.00  0.00    +0.000 A 
ATOM     17  C   UNL     1      -1.800   0.997  -7.398  0.00  0.00    +0.004 A 
ENDBRANCH   1  12
BRANCH   1  18
ATOM     18  C   UNL     1      -0.428   2.791  -4.664  0.00  0.00    +0.118 C 
BRANCH  18  22
ATOM     19  N   UNL     1      -0.055  -0.114  -2.441  0.00  0.00    -0.294 N 
ATOM     20  C   UNL     1       0.107   1.109  -2.984  0.00  0.00    +0.300 C 
ATOM     21  O   UNL     1       0.895   1.893  -2.492  0.00  0.00    -0.253 OA
ATOM     22  N   UNL     1      -0.604   1.462  -4.073  0.00  0.00    -0.299 N 
ATOM     23  H   UNL     1      -0.683  -0.740  -2.833  0.00  0.00    +0.151 HD
ATOM     24  H   UNL     1      -1.233   0.836  -4.466  0.00  0.00    +0.150 HD
BRANCH  19  25
ATOM     25  CA  UNL     1       0.718  -0.497  -1.257  0.00  0.00    +0.099 C 
BRANCH  25  27
ATOM     26  C   UNL     1      -0.019   1.526   0.010  0.00  0.00    +0.006 C 
ATOM     27  C   UNL     1       0.002  -0.004   0.002  0.00  0.00    +0.021 C 
ENDBRANCH  25  27
BRANCH  25  28
ATOM     28  C   UNL     1       0.849  -2.021  -1.205  0.00  0.00    +0.178 C 
BRANCH  28  29
ATOM     29  O   UNL     1      -0.442  -2.604  -1.018  0.00  0.00    -0.393 OA
ATOM     30  H   UNL     1      -0.435  -3.570  -0.976  0.00  0.00    +0.209 HD
ENDBRANCH  28  29
ENDBRANCH  25  28
ENDBRANCH  19  25
ENDBRANCH  18  22
ENDBRANCH   1  18
TORSDOF 8
