REMARK  Name = ZINC40735539
REMARK  5 active torsions:
REMARK  status: ('A' for Active; 'I' for Inactive)
REMARK    1  A    between atoms: C_3  and  O_21
REMARK    2  A    between atoms: C_6  and  C_7
REMARK    3  A    between atoms: C_7  and  C_8
REMARK    4  A    between atoms: C_8  and  N_9
REMARK    5  A    between atoms: C_15  and  N_20
REMARK                            x       y       z     vdW  Elec       q    Type
REMARK                         _______ _______ _______ _____ _____    ______ ____
ROOT
ATOM      1  N   UNL     1      -3.005  -1.775  -1.420  0.00  0.00    -0.329 N 
ATOM      2  C   UNL     1      -3.614  -2.123  -2.618  0.00  0.00    +0.119 A 
ATOM      3  C   UNL     1      -3.006  -1.755  -3.827  0.00  0.00    +0.044 A 
ATOM      4  C   UNL     1      -3.591  -2.091  -5.011  0.00  0.00    +0.013 A 
ATOM      5  C   UNL     1      -4.806  -2.807  -4.976  0.00  0.00    +0.002 A 
ATOM      6  C   UNL     1      -5.460  -3.183  -6.159  0.00  0.00    +0.032 A 
ATOM      7  C   UNL     1      -6.646  -3.882  -6.085  0.00  0.00    +0.025 A 
ATOM      8  C   UNL     1      -7.198  -4.217  -4.844  0.00  0.00    +0.025 A 
ATOM      9  C   UNL     1      -6.580  -3.862  -3.685  0.00  0.00    +0.030 A 
ATOM     10  C   UNL     1      -5.370  -3.149  -3.723  0.00  0.00    +0.073 A 
ATOM     11  N   UNL     1      -4.745  -2.796  -2.593  0.00  0.00    -0.232 NA
ATOM     12  H   UNL     1      -3.414  -2.028  -0.578  0.00  0.00    +0.147 HD
ENDROOT
BRANCH   7  13
ATOM     13  N   UNL     1      -7.302  -4.260  -7.260  0.00  0.00    -0.358 N 
ATOM     14  H   UNL     1      -6.923  -4.030  -8.123  0.00  0.00    +0.142 HD
ATOM     15  H   UNL     1      -8.136  -4.753  -7.213  0.00  0.00    +0.142 HD
ENDBRANCH   7  13
BRANCH   1  16
ATOM     16  C   UNL     1      -1.746  -1.027  -1.429  0.00  0.00    +0.107 C 
BRANCH  16  17
ATOM     17  C   UNL     1      -1.293  -0.774   0.011  0.00  0.00    +0.054 C 
BRANCH  17  23
ATOM     18  C   UNL     1      -0.017   1.378   0.010  0.00  0.00    +0.007 A 
ATOM     19  C   UNL     1       1.169   2.087   0.002  0.00  0.00    +0.045 A 
ATOM     20  C   UNL     1       2.380   1.409  -0.013  0.00  0.00    +0.117 A 
ATOM     21  C   UNL     1       2.396   0.022  -0.021  0.00  0.00    +0.045 A 
ATOM     22  C   UNL     1       1.207  -0.681  -0.013  0.00  0.00    +0.007 A 
ATOM     23  C   UNL     1       0.002  -0.004   0.002  0.00  0.00    -0.046 A 
BRANCH  20  24
ATOM     24  O   UNL     1       3.548   2.104  -0.021  0.00  0.00    -0.507 OA
ATOM     25  H   UNL     1       3.895   2.300   0.860  0.00  0.00    +0.292 HD
ENDBRANCH  20  24
ENDBRANCH  17  23
ENDBRANCH  16  17
ENDBRANCH   1  16
TORSDOF 5
