REMARK  Name = ZINC36584941
REMARK  9 active torsions:
REMARK  status: ('A' for Active; 'I' for Inactive)
REMARK    1  A    between atoms: C_1  and  O_2
REMARK    2  A    between atoms: O_2  and  C_3
REMARK    3  A    between atoms: C_3  and  C_5
REMARK    4  A    between atoms: C_5  and  C_7
REMARK    5  A    between atoms: C_5  and  N_11
REMARK    6  A    between atoms: C_7  and  C_8
REMARK    7  A    between atoms: C_8  and  S_9
REMARK    8  A    between atoms: S_9  and  C_10
REMARK    9  A    between atoms: C_23  and  C_25
REMARK                            x       y       z     vdW  Elec       q    Type
REMARK                         _______ _______ _______ _____ _____    ______ ____
ROOT
ATOM      1  N   UNL     1      -2.725  -2.376  -2.238  0.00  0.00    -0.286 N 
ATOM      2  C   UNL     1      -3.361  -2.673  -1.087  0.00  0.00    +0.304 C 
ATOM      3  O   UNL     1      -2.748  -2.675  -0.037  0.00  0.00    -0.253 OA
ATOM      4  N   UNL     1      -4.676  -2.967  -1.101  0.00  0.00    -0.273 N 
ATOM      5  C   UNL     1      -5.413  -3.176   0.154  0.00  0.00    +0.116 C 
ATOM      6  C   UNL     1      -6.477  -2.081   0.300  0.00  0.00    +0.074 C 
ATOM      7  C   UNL     1      -7.187  -1.914  -1.018  0.00  0.00    +0.040 A 
ATOM      8  C   UNL     1      -6.719  -2.352  -2.206  0.00  0.00    +0.062 A 
ATOM      9  N   UNL     1      -7.608  -2.026  -3.147  0.00  0.00    -0.348 N 
ATOM     10  C   UNL     1      -8.613  -1.403  -2.589  0.00  0.00    +0.171 A 
ATOM     11  N   UNL     1      -8.386  -1.316  -1.258  0.00  0.00    -0.349 N 
ATOM     12  H   UNL     1      -8.968  -0.904  -0.600  0.00  0.00    +0.166 HD
ATOM     13  C   UNL     1      -5.411  -3.080  -2.373  0.00  0.00    +0.157 C 
ATOM     14  H   UNL     1      -3.193  -2.450  -3.084  0.00  0.00    +0.151 HD
ATOM     15  H   UNL     1      -7.521  -2.220  -4.094  0.00  0.00    +0.167 HD
ENDROOT
BRANCH  13  16
ATOM     16  C   UNL     1      -5.673  -4.530  -2.687  0.00  0.00    -0.003 A 
ATOM     17  C   UNL     1      -6.468  -5.287  -1.848  0.00  0.00    +0.007 A 
ATOM     18  C   UNL     1      -6.708  -6.617  -2.136  0.00  0.00    +0.000 A 
ATOM     19  C   UNL     1      -6.152  -7.192  -3.264  0.00  0.00    +0.001 A 
ATOM     20  C   UNL     1      -5.357  -6.437  -4.104  0.00  0.00    +0.020 A 
ATOM     21  C   UNL     1      -5.121  -5.103  -3.819  0.00  0.00    +0.046 A 
ATOM     22 CL   UNL     1      -4.127  -4.152  -4.878  0.00  0.00    -0.083 Cl
ENDBRANCH  13  16
BRANCH   1  23
ATOM     23  C   UNL     1      -1.326  -1.941  -2.211  0.00  0.00    +0.184 C 
BRANCH  23  24
ATOM     24  C   UNL     1      -0.425  -3.149  -2.194  0.00  0.00    +0.327 C 
ATOM     25  O   UNL     1      -0.902  -4.259  -2.203  0.00  0.00    -0.249 OA
BRANCH  24  27
ATOM     26  C   UNL     1       1.701  -4.180  -2.152  0.00  0.00    +0.280 C 
ATOM     27  O   UNL     1       0.908  -2.991  -2.168  0.00  0.00    -0.467 OA
ENDBRANCH  24  27
ENDBRANCH  23  24
BRANCH  23  28
ATOM     28  C   UNL     1      -1.029  -1.101  -3.455  0.00  0.00    +0.044 C 
BRANCH  28  29
ATOM     29  C   UNL     1      -1.854   0.187  -3.410  0.00  0.00    +0.071 C 
BRANCH  29  30
ATOM     30  S   UNL     1      -1.501   1.183  -4.884  0.00  0.00    -0.164 S 
ATOM     31  C   UNL     1      -2.544   2.653  -4.680  0.00  0.00    +0.084 C 
ENDBRANCH  29  30
ENDBRANCH  28  29
ENDBRANCH  23  28
ENDBRANCH   1  23
TORSDOF 7
