REMARK  Name = ZINC36851148
REMARK  5 active torsions:
REMARK  status: ('A' for Active; 'I' for Inactive)
REMARK    1  A    between atoms: C_1  and  C_2
REMARK    2  A    between atoms: C_2  and  C_3
REMARK    3  A    between atoms: C_2  and  N_4
REMARK    4  A    between atoms: C_8  and  N_12
REMARK    5  A    between atoms: N_12  and  C_13
REMARK                            x       y       z     vdW  Elec       q    Type
REMARK                         _______ _______ _______ _____ _____    ______ ____
ROOT
ATOM      1  N   UNL     1      -1.372  -0.511   0.012  0.00  0.00    -0.238 N 
ATOM      2  C   UNL     1      -2.239  -0.234   0.994  0.00  0.00    +0.224 C 
ATOM      3  O   UNL     1      -2.003   0.449   1.967  0.00  0.00    -0.275 OA
ATOM      4  C   UNL     1      -3.560  -0.910   0.697  0.00  0.00    +0.128 C 
ATOM      5  C   UNL     1      -3.304  -1.632  -0.641  0.00  0.00    +0.166 C 
ATOM      6  C   UNL     1      -1.867  -1.285  -0.962  0.00  0.00    +0.243 C 
ATOM      7  O   UNL     1      -1.258  -1.651  -1.945  0.00  0.00    -0.273 OA
ENDROOT
BRANCH   1   9
ATOM      8  C   UNL     1      -0.019   1.526   0.010  0.00  0.00    +0.028 C 
ATOM      9  C   UNL     1       0.002  -0.004   0.002  0.00  0.00    +0.078 C 
ATOM     10  C   UNL     1       0.742  -0.511   1.242  0.00  0.00    +0.028 C 
ENDBRANCH   1   9
BRANCH   5  11
ATOM     11  N   UNL     1      -4.201  -1.124  -1.682  0.00  0.00    -0.331 N 
ATOM     12  H   UNL     1      -4.567  -0.229  -1.611  0.00  0.00    +0.147 HD
BRANCH  11  13
ATOM     13  C   UNL     1      -4.527  -1.928  -2.777  0.00  0.00    +0.048 A 
ATOM     14  C   UNL     1      -4.008  -3.212  -2.877  0.00  0.00    +0.044 A 
ATOM     15  C   UNL     1      -4.333  -4.005  -3.961  0.00  0.00    +0.043 A 
ATOM     16  C   UNL     1      -5.175  -3.521  -4.947  0.00  0.00    +0.021 A 
ATOM     17  C   UNL     1      -5.694  -2.243  -4.850  0.00  0.00    +0.023 A 
ATOM     18  C   UNL     1      -5.378  -1.447  -3.765  0.00  0.00    +0.062 A 
ATOM     19 CL   UNL     1      -6.037   0.154  -3.641  0.00  0.00    -0.082 Cl
ATOM     20 CL   UNL     1      -3.683  -5.610  -4.087  0.00  0.00    -0.083 Cl
ENDBRANCH  11  13
ENDBRANCH   5  11
TORSDOF 3
