REMARK  Name = ZINC09128872
REMARK  5 active torsions:
REMARK  status: ('A' for Active; 'I' for Inactive)
REMARK    1  A    between atoms: C_1  and  C_2
REMARK    2  A    between atoms: C_2  and  N_52
REMARK    3  A    between atoms: C_15  and  C_17
REMARK    4  A    between atoms: C_18  and  O_33
REMARK    5  A    between atoms: N_23  and  C_26
REMARK                            x       y       z     vdW  Elec       q    Type
REMARK                         _______ _______ _______ _____ _____    ______ ____
ROOT
ATOM      1  C   UNL     1       0.252  -2.149  -0.926  0.00  0.00    +0.069 A 
ATOM      2  C   UNL     1       0.008  -2.864  -2.061  0.00  0.00    +0.201 A 
ATOM      3  N   UNL     1       0.615  -4.082  -2.236  0.00  0.00    -0.278 N 
ATOM      4  H   UNL     1       0.447  -4.592  -3.043  0.00  0.00    +0.173 HD
ATOM      5  C   UNL     1       1.438  -4.574  -1.293  0.00  0.00    +0.336 A 
ATOM      6  O   UNL     1       1.964  -5.657  -1.463  0.00  0.00    -0.246 OA
ATOM      7  N   UNL     1       1.688  -3.886  -0.164  0.00  0.00    -0.229 N 
ATOM      8  C   UNL     1       1.115  -2.684   0.046  0.00  0.00    +0.267 A 
ATOM      9  O   UNL     1       1.345  -2.065   1.070  0.00  0.00    -0.267 OA
ENDROOT
BRANCH   1  22
ATOM     10  C   UNL     1      -1.609   0.536   0.912  0.00  0.00    -0.073 C 
ATOM     11  C   UNL     1      -0.416   1.413   1.315  0.00  0.00    +0.019 C 
ATOM     12  C   UNL     1       0.649   1.265   0.258  0.00  0.00    -0.022 A 
ATOM     13  C   UNL     1       1.808   2.090   0.002  0.00  0.00    +0.003 A 
ATOM     14  C   UNL     1       2.309   3.243   0.617  0.00  0.00    +0.010 A 
ATOM     15  C   UNL     1       3.463   3.773   0.095  0.00  0.00    +0.001 A 
ATOM     16  C   UNL     1       4.111   3.204  -0.989  0.00  0.00    +0.002 A 
ATOM     17  C   UNL     1       3.638   2.064  -1.616  0.00  0.00    +0.026 A 
ATOM     18  C   UNL     1       2.468   1.502  -1.108  0.00  0.00    +0.047 A 
ATOM     19  N   UNL     1       1.745   0.405  -1.478  0.00  0.00    -0.359 N 
ATOM     20  H   UNL     1       1.967  -0.189  -2.212  0.00  0.00    +0.166 HD
ATOM     21  C   UNL     1       0.659   0.268  -0.656  0.00  0.00    +0.011 A 
ATOM     22  C   UNL     1      -0.400  -0.807  -0.713  0.00  0.00    +0.021 C 
ATOM     23  N   UNL     1      -1.112  -0.820   0.587  0.00  0.00    +0.388 N 
ATOM     24  H   UNL     1      -0.459  -1.119   1.321  0.00  0.00    -0.080 HD
BRANCH  23  26
ATOM     25  C   UNL     1      -2.809  -1.940   1.944  0.00  0.00    -0.017 C 
ATOM     26  C   UNL     1      -2.241  -1.771   0.534  0.00  0.00    -0.081 C 
ENDBRANCH  23  26
ENDBRANCH   1  22
BRANCH   7  27
ATOM     27  C   UNL     1       2.550  -4.424   0.802  0.00  0.00    +0.054 A 
ATOM     28  C   UNL     1       3.911  -4.156   0.746  0.00  0.00    +0.028 A 
ATOM     29  C   UNL     1       4.758  -4.683   1.702  0.00  0.00    +0.022 A 
ATOM     30  C   UNL     1       4.252  -5.487   2.708  0.00  0.00    +0.041 A 
ATOM     31  C   UNL     1       2.896  -5.759   2.764  0.00  0.00    +0.022 A 
ATOM     32  C   UNL     1       2.045  -5.230   1.813  0.00  0.00    +0.028 A 
ATOM     33 CL   UNL     1       5.319  -6.153   3.904  0.00  0.00    -0.084 Cl
ENDBRANCH   7  27
BRANCH   2  34
ATOM     34  O   UNL     1      -0.822  -2.375  -3.007  0.00  0.00    -0.493 OA
ATOM     35  H   UNL     1      -0.930  -2.955  -3.773  0.00  0.00    +0.294 HD
ENDBRANCH   2  34
TORSDOF 4
