REMARK  Name = ZINC24308760
REMARK  10 active torsions:
REMARK  status: ('A' for Active; 'I' for Inactive)
REMARK    1  A    between atoms: C_1  and  C_2
REMARK    2  A    between atoms: C_9  and  C_11
REMARK    3  A    between atoms: N_13  and  N_14
REMARK    4  A    between atoms: C_15  and  C_17
REMARK    5  A    between atoms: C_17  and  C_18
REMARK    6  A    between atoms: C_18  and  N_19
REMARK    7  A    between atoms: N_19  and  S_20
REMARK    8  A    between atoms: S_20  and  C_23
REMARK    9  A    between atoms: C_26  and  C_29
REMARK   10  A    between atoms: C_29  and  C_31
REMARK                            x       y       z     vdW  Elec       q    Type
REMARK                         _______ _______ _______ _____ _____    ______ ____
ROOT
ATOM      1  N   UNL     1       5.671   6.424  -0.753  0.00  0.00    -0.234 N 
ATOM      2  C   UNL     1       5.439   7.709  -1.087  0.00  0.00    +0.230 C 
ATOM      3  O   UNL     1       4.303   8.093  -1.269  0.00  0.00    -0.274 OA
ATOM      4  H   UNL     1       6.701   6.076  -0.588  0.00  0.00    +0.173 HD
ENDROOT
BRANCH   1   7
ATOM      5  C   UNL     1       4.831   4.247  -0.282  0.00  0.00    +0.267 C 
ATOM      6  O   UNL     1       5.971   3.861  -0.099  0.00  0.00    -0.268 OA
ATOM      7  N   UNL     1       4.600   5.532  -0.616  0.00  0.00    -0.230 N 
ATOM      8  H   UNL     1       3.569   5.880  -0.781  0.00  0.00    +0.173 HD
BRANCH   5  16
ATOM      9  C   UNL     1       0.830  -1.998   1.259  0.00  0.00    +0.008 C 
ATOM     10  C   UNL     1       0.991  -0.489   1.066  0.00  0.00    -0.009 C 
ATOM     11  C   UNL     1       0.002  -0.004   0.002  0.00  0.00    +0.009 C 
ATOM     12  C   UNL     1      -0.019   1.531   0.011  0.00  0.00    +0.043 C 
ATOM     13  C   UNL     1       1.396   2.023  -0.000  0.00  0.00    -0.006 A 
ATOM     14  C   UNL     1       2.522   1.297   0.266  0.00  0.00    -0.036 A 
ATOM     15  C   UNL     1       3.730   1.971   0.193  0.00  0.00    +0.024 A 
ATOM     16  C   UNL     1       3.710   3.313  -0.139  0.00  0.00    +0.076 A 
ATOM     17  S   UNL     1       1.963   3.612  -0.347  0.00  0.00    -0.088 S 
ATOM     18  C   UNL     1       2.423  -0.183   0.624  0.00  0.00    +0.039 C 
ENDBRANCH   5  16
ENDBRANCH   1   7
BRANCH   2  19
ATOM     19  C   UNL     1       6.592   8.669  -1.234  0.00  0.00    +0.114 C 
BRANCH  19  20
ATOM     20  C   UNL     1       6.059  10.051  -1.615  0.00  0.00    +0.115 C 
BRANCH  20  21
ATOM     21  N   UNL     1       7.179  10.984  -1.759  0.00  0.00    -0.189 NA
ATOM     22  H   UNL     1       8.122  10.798  -1.224  0.00  0.00    +0.148 HD
BRANCH  21  23
ATOM     23  S   UNL     1       6.953  12.439  -2.517  0.00  0.00    +0.058 S 
ATOM     24  O   UNL     1       8.201  13.118  -2.473  0.00  0.00    -0.153 OA
ATOM     25  O   UNL     1       6.280  12.161  -3.737  0.00  0.00    -0.153 OA
BRANCH  23  26
ATOM     26  C   UNL     1       5.835  13.375  -1.528  0.00  0.00    +0.105 A 
ATOM     27  C   UNL     1       4.473  13.283  -1.754  0.00  0.00    +0.029 A 
ATOM     28  C   UNL     1       3.591  14.009  -0.981  0.00  0.00    +0.013 A 
ATOM     29  C   UNL     1       4.078  14.846   0.028  0.00  0.00    +0.017 A 
ATOM     30  C   UNL     1       5.456  14.937   0.247  0.00  0.00    +0.013 A 
ATOM     31  C   UNL     1       6.324  14.202  -0.532  0.00  0.00    +0.029 A 
BRANCH  29  32
ATOM     32  C   UNL     1       3.144  15.627   0.855  0.00  0.00    +0.160 C 
ATOM     33  O   UNL     1       3.569  16.352   1.729  0.00  0.00    -0.292 OA
ATOM     34  C   UNL     1       1.660  15.526   0.615  0.00  0.00    +0.091 C 
ENDBRANCH  29  32
ENDBRANCH  23  26
ENDBRANCH  21  23
ENDBRANCH  20  21
ENDBRANCH  19  20
ENDBRANCH   2  19
TORSDOF 8
