REMARK  Name = ZINC35889149
REMARK  8 active torsions:
REMARK  status: ('A' for Active; 'I' for Inactive)
REMARK    1  A    between atoms: C_1  and  C_2
REMARK    2  A    between atoms: C_11  and  C_21
REMARK    3  A    between atoms: N_15  and  C_16
REMARK    4  A    between atoms: C_16  and  C_17
REMARK    5  A    between atoms: C_17  and  C_18
REMARK    6  A    between atoms: C_18  and  N_19
REMARK    7  A    between atoms: N_19  and  C_20
REMARK    8  A    between atoms: C_26  and  C_27
REMARK                            x       y       z     vdW  Elec       q    Type
REMARK                         _______ _______ _______ _____ _____    ______ ____
ROOT
ATOM      1  C   UNL     1      -1.287   1.653   0.542  0.00  0.00    +0.044 C 
ATOM      2  C   UNL     1      -1.608   0.187   0.677  0.00  0.00    -0.050 A 
ATOM      3  C   UNL     1      -2.599  -0.377  -0.114  0.00  0.00    +0.005 A 
ATOM      4  C   UNL     1      -2.910  -1.714  -0.009  0.00  0.00    +0.029 A 
ATOM      5  C   UNL     1      -2.221  -2.517   0.904  0.00  0.00    +0.078 A 
ATOM      6  C   UNL     1      -1.212  -1.939   1.708  0.00  0.00    +0.045 A 
ATOM      7  C   UNL     1      -0.910  -0.585   1.582  0.00  0.00    +0.017 A 
ATOM      8  C   UNL     1      -0.508  -2.808   2.657  0.00  0.00    +0.173 A 
ATOM      9  N   UNL     1       0.451  -2.639   3.536  0.00  0.00    -0.128 NA
ATOM     10  N   UNL     1       0.707  -3.754   4.125  0.00  0.00    -0.128 NA
ATOM     11  C   UNL     1      -0.074  -4.705   3.656  0.00  0.00    +0.171 A 
ATOM     12  N   UNL     1      -0.877  -4.135   2.703  0.00  0.00    -0.246 N 
ATOM     13  C   UNL     1      -1.867  -4.602   1.883  0.00  0.00    +0.203 A 
ATOM     14  N   UNL     1      -2.502  -3.837   1.034  0.00  0.00    -0.215 NA
ATOM     15  N   UNL     1      -2.209  -5.931   1.956  0.00  0.00    -0.315 N 
ATOM     16  H   UNL     1      -1.770  -6.511   2.597  0.00  0.00    +0.149 HD
ENDROOT
BRANCH  11  17
ATOM     17  C   UNL     1      -0.084  -6.121   4.078  0.00  0.00    +0.023 A 
ATOM     18  C   UNL     1       0.737  -7.050   3.434  0.00  0.00    +0.012 A 
ATOM     19  C   UNL     1       0.723  -8.370   3.833  0.00  0.00    +0.001 A 
ATOM     20  C   UNL     1      -0.100  -8.775   4.869  0.00  0.00    +0.000 A 
ATOM     21  C   UNL     1      -0.915  -7.860   5.511  0.00  0.00    +0.004 A 
ATOM     22  C   UNL     1      -0.908  -6.535   5.125  0.00  0.00    -0.040 A 
ATOM     23  C   UNL     1      -1.792  -5.538   5.830  0.00  0.00    +0.044 C 
ENDBRANCH  11  17
BRANCH  15  24
ATOM     24  C   UNL     1      -3.237  -6.472   1.063  0.00  0.00    +0.102 C 
BRANCH  24  25
ATOM     25  C   UNL     1      -3.425  -7.964   1.347  0.00  0.00    -0.000 C 
BRANCH  25  26
ATOM     26  C   UNL     1      -4.499  -8.529   0.415  0.00  0.00    -0.081 C 
BRANCH  26  27
ATOM     27  N   UNL     1      -4.679  -9.961   0.688  0.00  0.00    +0.377 N 
ATOM     28  C   UNL     1      -5.710 -10.504  -0.207  0.00  0.00    -0.101 C 
ATOM     29  H   UNL     1      -3.808 -10.446   0.531  0.00  0.00    -0.086 HD
ATOM     30  H   UNL     1      -4.966 -10.087   1.647  0.00  0.00    -0.086 HD
ENDBRANCH  26  27
ENDBRANCH  25  26
ENDBRANCH  24  25
ENDBRANCH  15  24
TORSDOF 5
