REMARK  Name = ZINC06166358
REMARK  6 active torsions:
REMARK  status: ('A' for Active; 'I' for Inactive)
REMARK    1  A    between atoms: C_1  and  C_2
REMARK    2  A    between atoms: N_13  and  C_16
REMARK    3  A    between atoms: C_16  and  C_18
REMARK    4  A    between atoms: C_16  and  C_19
REMARK    5  A    between atoms: N_21  and  N_22
REMARK    6  A    between atoms: N_22  and  C_23
REMARK                            x       y       z     vdW  Elec       q    Type
REMARK                         _______ _______ _______ _____ _____    ______ ____
ROOT
ATOM      1  C   UNL     1      -2.217  -7.205   0.016  0.00  0.00    +0.175 C 
ATOM      2  C   UNL     1      -3.221  -7.684   1.066  0.00  0.00    +0.041 C 
ENDROOT
BRANCH   1  14
ATOM      3  C   UNL     1       0.666   1.501  -0.642  0.00  0.00    +0.008 C 
ATOM      4  C   UNL     1       0.567  -0.022  -0.541  0.00  0.00    -0.009 C 
ATOM      5  C   UNL     1      -0.889  -0.456  -0.731  0.00  0.00    +0.008 C 
ATOM      6  C   UNL     1      -0.963  -1.976  -0.880  0.00  0.00    +0.037 C 
ATOM      7  C   UNL     1      -0.236  -2.624   0.295  0.00  0.00    -0.023 A 
ATOM      8  C   UNL     1       0.647  -1.912   1.034  0.00  0.00    -0.004 A 
ATOM      9  S   UNL     1       1.239  -3.042   2.268  0.00  0.00    -0.073 S 
ATOM     10  C   UNL     1       0.304  -4.462   1.793  0.00  0.00    +0.116 A 
ATOM     11  C   UNL     1      -0.442  -4.008   0.683  0.00  0.00    +0.076 A 
ATOM     12  C   UNL     1      -1.322  -4.954   0.058  0.00  0.00    +0.263 A 
ATOM     13  O   UNL     1      -2.009  -4.662  -0.906  0.00  0.00    -0.267 OA
ATOM     14  N   UNL     1      -1.340  -6.191   0.607  0.00  0.00    -0.287 N 
ATOM     15  C   UNL     1      -0.584  -6.536   1.677  0.00  0.00    +0.204 A 
ATOM     16  N   UNL     1       0.233  -5.698   2.277  0.00  0.00    -0.230 NA
ATOM     17  C   UNL     1       1.043  -0.479   0.846  0.00  0.00    +0.046 C 
ENDBRANCH   1  14
BRANCH   1  18
ATOM     18  C   UNL     1      -1.389  -8.372  -0.456  0.00  0.00    +0.252 C 
ATOM     19  O   UNL     1      -0.185  -8.359  -0.314  0.00  0.00    -0.272 OA
ATOM     20  N   UNL     1      -1.987  -9.431  -1.037  0.00  0.00    -0.235 N 
ATOM     21  H   UNL     1      -2.950  -9.442  -1.151  0.00  0.00    +0.173 HD
BRANCH  20  22
ATOM     22  N   UNL     1      -1.218 -10.516  -1.477  0.00  0.00    -0.259 N 
ATOM     23  H   UNL     1      -0.249 -10.469  -1.443  0.00  0.00    +0.170 HD
BRANCH  22  24
ATOM     24  C   UNL     1      -1.817 -11.615  -1.942  0.00  0.00    +0.116 C 
ATOM     25  C   UNL     1      -3.204 -11.900  -1.956  0.00  0.00    +0.024 A 
ATOM     26  C   UNL     1      -4.332 -11.193  -1.524  0.00  0.00    +0.012 A 
ATOM     27  C   UNL     1      -5.588 -11.748  -1.675  0.00  0.00    +0.001 A 
ATOM     28  C   UNL     1      -5.734 -13.000  -2.252  0.00  0.00    +0.002 A 
ATOM     29  C   UNL     1      -4.630 -13.716  -2.687  0.00  0.00    +0.024 A 
ATOM     30  C   UNL     1      -3.351 -13.182  -2.547  0.00  0.00    +0.043 A 
ATOM     31  N   UNL     1      -2.124 -13.671  -2.885  0.00  0.00    -0.280 N 
ATOM     32  C   UNL     1      -1.166 -12.816  -2.572  0.00  0.00    +0.264 C 
ATOM     33  O   UNL     1       0.027 -12.974  -2.757  0.00  0.00    -0.268 OA
ATOM     34  H   UNL     1      -1.974 -14.533  -3.304  0.00  0.00    +0.155 HD
ENDBRANCH  22  24
ENDBRANCH  20  22
ENDBRANCH   1  18
TORSDOF 4
