REMARK  Name = ZINC20332021
REMARK  8 active torsions:
REMARK  status: ('A' for Active; 'I' for Inactive)
REMARK    1  A    between atoms: C_1  and  C_2
REMARK    2  A    between atoms: C_2  and  C_3
REMARK    3  A    between atoms: C_3  and  C_4
REMARK    4  A    between atoms: C_10  and  C_14
REMARK    5  A    between atoms: C_14  and  O_15
REMARK    6  A    between atoms: O_15  and  C_16
REMARK    7  A    between atoms: C_19  and  C_22
REMARK    8  A    between atoms: C_32  and  C_34
REMARK                            x       y       z     vdW  Elec       q    Type
REMARK                         _______ _______ _______ _____ _____    ______ ____
ROOT
ATOM      1  C   UNL     1       0.253  -9.954  -3.429  0.00  0.00    +0.121 A 
ATOM      2  C   UNL     1       1.210 -10.799  -2.876  0.00  0.00    +0.046 A 
ATOM      3  C   UNL     1       1.276 -12.107  -3.264  0.00  0.00    +0.011 A 
ATOM      4  C   UNL     1       0.378 -12.597  -4.223  0.00  0.00    -0.024 A 
ATOM      5  C   UNL     1      -0.585 -11.740  -4.777  0.00  0.00    +0.011 A 
ATOM      6  C   UNL     1      -0.645 -10.435  -4.376  0.00  0.00    +0.046 A 
ENDROOT
BRANCH   4   7
ATOM      7  C   UNL     1       0.444 -13.998  -4.645  0.00  0.00    +0.024 C 
ATOM      8  C   UNL     1       0.829 -14.969  -3.748  0.00  0.00    +0.081 C 
ATOM      9  C   UNL     1       1.009 -14.673  -2.298  0.00  0.00    +0.152 C 
ATOM     10  N   UNL     1       0.293 -13.792  -1.652  0.00  0.00    -0.283 NA
ATOM     11  N   UNL     1       2.029 -15.437  -1.693  0.00  0.00    -0.152 N 
ATOM     12  C   UNL     1       2.369 -16.632  -2.291  0.00  0.00    +0.181 C 
ATOM     13  N   UNL     1       1.922 -17.114  -3.423  0.00  0.00    -0.152 NA
ATOM     14  C   UNL     1       1.080 -16.369  -4.171  0.00  0.00    +0.273 C 
ATOM     15  O   UNL     1       0.545 -16.830  -5.167  0.00  0.00    -0.268 OA
ATOM     16  S   UNL     1       3.553 -17.295  -1.149  0.00  0.00    -0.038 S 
ATOM     17  C   UNL     1       3.591 -15.909  -0.020  0.00  0.00    +0.097 C 
ATOM     18  N   UNL     1       2.714 -15.102  -0.544  0.00  0.00    -0.170 NA
ATOM     19  C   UNL     1       4.426 -15.723   1.221  0.00  0.00    +0.075 C 
ATOM     20  H   UNL     1       0.451 -13.637  -0.707  0.00  0.00    +0.188 HD
ENDBRANCH   4   7
BRANCH   1  21
ATOM     21  O   UNL     1       0.192  -8.656  -3.039  0.00  0.00    -0.486 OA
BRANCH  21  22
ATOM     22  C   UNL     1       1.143  -8.226  -2.063  0.00  0.00    +0.284 C 
BRANCH  22  29
ATOM     23  C   UNL     1       0.611  -1.927  -2.135  0.00  0.00    +0.102 A 
ATOM     24  N   UNL     1       0.381  -2.708  -1.124  0.00  0.00    -0.159 NA
ATOM     25  N   UNL     1       0.531  -4.089  -1.220  0.00  0.00    -0.171 N 
ATOM     26  C   UNL     1       0.320  -5.012  -0.236  0.00  0.00    +0.275 A 
ATOM     27  O   UNL     1      -0.040  -4.652   0.874  0.00  0.00    -0.266 OA
ATOM     28  C   UNL     1       0.517  -6.367  -0.500  0.00  0.00    +0.099 A 
ATOM     29  C   UNL     1       0.924  -6.767  -1.756  0.00  0.00    +0.087 A 
ATOM     30  N   UNL     1       1.120  -5.841  -2.692  0.00  0.00    -0.223 NA
ATOM     31  C   UNL     1       0.933  -4.572  -2.435  0.00  0.00    +0.199 A 
ATOM     32  S   UNL     1       1.082  -3.089  -3.407  0.00  0.00    -0.033 S 
BRANCH  23  33
ATOM     33  C   UNL     1       0.503  -0.426  -2.216  0.00  0.00    +0.064 C 
BRANCH  33  35
ATOM     34  C   UNL     1      -0.050   1.651  -0.943  0.00  0.00    +0.004 C 
ATOM     35  C   UNL     1       0.060   0.128  -0.860  0.00  0.00    +0.003 C 
ENDBRANCH  33  35
ENDBRANCH  23  33
ENDBRANCH  22  29
ENDBRANCH  21  22
ENDBRANCH   1  21
TORSDOF 6
