REMARK  Name = ZINC42886013
REMARK  3 active torsions:
REMARK  status: ('A' for Active; 'I' for Inactive)
REMARK    1  A    between atoms: C_6  and  C_7
REMARK    2  A    between atoms: C_7  and  O_9
REMARK    3  A    between atoms: O_9  and  C_10
REMARK                            x       y       z     vdW  Elec       q    Type
REMARK                         _______ _______ _______ _____ _____    ______ ____
ROOT
ATOM      1  C   UNL     1      -1.264  -0.753  -0.028  0.00  0.00    +0.344 C 
ATOM      2  O   UNL     1      -1.246  -1.967  -0.071  0.00  0.00    -0.245 OA
ENDROOT
BRANCH   1   8
ATOM      3  C   UNL     1      -0.021   1.400   0.012  0.00  0.00    +0.016 A 
ATOM      4  C   UNL     1       1.164   2.104   0.004  0.00  0.00    +0.017 A 
ATOM      5  C   UNL     1       2.374   1.427  -0.053  0.00  0.00    +0.030 A 
ATOM      6  C   UNL     1       2.411   0.029  -0.106  0.00  0.00    +0.048 A 
ATOM      7  C   UNL     1       1.220  -0.678  -0.096  0.00  0.00    +0.039 A 
ATOM      8  C   UNL     1       0.001   0.003  -0.038  0.00  0.00    +0.061 A 
ATOM      9  N   UNL     1       3.617  -0.666  -0.175  0.00  0.00    -0.284 N 
ATOM     10  C   UNL     1       4.810  -0.210   0.199  0.00  0.00    +0.227 C 
ATOM     11  O   UNL     1       5.766  -0.948   0.084  0.00  0.00    -0.275 OA
ATOM     12  C   UNL     1       5.038   1.168   0.755  0.00  0.00    +0.170 C 
ATOM     13  S   UNL     1       3.894   2.325  -0.058  0.00  0.00    -0.114 S 
ATOM     14  H   UNL     1       3.583  -1.568  -0.529  0.00  0.00    +0.155 HD
ENDBRANCH   1   8
BRANCH   1  15
ATOM     15  O   UNL     1      -2.440  -0.098   0.029  0.00  0.00    -0.422 OA
BRANCH  15  16
ATOM     16  C   UNL     1      -3.583  -0.828  -0.067  0.00  0.00    +0.132 A 
ATOM     17  C   UNL     1      -4.294  -0.849  -1.258  0.00  0.00    +0.048 A 
ATOM     18  C   UNL     1      -5.455  -1.590  -1.356  0.00  0.00    +0.027 A 
ATOM     19  C   UNL     1      -5.910  -2.315  -0.262  0.00  0.00    +0.037 A 
ATOM     20  C   UNL     1      -5.197  -2.293   0.929  0.00  0.00    -0.022 A 
ATOM     21  C   UNL     1      -4.034  -1.556   1.025  0.00  0.00    +0.051 A 
ATOM     22  C   UNL     1      -5.693  -3.081   2.114  0.00  0.00    +0.046 C 
ATOM     23  C   UNL     1      -7.222  -3.091   2.117  0.00  0.00    +0.101 C 
ATOM     24  C   UNL     1      -7.735  -3.463   0.752  0.00  0.00    +0.218 C 
ATOM     25  O   UNL     1      -8.745  -4.128   0.652  0.00  0.00    -0.275 OA
ATOM     26  N   UNL     1      -7.086  -3.068  -0.358  0.00  0.00    -0.285 N 
ATOM     27  H   UNL     1      -7.436  -3.305  -1.231  0.00  0.00    +0.155 HD
ENDBRANCH  15  16
ENDBRANCH   1  15
TORSDOF 3
