REMARK  Name = ZINC08654572
REMARK  13 active torsions:
REMARK  status: ('A' for Active; 'I' for Inactive)
REMARK    1  A    between atoms: C_1  and  C_2
REMARK    2  A    between atoms: C_2  and  S_3
REMARK    3  A    between atoms: S_3  and  C_6
REMARK    4  A    between atoms: C_9  and  N_23
REMARK    5  A    between atoms: C_10  and  C_12
REMARK    6  A    between atoms: N_14  and  C_15
REMARK    7  A    between atoms: C_18  and  C_22
REMARK    8  A    between atoms: C_20  and  C_21
REMARK    9  A    between atoms: N_23  and  C_24
REMARK   10  A    between atoms: N_23  and  C_30
REMARK   11  A    between atoms: C_24  and  C_25
REMARK   12  A    between atoms: C_30  and  C_31
REMARK   13  A    between atoms: C_32  and  C_36
REMARK                            x       y       z     vdW  Elec       q    Type
REMARK                         _______ _______ _______ _____ _____    ______ ____
ROOT
ATOM      1  C   UNL     1      -0.919  -3.231  -0.971  0.00  0.00    +0.271 A 
ATOM      2  N   UNL     1      -0.973  -4.019  -2.029  0.00  0.00    -0.218 NA
ATOM      3  C   UNL     1      -1.033  -5.331  -1.900  0.00  0.00    +0.140 A 
ATOM      4  C   UNL     1      -1.038  -5.888  -0.617  0.00  0.00    +0.080 A 
ATOM      5  C   UNL     1      -0.980  -5.016   0.480  0.00  0.00    +0.152 A 
ATOM      6  N   UNL     1      -0.916  -3.704   0.255  0.00  0.00    -0.205 NA
ENDROOT
BRANCH   5   7
ATOM      7  C   UNL     1      -0.983  -5.543   1.863  0.00  0.00    +0.269 C 
ATOM      8  O   UNL     1      -1.037  -6.742   2.056  0.00  0.00    -0.268 OA
ATOM      9  N   UNL     1      -0.926  -4.694   2.908  0.00  0.00    -0.280 N 
ATOM     10  H   UNL     1      -0.807  -3.744   2.755  0.00  0.00    +0.155 HD
BRANCH   9  11
ATOM     11  C   UNL     1      -1.039  -5.184   4.213  0.00  0.00    +0.037 A 
ATOM     12  C   UNL     1      -1.609  -6.430   4.442  0.00  0.00    +0.024 A 
ATOM     13  C   UNL     1      -1.719  -6.910   5.732  0.00  0.00    +0.005 A 
ATOM     14  C   UNL     1      -1.263  -6.152   6.795  0.00  0.00    -0.050 A 
ATOM     15  C   UNL     1      -0.696  -4.911   6.571  0.00  0.00    +0.008 A 
ATOM     16  C   UNL     1      -0.577  -4.428   5.282  0.00  0.00    -0.029 A 
ATOM     17  C   UNL     1       0.048  -3.078   5.038  0.00  0.00    +0.045 C 
ATOM     18  C   UNL     1      -1.385  -6.679   8.202  0.00  0.00    +0.044 C 
ENDBRANCH   9  11
ENDBRANCH   5   7
BRANCH   1  19
ATOM     19  S   UNL     1      -0.840  -1.487  -1.212  0.00  0.00    +0.032 S 
ATOM     20  O   UNL     1      -1.393  -0.932  -0.026  0.00  0.00    -0.166 OA
ATOM     21  O   UNL     1      -1.459  -1.267  -2.472  0.00  0.00    -0.166 OA
BRANCH  19  23
ATOM     22  C   UNL     1       1.122   0.393  -1.522  0.00  0.00    +0.028 C 
ATOM     23  C   UNL     1       0.932  -1.110  -1.311  0.00  0.00    +0.172 C 
ENDBRANCH  19  23
ENDBRANCH   1  19
BRANCH   4  24
ATOM     24  N   UNL     1      -1.101  -7.263  -0.435  0.00  0.00    -0.315 N 
BRANCH  24  25
ATOM     25  C   UNL     1       0.133  -8.049  -0.359  0.00  0.00    +0.179 C 
BRANCH  25  26
ATOM     26  C   UNL     1       0.516  -8.245   1.085  0.00  0.00    +0.122 A 
ATOM     27  C   UNL     1       0.134  -9.269   1.868  0.00  0.00    +0.046 A 
ATOM     28  C   UNL     1       0.719  -9.055   3.137  0.00  0.00    +0.041 A 
ATOM     29  C   UNL     1       1.424  -7.912   3.054  0.00  0.00    +0.195 A 
ATOM     30  O   UNL     1       1.303  -7.429   1.806  0.00  0.00    -0.466 OA
ENDBRANCH  25  26
ENDBRANCH  24  25
BRANCH  24  31
ATOM     31  C   UNL     1      -2.401  -7.928  -0.318  0.00  0.00    +0.148 C 
BRANCH  31  32
ATOM     32  C   UNL     1      -2.920  -8.260  -1.694  0.00  0.00    +0.010 A 
ATOM     33  C   UNL     1      -3.780  -7.560  -2.473  0.00  0.00    -0.039 A 
ATOM     34  C   UNL     1      -4.119  -8.063  -3.716  0.00  0.00    +0.011 A 
ATOM     35  C   UNL     1      -3.583  -9.241  -4.117  0.00  0.00    +0.046 A 
ATOM     36  S   UNL     1      -2.557  -9.674  -2.721  0.00  0.00    -0.100 S 
ATOM     37  C   UNL     1      -4.357  -6.253  -1.993  0.00  0.00    +0.044 C 
ENDBRANCH  31  32
ENDBRANCH  24  31
ENDBRANCH   4  24
TORSDOF 9
