REMARK  Name = ZINC24272743
REMARK  11 active torsions:
REMARK  status: ('A' for Active; 'I' for Inactive)
REMARK    1  A    between atoms: C_1  and  C_2
REMARK    2  A    between atoms: C_6  and  C_36
REMARK    3  A    between atoms: C_7  and  O_8
REMARK    4  A    between atoms: O_8  and  C_9
REMARK    5  A    between atoms: C_9  and  C_10
REMARK    6  A    between atoms: C_13  and  S_16
REMARK    7  A    between atoms: N_14  and  N_15
REMARK    8  A    between atoms: S_16  and  C_17
REMARK    9  A    between atoms: C_17  and  C_19
REMARK   10  A    between atoms: C_17  and  C_20
REMARK   11  A    between atoms: N_25  and  C_26
REMARK                            x       y       z     vdW  Elec       q    Type
REMARK                         _______ _______ _______ _____ _____    ______ ____
ROOT
ATOM      1  C   UNL     1       1.789  -0.294  -0.016  0.00  0.00    +0.137 C 
ATOM      2  C   UNL     1       2.378   0.233  -1.326  0.00  0.00    +0.029 C 
ENDROOT
BRANCH   1   3
ATOM      3  C   UNL     1       2.059  -1.772   0.098  0.00  0.00    +0.234 C 
ATOM      4  O   UNL     1       1.221  -2.571  -0.264  0.00  0.00    -0.274 OA
ATOM      5  N   UNL     1       3.231  -2.207   0.601  0.00  0.00    -0.239 N 
ATOM      6  C   UNL     1       3.473  -3.529   0.702  0.00  0.00    +0.306 C 
ATOM      7  O   UNL     1       2.633  -4.329   0.340  0.00  0.00    -0.252 OA
ATOM      8  N   UNL     1       4.645  -3.963   1.205  0.00  0.00    -0.294 N 
ATOM      9  H   UNL     1       3.991  -1.482   0.928  0.00  0.00    +0.159 HD
ATOM     10  H   UNL     1       5.405  -3.238   1.533  0.00  0.00    +0.151 HD
BRANCH   8  11
ATOM     11  C   UNL     1       4.908  -5.400   1.315  0.00  0.00    +0.037 C 
ATOM     12  C   UNL     1       3.856  -6.042   2.222  0.00  0.00    +0.029 C 
ATOM     13  C   UNL     1       4.130  -7.543   2.337  0.00  0.00    -0.008 C 
ATOM     14  C   UNL     1       5.522  -7.763   2.935  0.00  0.00    +0.007 C 
ATOM     15  C   UNL     1       6.574  -7.120   2.028  0.00  0.00    -0.008 C 
ATOM     16  C   UNL     1       6.299  -5.620   1.913  0.00  0.00    +0.029 C 
ATOM     17  C   UNL     1       6.508  -7.759   0.639  0.00  0.00    +0.007 C 
ATOM     18  C   UNL     1       5.117  -7.539   0.042  0.00  0.00    -0.008 C 
ATOM     19  C   UNL     1       4.065  -8.181   0.948  0.00  0.00    +0.007 C 
ATOM     20  C   UNL     1       4.843  -6.038  -0.073  0.00  0.00    +0.029 C 
ENDBRANCH   8  11
ENDBRANCH   1   3
BRANCH   1  21
ATOM     21  S   UNL     1       0.002  -0.004   0.002  0.00  0.00    -0.072 S 
BRANCH  21  25
ATOM     22  C   UNL     1      -0.663   3.840   0.029  0.00  0.00    +0.189 A 
ATOM     23  N   UNL     1       0.639   3.779   0.016  0.00  0.00    -0.128 NA
ATOM     24  N   UNL     1       1.023   2.553   0.006  0.00  0.00    -0.121 NA
ATOM     25  C   UNL     1      -0.022   1.758   0.012  0.00  0.00    +0.209 A 
ATOM     26  N   UNL     1      -1.131   2.555   0.021  0.00  0.00    -0.225 N 
BRANCH  26  27
ATOM     27  N   UNL     1      -2.436   2.152   0.023  0.00  0.00    -0.295 N 
ATOM     28  H   UNL     1      -2.680   1.079   0.016  0.00  0.00    +0.163 HD
ATOM     29  H   UNL     1      -3.242   2.900   0.033  0.00  0.00    +0.163 HD
ENDBRANCH  26  27
BRANCH  22  30
ATOM     30  C   UNL     1      -1.498   5.094   0.044  0.00  0.00    +0.306 C 
BRANCH  30  31
ATOM     31  O   UNL     1      -1.775   5.498  -1.299  0.00  0.00    -0.484 OA
BRANCH  31  38
ATOM     32  C   UNL     1      -4.578   5.182  -1.457  0.00  0.00    +0.047 C 
ATOM     33  C   UNL     1      -3.905   6.528  -1.548  0.00  0.00    -0.009 A 
ATOM     34  C   UNL     1      -4.664   7.670  -1.711  0.00  0.00    +0.007 A 
ATOM     35  C   UNL     1      -4.047   8.905  -1.799  0.00  0.00    +0.001 A 
ATOM     36  C   UNL     1      -2.670   8.999  -1.721  0.00  0.00    +0.007 A 
ATOM     37  C   UNL     1      -1.907   7.860  -1.554  0.00  0.00    -0.009 A 
ATOM     38  C   UNL     1      -2.523   6.620  -1.464  0.00  0.00    +0.127 A 
ATOM     39  C   UNL     1      -0.406   7.963  -1.468  0.00  0.00    +0.047 C 
ENDBRANCH  31  38
ENDBRANCH  30  31
ENDBRANCH  22  30
ENDBRANCH  21  25
ENDBRANCH   1  21
TORSDOF 8
