REMARK  Name = ZINC12979547
REMARK  7 active torsions:
REMARK  status: ('A' for Active; 'I' for Inactive)
REMARK    1  A    between atoms: C_1  and  C_2
REMARK    2  A    between atoms: C_5  and  C_8
REMARK    3  A    between atoms: C_8  and  C_10
REMARK    4  A    between atoms: C_8  and  N_18
REMARK    5  A    between atoms: C_14  and  O_17
REMARK    6  A    between atoms: C_15  and  O_16
REMARK    7  A    between atoms: C_27  and  C_30
REMARK                            x       y       z     vdW  Elec       q    Type
REMARK                         _______ _______ _______ _____ _____    ______ ____
ROOT
ATOM      1  C   UNL     1      -5.454   3.495   7.810  0.00  0.00    +0.121 C 
ENDROOT
BRANCH   1   2
ATOM      2  N   UNL     1      -4.504   3.226   6.722  0.00  0.00    -0.288 NA
ATOM      3  C   UNL     1      -4.825   4.025   5.532  0.00  0.00    +0.104 C 
ATOM      4  C   UNL     1      -3.863   3.658   4.399  0.00  0.00    +0.122 C 
ATOM      5  N   UNL     1      -2.481   3.900   4.836  0.00  0.00    -0.313 N 
ATOM      6  C   UNL     1      -2.160   3.100   6.026  0.00  0.00    +0.122 C 
ATOM      7  C   UNL     1      -3.122   3.468   7.159  0.00  0.00    +0.104 C 
ATOM      8  C   UNL     1      -1.582   3.645   3.807  0.00  0.00    +0.121 A 
ATOM      9  C   UNL     1      -0.218   3.817   4.025  0.00  0.00    +0.044 A 
ATOM     10  C   UNL     1       0.665   3.559   2.992  0.00  0.00    +0.017 A 
ATOM     11  C   UNL     1       0.154   3.137   1.772  0.00  0.00    +0.073 A 
ATOM     12  C   UNL     1      -1.211   2.992   1.625  0.00  0.00    +0.125 A 
ATOM     13  N   UNL     1      -2.030   3.240   2.629  0.00  0.00    -0.240 NA
BRANCH  11  14
ATOM     14  C   UNL     1       1.079   2.845   0.619  0.00  0.00    +0.419 C 
ATOM     15  F   UNL     1       1.462   1.500   0.657  0.00  0.00    -0.166 F 
ATOM     16  F   UNL     1       2.216   3.655   0.716  0.00  0.00    -0.166 F 
ATOM     17  F   UNL     1       0.420   3.109  -0.586  0.00  0.00    -0.166 F 
ENDBRANCH  11  14
ENDBRANCH   1   2
BRANCH   1  22
ATOM     18  C   UNL     1     -10.819   2.312   6.016  0.00  0.00    +0.044 C 
ATOM     19  C   UNL     1      -9.419   2.620   6.484  0.00  0.00    -0.050 A 
ATOM     20  C   UNL     1      -9.183   3.732   7.271  0.00  0.00    +0.004 A 
ATOM     21  C   UNL     1      -7.900   4.015   7.701  0.00  0.00    +0.006 A 
ATOM     22  C   UNL     1      -6.853   3.187   7.342  0.00  0.00    -0.026 A 
ATOM     23  C   UNL     1      -7.088   2.079   6.550  0.00  0.00    +0.006 A 
ATOM     24  C   UNL     1      -8.372   1.793   6.125  0.00  0.00    +0.004 A 
ENDBRANCH   1  22
BRANCH   1  25
ATOM     25  C   UNL     1      -5.119   2.629   8.996  0.00  0.00    +0.019 A 
ATOM     26  C   UNL     1      -4.494   1.410   8.808  0.00  0.00    +0.009 A 
ATOM     27  C   UNL     1      -4.180   0.616   9.895  0.00  0.00    +0.004 A 
ATOM     28  C   UNL     1      -4.499   1.032  11.174  0.00  0.00    +0.049 A 
ATOM     29  C   UNL     1      -5.129   2.250  11.370  0.00  0.00    +0.159 A 
ATOM     30  C   UNL     1      -5.441   3.052  10.275  0.00  0.00    +0.163 A 
BRANCH  30  31
ATOM     31  O   UNL     1      -6.059   4.249  10.462  0.00  0.00    -0.503 OA
ATOM     32  H   UNL     1      -6.314   4.583  11.478  0.00  0.00    +0.292 HD
ENDBRANCH  30  31
BRANCH  29  33
ATOM     33  O   UNL     1      -5.443   2.661  12.627  0.00  0.00    -0.503 OA
ATOM     34  H   UNL     1      -5.944   3.628  12.781  0.00  0.00    +0.292 HD
ENDBRANCH  29  33
ENDBRANCH   1  25
TORSDOF 6
