REMARK  Name = ZINC25108018
REMARK  8 active torsions:
REMARK  status: ('A' for Active; 'I' for Inactive)
REMARK    1  A    between atoms: C_4  and  C_7
REMARK    2  A    between atoms: C_7  and  C_8
REMARK    3  A    between atoms: C_8  and  C_10
REMARK    4  A    between atoms: C_8  and  N_25
REMARK    5  A    between atoms: N_12  and  C_13
REMARK    6  A    between atoms: C_13  and  C_14
REMARK    7  A    between atoms: C_14  and  C_15
REMARK    8  A    between atoms: C_30  and  O_38
REMARK                            x       y       z     vdW  Elec       q    Type
REMARK                         _______ _______ _______ _____ _____    ______ ____
ROOT
ATOM      1  C   UNL     1      -4.668  -3.239  -2.568  0.00  0.00    +0.165 C 
ENDROOT
BRANCH   1   2
ATOM      2  N   UNL     1      -5.143  -3.432  -3.940  0.00  0.00    -0.287 N 
ATOM      3  C   UNL     1      -5.836  -4.542  -4.264  0.00  0.00    +0.308 C 
ATOM      4  O   UNL     1      -6.067  -5.383  -3.417  0.00  0.00    -0.252 OA
ATOM      5  N   UNL     1      -6.274  -4.719  -5.526  0.00  0.00    -0.245 N 
ATOM      6  C   UNL     1      -6.018  -3.718  -6.575  0.00  0.00    +0.210 C 
ATOM      7  C   UNL     1      -7.244  -3.578  -7.432  0.00  0.00    +0.206 C 
ATOM      8  N   UNL     1      -8.087  -4.550  -7.579  0.00  0.00    -0.214 NA
ATOM      9  C   UNL     1      -7.913  -5.756  -6.954  0.00  0.00    +0.089 A 
ATOM     10  C   UNL     1      -6.997  -5.863  -5.896  0.00  0.00    +0.064 A 
ATOM     11  C   UNL     1      -6.822  -7.068  -5.246  0.00  0.00    +0.026 A 
ATOM     12  C   UNL     1      -7.551  -8.175  -5.645  0.00  0.00    +0.002 A 
ATOM     13  C   UNL     1      -8.452  -8.079  -6.690  0.00  0.00    +0.002 A 
ATOM     14  C   UNL     1      -8.638  -6.877  -7.347  0.00  0.00    +0.030 A 
ATOM     15  H   UNL     1      -4.935  -2.671  -4.706  0.00  0.00    +0.151 HD
BRANCH   7  16
ATOM     16  O   UNL     1      -7.475  -2.407  -8.062  0.00  0.00    -0.494 OA
ATOM     17  H   UNL     1      -8.368  -2.288  -8.693  0.00  0.00    +0.293 HD
ENDBRANCH   7  16
ENDBRANCH   1   2
BRANCH   1  18
ATOM     18  C   UNL     1      -3.469  -2.326  -2.575  0.00  0.00    +0.234 C 
ATOM     19  O   UNL     1      -3.052  -1.881  -3.623  0.00  0.00    -0.274 OA
ATOM     20  N   UNL     1      -2.859  -2.005  -1.417  0.00  0.00    -0.313 N 
ATOM     21  H   UNL     1      -3.237  -2.410  -0.466  0.00  0.00    +0.149 HD
BRANCH  20  22
ATOM     22  C   UNL     1      -1.694  -1.118  -1.424  0.00  0.00    +0.109 C 
BRANCH  22  23
ATOM     23  C   UNL     1      -1.197  -0.917   0.009  0.00  0.00    +0.056 C 
BRANCH  23  24
ATOM     24  C   UNL     1       0.002  -0.004   0.002  0.00  0.00    -0.021 A 
ATOM     25  C   UNL     1       1.291  -0.379  -0.012  0.00  0.00    +0.087 A 
ATOM     26  N   UNL     1       2.098   0.726  -0.014  0.00  0.00    -0.360 N 
ATOM     27  H   UNL     1       3.192   0.608  -0.025  0.00  0.00    +0.165 HD
ATOM     28  C   UNL     1       1.329   1.868  -0.001  0.00  0.00    +0.047 A 
ATOM     29  C   UNL     1      -0.018   1.461   0.010  0.00  0.00    +0.003 A 
ATOM     30  C   UNL     1      -1.034   2.417   0.030  0.00  0.00    +0.010 A 
ATOM     31  C   UNL     1      -0.716   3.746   0.030  0.00  0.00    +0.001 A 
ATOM     32  C   UNL     1       0.611   4.153   0.019  0.00  0.00    +0.002 A 
ATOM     33  C   UNL     1       1.631   3.225   0.004  0.00  0.00    +0.026 A 
ENDBRANCH  23  24
ENDBRANCH  22  23
ENDBRANCH  20  22
ENDBRANCH   1  18
BRANCH   1  34
ATOM     34  C   UNL     1      -5.781  -2.612  -1.726  0.00  0.00    +0.067 C 
BRANCH  34  38
ATOM     35  C   UNL     1      -9.046  -5.349  -1.416  0.00  0.00    +0.000 A 
ATOM     36  C   UNL     1      -8.032  -5.374  -0.477  0.00  0.00    +0.000 A 
ATOM     37  C   UNL     1      -6.976  -4.488  -0.577  0.00  0.00    +0.004 A 
ATOM     38  C   UNL     1      -6.933  -3.578  -1.617  0.00  0.00    -0.045 A 
ATOM     39  C   UNL     1      -7.949  -3.550  -2.553  0.00  0.00    +0.004 A 
ATOM     40  C   UNL     1      -9.003  -4.439  -2.456  0.00  0.00    +0.000 A 
ENDBRANCH  34  38
ENDBRANCH   1  34
TORSDOF 8
