REMARK  Name = ZINC06322111
REMARK  15 active torsions:
REMARK  status: ('A' for Active; 'I' for Inactive)
REMARK    1  A    between atoms: C_1  and  C_2
REMARK    2  A    between atoms: C_5  and  C_40
REMARK    3  A    between atoms: C_9  and  C_14
REMARK    4  A    between atoms: C_14  and  C_16
REMARK    5  A    between atoms: C_14  and  N_71
REMARK    6  A    between atoms: N_20  and  C_21
REMARK    7  A    between atoms: C_21  and  C_22
REMARK    8  A    between atoms: C_22  and  O_23
REMARK    9  A    between atoms: O_23  and  C_24
REMARK   10  A    between atoms: C_25  and  C_26
REMARK   11  A    between atoms: C_25  and  N_71
REMARK   12  A    between atoms: C_29  and  O_32
REMARK   13  A    between atoms: O_32  and  C_33
REMARK   14  A    between atoms: C_34  and  C_35
REMARK   15  A    between atoms: C_34  and  N_71
REMARK                            x       y       z     vdW  Elec       q    Type
REMARK                         _______ _______ _______ _____ _____    ______ ____
ROOT
ATOM      1  C   UNL     1       4.681  -0.724   0.001  0.00  0.00    +0.040 C 
ENDROOT
BRANCH   1  10
ATOM      2  C   UNL     1       8.377  -0.160  -3.623  0.00  0.00    +0.044 C 
ATOM      3  C   UNL     1       8.249  -1.635  -3.340  0.00  0.00    -0.041 A 
ATOM      4  C   UNL     1       9.039  -2.531  -4.003  0.00  0.00    +0.004 A 
ATOM      5  C   UNL     1       8.928  -3.892  -3.750  0.00  0.00    +0.005 A 
ATOM      6  C   UNL     1       8.021  -4.364  -2.826  0.00  0.00    -0.026 A 
ATOM      7  C   UNL     1       7.207  -3.470  -2.138  0.00  0.00    +0.052 A 
ATOM      8  C   UNL     1       7.323  -2.091  -2.397  0.00  0.00    +0.002 A 
ATOM      9  C   UNL     1       6.458  -1.158  -1.672  0.00  0.00    +0.018 A 
ATOM     10  C   UNL     1       5.582  -1.658  -0.766  0.00  0.00    +0.011 A 
ATOM     11  C   UNL     1       5.506  -3.049  -0.543  0.00  0.00    +0.251 A 
ATOM     12  O   UNL     1       4.708  -3.478   0.272  0.00  0.00    -0.268 OA
ATOM     13  N   UNL     1       6.292  -3.914  -1.208  0.00  0.00    -0.322 N 
ATOM     14  H   UNL     1       6.213  -4.865  -1.031  0.00  0.00    +0.169 HD
ATOM     15  C   UNL     1       7.911  -5.843  -2.562  0.00  0.00    +0.046 C 
ENDBRANCH   1  10
BRANCH   1  16
ATOM     16  C   UNL     1       3.247  -0.982  -0.383  0.00  0.00    +0.143 A 
ATOM     17  N   UNL     1       2.437  -1.859   0.158  0.00  0.00    -0.115 NA
ATOM     18  N   UNL     1       1.301  -1.776  -0.444  0.00  0.00    -0.023 NA
ATOM     19  N   UNL     1       1.365  -0.868  -1.355  0.00  0.00    -0.044 NA
ATOM     20  N   UNL     1       2.549  -0.355  -1.349  0.00  0.00    -0.228 N 
BRANCH  20  21
ATOM     21  C   UNL     1       3.041   0.709  -2.227  0.00  0.00    +0.175 C 
BRANCH  21  22
ATOM     22  C   UNL     1       2.885   2.061  -1.528  0.00  0.00    +0.183 C 
BRANCH  22  23
ATOM     23  O   UNL     1       3.415   3.092  -2.363  0.00  0.00    -0.381 OA
ATOM     24  C   UNL     1       3.318   4.402  -1.800  0.00  0.00    +0.194 C 
ENDBRANCH  22  23
ENDBRANCH  21  22
ENDBRANCH  20  21
ENDBRANCH   1  16
BRANCH   1  25
ATOM     25  N   UNL     1       4.839  -0.979   1.448  0.00  0.00    +0.397 N 
ATOM     26  H   UNL     1       4.397  -1.877   1.679  0.00  0.00    -0.079 HD
BRANCH  25  27
ATOM     27  C   UNL     1       4.181   0.093   2.225  0.00  0.00    -0.041 C 
BRANCH  27  28
ATOM     28  C   UNL     1       2.703  -0.194   2.286  0.00  0.00    -0.064 A 
ATOM     29  C   UNL     1       1.796   0.769   1.883  0.00  0.00    +0.005 A 
ATOM     30  C   UNL     1       0.440   0.506   1.933  0.00  0.00    +0.046 A 
ATOM     31  C   UNL     1      -0.011  -0.721   2.398  0.00  0.00    +0.120 A 
ATOM     32  C   UNL     1       0.901  -1.683   2.807  0.00  0.00    +0.046 A 
ATOM     33  C   UNL     1       2.256  -1.417   2.750  0.00  0.00    +0.005 A 
BRANCH  31  34
ATOM     34  O   UNL     1      -1.344  -0.979   2.453  0.00  0.00    -0.495 OA
ATOM     35  C   UNL     1      -2.224   0.058   2.016  0.00  0.00    +0.277 C 
ENDBRANCH  31  34
ENDBRANCH  27  28
ENDBRANCH  25  27
BRANCH  25  36
ATOM     36  C   UNL     1       6.274  -1.047   1.796  0.00  0.00    -0.001 C 
BRANCH  36  37
ATOM     37  C   UNL     1       6.411  -1.650   3.171  0.00  0.00    +0.089 A 
ATOM     38  C   UNL     1       6.596  -2.955   3.442  0.00  0.00    +0.042 A 
ATOM     39  C   UNL     1       6.670  -3.074   4.849  0.00  0.00    +0.041 A 
ATOM     40  C   UNL     1       6.525  -1.835   5.353  0.00  0.00    +0.195 A 
ATOM     41  O   UNL     1       6.374  -0.976   4.331  0.00  0.00    -0.470 OA
ENDBRANCH  36  37
ENDBRANCH  25  36
ENDBRANCH   1  25
TORSDOF 11
