REMARK  Name = ZINC43218801
REMARK  10 active torsions:
REMARK  status: ('A' for Active; 'I' for Inactive)
REMARK    1  A    between atoms: C_1  and  C_2
REMARK    2  A    between atoms: C_2  and  C_3
REMARK    3  A    between atoms: C_3  and  O_4
REMARK    4  A    between atoms: O_4  and  C_5
REMARK    5  A    between atoms: C_8  and  C_11
REMARK    6  A    between atoms: N_19  and  C_22
REMARK    7  A    between atoms: C_25  and  C_28
REMARK    8  A    between atoms: C_28  and  C_29
REMARK    9  A    between atoms: C_30  and  C_32
REMARK   10  A    between atoms: C_30  and  C_38
REMARK                            x       y       z     vdW  Elec       q    Type
REMARK                         _______ _______ _______ _____ _____    ______ ____
ROOT
ATOM      1  C   UNL     1      -6.397  -4.588   0.038  0.00  0.00    -0.026 C 
ATOM      2  C   UNL     1      -6.665  -5.217   1.401  0.00  0.00    +0.078 C 
ATOM      3  C   UNL     1      -5.672  -6.431   1.255  0.00  0.00    +0.090 C 
ATOM      4  C   UNL     1      -5.523  -6.863   2.624  0.00  0.00    +0.229 C 
ATOM      5  O   UNL     1      -5.359  -7.994   3.028  0.00  0.00    -0.275 OA
ATOM      6  N   UNL     1      -5.608  -5.713   3.370  0.00  0.00    -0.210 N 
ATOM      7  C   UNL     1      -6.081  -4.636   2.649  0.00  0.00    +0.229 C 
ATOM      8  O   UNL     1      -6.031  -3.463   2.953  0.00  0.00    -0.275 OA
ATOM      9  C   UNL     1      -5.992  -6.978  -0.069  0.00  0.00    +0.074 C 
ATOM     10  N   UNL     1      -6.381  -5.767  -0.888  0.00  0.00    +0.398 N 
ATOM     11  H   UNL     1      -7.300  -5.908  -1.279  0.00  0.00    -0.083 HD
ATOM     12  H   UNL     1      -5.713  -5.612  -1.628  0.00  0.00    -0.083 HD
ENDROOT
BRANCH   1  16
ATOM     13  C   UNL     1      -2.616  -2.596   0.012  0.00  0.00    +0.121 A 
ATOM     14  C   UNL     1      -2.699  -3.934  -0.344  0.00  0.00    +0.046 A 
ATOM     15  C   UNL     1      -3.922  -4.576  -0.334  0.00  0.00    +0.005 A 
ATOM     16  C   UNL     1      -5.064  -3.885   0.029  0.00  0.00    -0.060 A 
ATOM     17  C   UNL     1      -4.984  -2.551   0.384  0.00  0.00    +0.005 A 
ATOM     18  C   UNL     1      -3.762  -1.907   0.382  0.00  0.00    +0.046 A 
BRANCH  13  19
ATOM     19  O   UNL     1      -1.414  -1.962   0.004  0.00  0.00    -0.492 OA
BRANCH  19  20
ATOM     20  C   UNL     1      -0.277  -2.734  -0.387  0.00  0.00    +0.229 C 
BRANCH  20  22
ATOM     21  C   UNL     1       2.194  -2.684  -0.754  0.00  0.00    +0.007 C 
ATOM     22  C   UNL     1       0.977  -1.858  -0.335  0.00  0.00    +0.038 C 
ENDBRANCH  20  22
ENDBRANCH  19  20
ENDBRANCH  13  19
ENDBRANCH   1  16
BRANCH   6  23
ATOM     23  C   UNL     1      -5.263  -5.640   4.726  0.00  0.00    +0.044 A 
ATOM     24  C   UNL     1      -4.800  -6.770   5.388  0.00  0.00    +0.024 A 
ATOM     25  C   UNL     1      -4.461  -6.695   6.725  0.00  0.00    +0.005 A 
ATOM     26  C   UNL     1      -4.582  -5.497   7.404  0.00  0.00    -0.048 A 
ATOM     27  C   UNL     1      -5.042  -4.370   6.748  0.00  0.00    +0.005 A 
ATOM     28  C   UNL     1      -5.377  -4.437   5.410  0.00  0.00    +0.024 A 
BRANCH  26  29
ATOM     29  C   UNL     1      -4.211  -5.419   8.863  0.00  0.00    +0.032 C 
ATOM     30  C   UNL     1      -2.732  -5.052   8.995  0.00  0.00    +0.009 C 
ENDBRANCH  26  29
ENDBRANCH   6  23
BRANCH   9  31
ATOM     31  C   UNL     1      -4.778  -7.637  -0.673  0.00  0.00    -0.047 A 
ATOM     32  C   UNL     1      -3.829  -8.220   0.145  0.00  0.00    +0.003 A 
ATOM     33  C   UNL     1      -2.716  -8.824  -0.408  0.00  0.00    +0.000 A 
ATOM     34  C   UNL     1      -2.552  -8.845  -1.781  0.00  0.00    +0.000 A 
ATOM     35  C   UNL     1      -3.501  -8.263  -2.599  0.00  0.00    +0.000 A 
ATOM     36  C   UNL     1      -4.617  -7.662  -2.046  0.00  0.00    +0.003 A 
ENDBRANCH   9  31
BRANCH   9  37
ATOM     37  C   UNL     1      -7.130  -7.961   0.029  0.00  0.00    +0.350 C 
ATOM     38  O   UNL     1      -8.162  -7.762  -0.588  0.00  0.00    -0.248 OA
ATOM     39  O   UNL     1      -7.018  -8.955   0.726  0.00  0.00    -0.248 OA
ENDBRANCH   9  37
TORSDOF 8
