REMARK  Name = ZINC40758485
REMARK  4 active torsions:
REMARK  status: ('A' for Active; 'I' for Inactive)
REMARK    1  A    between atoms: C_9  and  N_11
REMARK    2  A    between atoms: C_13  and  N_26
REMARK    3  A    between atoms: C_14  and  N_18
REMARK    4  A    between atoms: N_18  and  C_19
REMARK                            x       y       z     vdW  Elec       q    Type
REMARK                         _______ _______ _______ _____ _____    ______ ____
ROOT
ATOM      1  N   UNL     1       1.200  -2.089  -0.021  0.00  0.00    -0.296 N 
ATOM      2  C   UNL     1       0.004  -2.789   0.091  0.00  0.00    +0.149 A 
ATOM      3  C   UNL     1       0.005  -4.181   0.196  0.00  0.00    +0.105 A 
ATOM      4  C   UNL     1      -1.224  -4.835   0.306  0.00  0.00    +0.145 A 
ATOM      5  N   UNL     1      -2.341  -4.111   0.307  0.00  0.00    -0.219 NA
ATOM      6  C   UNL     1      -2.297  -2.798   0.207  0.00  0.00    +0.225 A 
ATOM      7  N   UNL     1      -1.159  -2.142   0.107  0.00  0.00    -0.219 NA
ATOM      8  H   UNL     1       2.046  -2.556   0.067  0.00  0.00    +0.154 HD
ENDROOT
BRANCH   1  17
ATOM      9  C   UNL     1       0.093   1.233  -1.164  0.00  0.00    +0.003 A 
ATOM     10  C   UNL     1       1.113   2.038  -0.758  0.00  0.00    +0.010 A 
ATOM     11  C   UNL     1       2.214   1.488  -0.082  0.00  0.00    +0.002 A 
ATOM     12  C   UNL     1       3.284   2.294   0.352  0.00  0.00    +0.011 A 
ATOM     13  C   UNL     1       4.322   1.691   1.004  0.00  0.00    +0.020 A 
ATOM     14  C   UNL     1       4.300   0.315   1.222  0.00  0.00    +0.111 A 
ATOM     15  N   UNL     1       3.302  -0.432   0.817  0.00  0.00    -0.253 NA
ATOM     16  C   UNL     1       2.256   0.095   0.174  0.00  0.00    +0.092 A 
ATOM     17  C   UNL     1       1.184  -0.715  -0.260  0.00  0.00    +0.059 A 
ATOM     18  C   UNL     1       0.121  -0.137  -0.920  0.00  0.00    +0.025 A 
ENDBRANCH   1  17
BRANCH   3  19
ATOM     19  N   UNL     1       1.208  -4.905   0.189  0.00  0.00    -0.353 N 
ATOM     20  H   UNL     1       2.054  -4.437   0.112  0.00  0.00    +0.143 HD
ATOM     21  H   UNL     1       1.193  -5.872   0.262  0.00  0.00    +0.143 HD
ENDBRANCH   3  19
BRANCH   4  22
ATOM     22  N   UNL     1      -1.280  -6.219   0.412  0.00  0.00    -0.325 N 
ATOM     23  H   UNL     1      -0.462  -6.739   0.410  0.00  0.00    +0.148 HD
BRANCH  22  24
ATOM     24  C   UNL     1      -2.576  -6.893   0.527  0.00  0.00    +0.072 C 
ATOM     25  C   UNL     1      -3.038  -6.838   1.998  0.00  0.00    +0.022 C 
ATOM     26  C   UNL     1      -4.528  -7.048   2.038  0.00  0.00    +0.002 C 
ATOM     27  C   UNL     1      -4.910  -8.522   2.272  0.00  0.00    +0.000 C 
ATOM     28  C   UNL     1      -4.035  -9.501   1.465  0.00  0.00    +0.000 C 
ATOM     29  C   UNL     1      -3.781  -9.023   0.061  0.00  0.00    +0.002 C 
ATOM     30  C   UNL     1      -2.443  -8.257   0.038  0.00  0.00    +0.022 C 
ENDBRANCH  22  24
ENDBRANCH   4  22
TORSDOF 4
