REMARK  Name = ZINC17796390
REMARK  8 active torsions:
REMARK  status: ('A' for Active; 'I' for Inactive)
REMARK    1  A    between atoms: C_1  and  C_2
REMARK    2  A    between atoms: C_2  and  C_4
REMARK    3  A    between atoms: C_2  and  O_27
REMARK    4  A    between atoms: N_6  and  N_7
REMARK    5  A    between atoms: C_8  and  C_10
REMARK    6  A    between atoms: C_10  and  C_11
REMARK    7  A    between atoms: C_11  and  C_12
REMARK    8  A    between atoms: O_27  and  C_28
REMARK                            x       y       z     vdW  Elec       q    Type
REMARK                         _______ _______ _______ _____ _____    ______ ____
ROOT
ATOM      1  N   UNL     1      -3.059  10.514  -5.308  0.00  0.00    -0.234 N 
ATOM      2  C   UNL     1      -2.981   9.199  -5.592  0.00  0.00    +0.229 C 
ATOM      3  O   UNL     1      -2.952   8.829  -6.747  0.00  0.00    -0.274 OA
ATOM      4  H   UNL     1      -3.083  10.810  -4.385  0.00  0.00    +0.173 HD
ENDROOT
BRANCH   1   7
ATOM      5  C   UNL     1      -3.188  12.768  -6.062  0.00  0.00    +0.270 C 
ATOM      6  O   UNL     1      -3.216  13.139  -4.907  0.00  0.00    -0.270 OA
ATOM      7  N   UNL     1      -3.109  11.453  -6.346  0.00  0.00    -0.231 N 
ATOM      8  H   UNL     1      -3.086  11.157  -7.270  0.00  0.00    +0.173 HD
BRANCH   5  10
ATOM      9  C   UNL     1      -4.534  13.593  -7.974  0.00  0.00    +0.062 C 
ATOM     10  C   UNL     1      -3.240  13.779  -7.178  0.00  0.00    +0.257 C 
BRANCH  10  11
ATOM     11  O   UNL     1      -3.204  15.098  -6.630  0.00  0.00    -0.477 OA
BRANCH  11  12
ATOM     12  C   UNL     1      -2.730  16.088  -7.432  0.00  0.00    +0.157 A 
ATOM     13  C   UNL     1      -2.415  15.818  -8.756  0.00  0.00    +0.048 A 
ATOM     14  C   UNL     1      -1.935  16.825  -9.570  0.00  0.00    +0.004 A 
ATOM     15  C   UNL     1      -1.767  18.102  -9.068  0.00  0.00    +0.003 A 
ATOM     16  C   UNL     1      -2.080  18.376  -7.749  0.00  0.00    +0.042 A 
ATOM     17  C   UNL     1      -2.566  17.372  -6.930  0.00  0.00    +0.165 A 
ATOM     18  F   UNL     1      -2.876  17.640  -5.643  0.00  0.00    -0.202 F 
ENDBRANCH  11  12
ENDBRANCH  10  11
ENDBRANCH   5  10
ENDBRANCH   1   7
BRANCH   2  19
ATOM     19  C   UNL     1      -2.928   8.188  -4.476  0.00  0.00    +0.105 C 
BRANCH  19  20
ATOM     20  C   UNL     1      -2.841   6.780  -5.066  0.00  0.00    +0.083 C 
BRANCH  20  21
ATOM     21  C   UNL     1      -2.789   5.769  -3.950  0.00  0.00    +0.111 A 
ATOM     22  N   UNL     1      -2.709   4.455  -4.270  0.00  0.00    -0.310 N 
ATOM     23  H   UNL     1      -2.689   4.208  -5.208  0.00  0.00    +0.170 HD
ATOM     24  C   UNL     1      -2.656   3.470  -3.342  0.00  0.00    +0.260 A 
ATOM     25  O   UNL     1      -2.584   2.293  -3.650  0.00  0.00    -0.267 OA
ATOM     26  C   UNL     1      -2.691   3.901  -1.974  0.00  0.00    +0.075 A 
ATOM     27  C   UNL     1      -2.649   3.056  -0.794  0.00  0.00    -0.023 A 
ATOM     28  C   UNL     1      -2.694   3.684   0.405  0.00  0.00    -0.004 A 
ATOM     29  S   UNL     1      -2.792   5.415   0.019  0.00  0.00    -0.073 S 
ATOM     30  C   UNL     1      -2.774   5.292  -1.742  0.00  0.00    +0.116 A 
ATOM     31  N   UNL     1      -2.822   6.203  -2.709  0.00  0.00    -0.227 NA
ATOM     32  C   UNL     1      -2.668   3.053   1.762  0.00  0.00    +0.043 C 
ATOM     33  C   UNL     1      -2.957   1.553   1.604  0.00  0.00    +0.005 C 
ATOM     34  C   UNL     1      -2.075   1.000   0.481  0.00  0.00    +0.005 C 
ATOM     35  C   UNL     1      -2.559   1.534  -0.867  0.00  0.00    +0.037 C 
ENDBRANCH  20  21
ENDBRANCH  19  20
ENDBRANCH   2  19
TORSDOF 7
