REMARK  Name = ZINC24586494
REMARK  9 active torsions:
REMARK  status: ('A' for Active; 'I' for Inactive)
REMARK    1  A    between atoms: C_1  and  C_2
REMARK    2  A    between atoms: C_2  and  C_34
REMARK    3  A    between atoms: N_5  and  C_9
REMARK    4  A    between atoms: C_9  and  C_10
REMARK    5  A    between atoms: N_12  and  N_13
REMARK    6  A    between atoms: C_14  and  C_16
REMARK    7  A    between atoms: C_19  and  C_22
REMARK    8  A    between atoms: C_22  and  S_23
REMARK    9  A    between atoms: S_23  and  C_24
REMARK                            x       y       z     vdW  Elec       q    Type
REMARK                         _______ _______ _______ _____ _____    ______ ____
ROOT
ATOM      1  N   UNL     1      11.540   5.784   1.094  0.00  0.00    -0.230 N 
ATOM      2  C   UNL     1      10.870   5.649  -0.068  0.00  0.00    +0.260 C 
ATOM      3  O   UNL     1      11.455   5.782  -1.126  0.00  0.00    -0.269 OA
ATOM      4  H   UNL     1      11.011   5.664   2.050  0.00  0.00    +0.173 HD
ENDROOT
BRANCH   2   5
ATOM      5  C   UNL     1       9.424   5.341  -0.057  0.00  0.00    +0.038 A 
ATOM      6  C   UNL     1       8.728   5.201  -1.258  0.00  0.00    +0.013 A 
ATOM      7  C   UNL     1       7.378   4.913  -1.240  0.00  0.00    +0.005 A 
ATOM      8  C   UNL     1       6.716   4.763  -0.035  0.00  0.00    -0.037 A 
ATOM      9  C   UNL     1       7.399   4.906   1.160  0.00  0.00    +0.005 A 
ATOM     10  C   UNL     1       8.750   5.188   1.156  0.00  0.00    +0.013 A 
BRANCH   8  11
ATOM     11  C   UNL     1       5.242   4.449  -0.023  0.00  0.00    +0.112 C 
BRANCH  11  12
ATOM     12  S   UNL     1       5.008   2.654  -0.030  0.00  0.00    -0.083 S 
BRANCH  12  13
ATOM     13  C   UNL     1       3.248   2.575  -0.015  0.00  0.00    +0.168 A 
ATOM     14  N   UNL     1       2.514   1.422  -0.014  0.00  0.00    -0.333 N 
ATOM     15  H   UNL     1       3.022   0.446  -0.024  0.00  0.00    +0.168 HD
ATOM     16  C   UNL     1       1.178   1.787   0.000  0.00  0.00    +0.067 A 
ATOM     17  C   UNL     1      -0.013   1.076   0.008  0.00  0.00    +0.028 A 
ATOM     18  C   UNL     1      -1.216   1.751   0.017  0.00  0.00    +0.002 A 
ATOM     19  C   UNL     1      -1.243   3.138   0.030  0.00  0.00    +0.002 A 
ATOM     20  C   UNL     1      -0.071   3.860   0.023  0.00  0.00    +0.030 A 
ATOM     21  C   UNL     1       1.156   3.191   0.008  0.00  0.00    +0.090 A 
ATOM     22  N   UNL     1       2.448   3.612  -0.001  0.00  0.00    -0.222 NA
ENDBRANCH  12  13
ENDBRANCH  11  12
ENDBRANCH   8  11
ENDBRANCH   2   5
BRANCH   1  25
ATOM     23  C   UNL     1      13.580   6.211   2.244  0.00  0.00    +0.247 C 
ATOM     24  O   UNL     1      12.996   6.078   3.299  0.00  0.00    -0.273 OA
ATOM     25  N   UNL     1      12.910   6.076   1.083  0.00  0.00    -0.233 N 
ATOM     26  H   UNL     1      13.439   6.196   0.126  0.00  0.00    +0.173 HD
BRANCH  23  27
ATOM     27  C   UNL     1      15.053   6.525   2.232  0.00  0.00    +0.215 C 
BRANCH  27  32
ATOM     28  C   UNL     1      17.910   5.967   5.921  0.00  0.00    +0.042 C 
ATOM     29  C   UNL     1      16.412   6.141   5.668  0.00  0.00    +0.113 C 
ATOM     30  C   UNL     1      16.030   5.578   4.313  0.00  0.00    +0.247 C 
ATOM     31  O   UNL     1      16.139   4.430   3.941  0.00  0.00    -0.273 OA
ATOM     32  N   UNL     1      15.544   6.620   3.610  0.00  0.00    -0.215 N 
ATOM     33  C   UNL     1      15.570   7.752   4.322  0.00  0.00    +0.310 C 
ATOM     34  O   UNL     1      15.187   8.825   3.900  0.00  0.00    -0.252 OA
ATOM     35  N   UNL     1      16.064   7.569   5.560  0.00  0.00    -0.285 N 
ATOM     36  H   UNL     1      16.232   8.242   6.414  0.00  0.00    +0.151 HD
BRANCH  29  37
ATOM     37  C   UNL     1      15.599   5.471   6.778  0.00  0.00    +0.021 C 
ATOM     38  C   UNL     1      14.563   6.327   7.510  0.00  0.00    +0.006 C 
ATOM     39  C   UNL     1      15.860   5.924   8.216  0.00  0.00    +0.006 C 
ENDBRANCH  29  37
ENDBRANCH  27  32
ENDBRANCH  23  27
ENDBRANCH   1  25
TORSDOF 8
