REMARK  Name = ZINC35853277
REMARK  12 active torsions:
REMARK  status: ('A' for Active; 'I' for Inactive)
REMARK    1  A    between atoms: C_1  and  O_2
REMARK    2  A    between atoms: O_2  and  C_3
REMARK    3  A    between atoms: C_6  and  C_13
REMARK    4  A    between atoms: C_7  and  O_11
REMARK    5  A    between atoms: C_8  and  O_9
REMARK    6  A    between atoms: O_9  and  C_10
REMARK    7  A    between atoms: O_11  and  C_12
REMARK    8  A    between atoms: C_13  and  N_14
REMARK    9  A    between atoms: C_17  and  N_20
REMARK   10  A    between atoms: N_20  and  C_21
REMARK   11  A    between atoms: N_20  and  S_28
REMARK   12  A    between atoms: S_28  and  C_31
REMARK                            x       y       z     vdW  Elec       q    Type
REMARK                         _______ _______ _______ _____ _____    ______ ____
ROOT
ATOM      1  N   UNL     1       1.942  -2.713  -6.127  0.00  0.00    +0.383 N 
ATOM      2  C   UNL     1       1.163  -3.585  -5.240  0.00  0.00    -0.077 C 
ATOM      3  C   UNL     1      -0.099  -4.060  -5.964  0.00  0.00    +0.006 C 
ATOM      4  C   UNL     1       0.302  -4.836  -7.222  0.00  0.00    +0.095 C 
ATOM      5  C   UNL     1       1.177  -3.941  -8.105  0.00  0.00    +0.006 C 
ATOM      6  C   UNL     1       2.391  -3.471  -7.301  0.00  0.00    -0.077 C 
ATOM      7  H   UNL     1       1.366  -1.941  -6.427  0.00  0.00    -0.081 HD
ENDROOT
BRANCH   1   8
ATOM      8  C   UNL     1       3.111  -2.198  -5.402  0.00  0.00    -0.039 C 
BRANCH   8  12
ATOM      9  C   UNL     1       1.806   0.303  -2.184  0.00  0.00    +0.165 A 
ATOM     10  C   UNL     1       2.248   0.867  -3.372  0.00  0.00    +0.050 A 
ATOM     11  C   UNL     1       2.669   0.056  -4.409  0.00  0.00    +0.009 A 
ATOM     12  C   UNL     1       2.652  -1.319  -4.268  0.00  0.00    -0.018 A 
ATOM     13  C   UNL     1       2.211  -1.891  -3.084  0.00  0.00    +0.167 A 
ATOM     14  C   UNL     1       1.793  -1.079  -2.036  0.00  0.00    +0.204 A 
BRANCH   9  16
ATOM     15  C   UNL     1       1.433   2.512  -1.387  0.00  0.00    +0.277 C 
ATOM     16  O   UNL     1       1.392   1.101  -1.164  0.00  0.00    -0.491 OA
ENDBRANCH   9  16
BRANCH  14  17
ATOM     17  O   UNL     1       1.365  -1.635  -0.870  0.00  0.00    -0.488 OA
ATOM     18  C   UNL     1      -0.028  -1.938  -0.768  0.00  0.00    +0.277 C 
ENDBRANCH  14  17
BRANCH  13  19
ATOM     19  O   UNL     1       2.194  -3.243  -2.946  0.00  0.00    -0.491 OA
ATOM     20  C   UNL     1       3.373  -3.858  -2.423  0.00  0.00    +0.277 C 
ENDBRANCH  13  19
ENDBRANCH   8  12
ENDBRANCH   1   8
BRANCH   4  21
ATOM     21  N   UNL     1      -0.901  -5.228  -7.960  0.00  0.00    -0.200 N 
BRANCH  21  22
ATOM     22  C   UNL     1      -1.729  -4.248  -8.517  0.00  0.00    +0.052 A 
ATOM     23  C   UNL     1      -2.530  -3.466  -7.695  0.00  0.00    +0.027 A 
ATOM     24  C   UNL     1      -3.347  -2.499  -8.247  0.00  0.00    +0.040 A 
ATOM     25  C   UNL     1      -3.369  -2.309  -9.618  0.00  0.00    +0.124 A 
ATOM     26  C   UNL     1      -2.572  -3.089 -10.440  0.00  0.00    +0.040 A 
ATOM     27  C   UNL     1      -1.749  -4.053  -9.892  0.00  0.00    +0.027 A 
ATOM     28  F   UNL     1      -4.169  -1.363 -10.156  0.00  0.00    -0.205 F 
ENDBRANCH  21  22
BRANCH  21  29
ATOM     29  S   UNL     1      -1.279  -6.830  -8.136  0.00  0.00    +0.075 S 
ATOM     30  O   UNL     1      -2.197  -6.915  -9.217  0.00  0.00    -0.150 OA
ATOM     31  O   UNL     1      -0.049  -7.542  -8.124  0.00  0.00    -0.150 OA
BRANCH  29  32
ATOM     32  C   UNL     1      -2.158  -7.319  -6.689  0.00  0.00    +0.109 A 
ATOM     33  C   UNL     1      -1.470  -7.807  -5.594  0.00  0.00    +0.029 A 
ATOM     34  C   UNL     1      -2.160  -8.191  -4.460  0.00  0.00    +0.002 A 
ATOM     35  C   UNL     1      -3.538  -8.086  -4.420  0.00  0.00    +0.000 A 
ATOM     36  C   UNL     1      -4.226  -7.598  -5.514  0.00  0.00    +0.002 A 
ATOM     37  C   UNL     1      -3.536  -7.210  -6.648  0.00  0.00    +0.029 A 
ENDBRANCH  29  32
ENDBRANCH  21  29
ENDBRANCH   4  21
TORSDOF 9
