REMARK  Name = ZINC47539346
REMARK  11 active torsions:
REMARK  status: ('A' for Active; 'I' for Inactive)
REMARK    1  A    between atoms: C_1  and  C_2
REMARK    2  A    between atoms: C_2  and  C_4
REMARK    3  A    between atoms: C_2  and  N_11
REMARK    4  A    between atoms: C_12  and  C_14
REMARK    5  A    between atoms: C_14  and  N_15
REMARK    6  A    between atoms: C_18  and  N_21
REMARK    7  A    between atoms: C_22  and  O_24
REMARK    8  A    between atoms: O_24  and  C_25
REMARK    9  A    between atoms: C_25  and  C_26
REMARK   10  A    between atoms: C_25  and  C_27
REMARK   11  A    between atoms: C_25  and  C_28
REMARK                            x       y       z     vdW  Elec       q    Type
REMARK                         _______ _______ _______ _____ _____    ______ ____
ROOT
ATOM      1  N   UNL     1      -0.242  -1.150  -4.714  0.00  0.00    +0.385 N 
ATOM      2  C   UNL     1      -1.273  -2.155  -4.425  0.00  0.00    -0.076 C 
ATOM      3  C   UNL     1      -2.314  -2.160  -5.546  0.00  0.00    +0.004 C 
ATOM      4  C   UNL     1      -1.627  -2.499  -6.872  0.00  0.00    +0.073 C 
ATOM      5  C   UNL     1      -0.505  -1.489  -7.127  0.00  0.00    +0.004 C 
ATOM      6  C   UNL     1       0.470  -1.508  -5.947  0.00  0.00    -0.076 C 
ATOM      7  H   UNL     1      -0.678  -0.247  -4.829  0.00  0.00    -0.081 HD
ENDROOT
BRANCH   4   8
ATOM      8  N   UNL     1      -2.604  -2.432  -7.962  0.00  0.00    -0.278 N 
ATOM      9  C   UNL     1      -2.406  -3.144  -9.089  0.00  0.00    +0.401 C 
ATOM     10  O   UNL     1      -1.417  -3.842  -9.201  0.00  0.00    -0.226 OA
ATOM     11  H   UNL     1      -3.393  -1.875  -7.872  0.00  0.00    +0.152 HD
BRANCH   9  12
ATOM     12  O   UNL     1      -3.304  -3.082 -10.090  0.00  0.00    -0.445 OA
BRANCH  12  13
ATOM     13  C   UNL     1      -3.030  -3.863 -11.256  0.00  0.00    +0.107 C 
ATOM     14  C   UNL     1      -2.945  -5.341 -10.871  0.00  0.00    +0.055 C 
ATOM     15  C   UNL     1      -4.153  -3.665 -12.276  0.00  0.00    +0.055 C 
ATOM     16  C   UNL     1      -1.701  -3.417 -11.867  0.00  0.00    +0.055 C 
ENDBRANCH  12  13
ENDBRANCH   9  12
ENDBRANCH   4   8
BRANCH   1  17
ATOM     17  C   UNL     1       0.712  -1.094  -3.598  0.00  0.00    +0.019 C 
BRANCH  17  19
ATOM     18  N   UNL     1       0.688  -0.476  -1.203  0.00  0.00    -0.310 N 
ATOM     19  C   UNL     1       0.006  -0.608  -2.358  0.00  0.00    +0.197 C 
ATOM     20  O   UNL     1      -1.175  -0.336  -2.400  0.00  0.00    -0.278 OA
ATOM     21  H   UNL     1       1.632  -0.695  -1.170  0.00  0.00    +0.149 HD
BRANCH  18  23
ATOM     22  C   UNL     1      -0.019   1.526   0.010  0.00  0.00    +0.033 C 
ATOM     23  C   UNL     1       0.002  -0.004   0.002  0.00  0.00    +0.101 C 
BRANCH  23  24
ATOM     24  C   UNL     1       0.731  -0.503   1.223  0.00  0.00    -0.009 A 
ATOM     25  C   UNL     1       2.077  -0.808   1.148  0.00  0.00    +0.007 A 
ATOM     26  C   UNL     1       2.746  -1.266   2.268  0.00  0.00    +0.000 A 
ATOM     27  C   UNL     1       2.069  -1.419   3.463  0.00  0.00    +0.001 A 
ATOM     28  C   UNL     1       0.723  -1.115   3.539  0.00  0.00    +0.020 A 
ATOM     29  C   UNL     1       0.054  -0.651   2.420  0.00  0.00    +0.046 A 
ATOM     30 CL   UNL     1      -1.635  -0.263   2.517  0.00  0.00    -0.083 Cl
ENDBRANCH  23  24
ENDBRANCH  18  23
ENDBRANCH  17  19
ENDBRANCH   1  17
TORSDOF 7
