REMARK  Name = ZINC65455993
REMARK  10 active torsions:
REMARK  status: ('A' for Active; 'I' for Inactive)
REMARK    1  A    between atoms: C_1  and  C_2
REMARK    2  A    between atoms: C_5  and  C_7
REMARK    3  A    between atoms: C_7  and  C_9
REMARK    4  A    between atoms: C_7  and  N_29
REMARK    5  A    between atoms: C_9  and  N_10
REMARK    6  A    between atoms: C_13  and  C_23
REMARK    7  A    between atoms: C_14  and  C_16
REMARK    8  A    between atoms: C_18  and  C_22
REMARK    9  A    between atoms: N_29  and  C_30
REMARK   10  A    between atoms: N_29  and  C_31
REMARK                            x       y       z     vdW  Elec       q    Type
REMARK                         _______ _______ _______ _____ _____    ______ ____
ROOT
ATOM      1  N   UNL     1       3.237  -4.838   1.118  0.00  0.00    -0.271 NA
ATOM      2  C   UNL     1       4.634  -4.421   0.851  0.00  0.00    +0.229 C 
ATOM      3  N   UNL     1       5.265  -4.267   2.167  0.00  0.00    -0.270 NA
ATOM      4  C   UNL     1       4.568  -4.860   3.078  0.00  0.00    +0.068 C 
ATOM      5  C   UNL     1       3.350  -5.494   2.444  0.00  0.00    +0.156 C 
ENDROOT
BRANCH   5   6
ATOM      6  C   UNL     1       3.554  -6.978   2.281  0.00  0.00    +0.060 A 
ATOM      7  H   UNL     1       2.795  -9.947   1.693  0.00  0.00    +0.166 HD
ATOM      8  C   UNL     1       2.607  -7.875   1.943  0.00  0.00    +0.035 A 
ATOM      9  N   UNL     1       3.217  -9.100   1.907  0.00  0.00    -0.350 N 
ATOM     10  C   UNL     1       4.516  -8.909   2.223  0.00  0.00    +0.171 A 
ATOM     11  N   UNL     1       4.711  -7.637   2.441  0.00  0.00    -0.348 N 
ATOM     12  C   UNL     1       1.155  -7.585   1.661  0.00  0.00    +0.065 C 
ATOM     13  H   UNL     1       5.559  -7.232   2.682  0.00  0.00    +0.166 HD
ENDBRANCH   5   6
BRANCH   4  14
ATOM     14  C   UNL     1       4.907  -4.911   4.513  0.00  0.00    -0.002 A 
ATOM     15  C   UNL     1       4.022  -5.494   5.423  0.00  0.00    +0.010 A 
ATOM     16  C   UNL     1       4.346  -5.538   6.763  0.00  0.00    +0.001 A 
ATOM     17  C   UNL     1       5.544  -5.007   7.207  0.00  0.00    +0.000 A 
ATOM     18  C   UNL     1       6.425  -4.428   6.311  0.00  0.00    +0.001 A 
ATOM     19  C   UNL     1       6.117  -4.382   4.967  0.00  0.00    +0.010 A 
ENDBRANCH   4  14
BRANCH   1  20
ATOM     20  C   UNL     1       2.343  -3.674   1.181  0.00  0.00    +0.079 C 
BRANCH  20  21
ATOM     21  C   UNL     1       1.953  -3.253  -0.237  0.00  0.00    +0.013 C 
BRANCH  21  26
ATOM     22  C   UNL     1      -1.935  -6.220  -1.471  0.00  0.00    +0.086 C 
ATOM     23  C   UNL     1      -0.545  -5.640  -1.419  0.00  0.00    +0.102 A 
ATOM     24  C   UNL     1       0.522  -6.091  -2.102  0.00  0.00    +0.044 A 
ATOM     25  C   UNL     1       1.612  -5.260  -1.756  0.00  0.00    +0.043 A 
ATOM     26  C   UNL     1       1.145  -4.350  -0.882  0.00  0.00    +0.093 A 
ATOM     27  O   UNL     1      -0.163  -4.581  -0.686  0.00  0.00    -0.466 OA
ENDBRANCH  21  26
BRANCH  21  28
ATOM     28  N   UNL     1       1.151  -2.023  -0.180  0.00  0.00    +0.383 N 
ATOM     29  C   UNL     1       1.973  -0.926   0.347  0.00  0.00    -0.096 C 
ATOM     30  C   UNL     1       0.684  -1.680  -1.530  0.00  0.00    -0.096 C 
ATOM     31  H   UNL     1       0.356  -2.168   0.424  0.00  0.00    -0.082 HD
ENDBRANCH  21  28
ENDBRANCH  20  21
ENDBRANCH   1  20
TORSDOF 6
