REMARK  Name = ZINC39711993
REMARK  7 active torsions:
REMARK  status: ('A' for Active; 'I' for Inactive)
REMARK    1  A    between atoms: C_1  and  C_2
REMARK    2  A    between atoms: C_6  and  C_7
REMARK    3  A    between atoms: C_7  and  C_9
REMARK    4  A    between atoms: C_7  and  C_21
REMARK    5  A    between atoms: C_12  and  C_14
REMARK    6  A    between atoms: C_22  and  C_28
REMARK    7  A    between atoms: C_25  and  O_27
REMARK                            x       y       z     vdW  Elec       q    Type
REMARK                         _______ _______ _______ _____ _____    ______ ____
ROOT
ATOM      1  C   UNL     1      -0.030  -0.342  -2.566  0.00  0.00    +0.124 C 
ENDROOT
BRANCH   1   7
ATOM      2  C   UNL     1      -0.460   1.601  -0.100  0.00  0.00    +0.068 C 
ATOM      3  C   UNL     1      -0.245   0.111  -0.025  0.00  0.00    +0.068 A 
ATOM      4  N   UNL     1      -0.209  -0.603   1.071  0.00  0.00    -0.176 NA
ATOM      5  N   UNL     1       0.010  -1.941   0.717  0.00  0.00    -0.243 N 
ATOM      6  C   UNL     1       0.105  -2.005  -0.629  0.00  0.00    +0.271 A 
ATOM      7  C   UNL     1      -0.056  -0.745  -1.114  0.00  0.00    +0.055 A 
ATOM      8  O   UNL     1       0.317  -3.126  -1.365  0.00  0.00    -0.266 OA
ATOM      9  H   UNL     1       0.081  -2.689   1.331  0.00  0.00    +0.192 HD
ENDBRANCH   1   7
BRANCH   1  10
ATOM     10  C   UNL     1      -1.196  -0.973  -3.283  0.00  0.00    +0.020 C 
ATOM     11  C   UNL     1      -1.564  -0.810  -4.555  0.00  0.00    +0.065 C 
ATOM     12  N   UNL     1      -2.665  -1.543  -4.834  0.00  0.00    -0.156 NA
ATOM     13  N   UNL     1      -3.098  -2.199  -3.883  0.00  0.00    -0.151 NA
ATOM     14  C   UNL     1      -2.220  -1.946  -2.727  0.00  0.00    +0.284 C 
ATOM     15  C   UNL     1      -0.850   0.071  -5.547  0.00  0.00    +0.067 C 
BRANCH  14  16
ATOM     16  O   UNL     1      -2.957  -1.349  -1.658  0.00  0.00    -0.366 OA
ATOM     17  H   UNL     1      -3.625  -1.929  -1.268  0.00  0.00    +0.212 HD
ENDBRANCH  14  16
ENDBRANCH   1  10
BRANCH   1  18
ATOM     18  C   UNL     1       1.258  -0.809  -3.194  0.00  0.00    +0.118 A 
ATOM     19  C   UNL     1       2.188  -0.016  -3.760  0.00  0.00    +0.046 A 
ATOM     20  C   UNL     1       3.223  -0.856  -4.218  0.00  0.00    +0.050 A 
ATOM     21  C   UNL     1       2.863  -2.128  -3.903  0.00  0.00    +0.135 A 
ATOM     22  O   UNL     1       1.672  -2.084  -3.277  0.00  0.00    -0.459 OA
BRANCH  21  23
ATOM     23  C   UNL     1       3.647  -3.348  -4.192  0.00  0.00    +0.017 A 
ATOM     24  C   UNL     1       4.879  -3.252  -4.841  0.00  0.00    +0.014 A 
ATOM     25  C   UNL     1       5.605  -4.393  -5.108  0.00  0.00    +0.039 A 
ATOM     26  C   UNL     1       5.114  -5.634  -4.734  0.00  0.00    +0.123 A 
ATOM     27  C   UNL     1       3.891  -5.735  -4.090  0.00  0.00    +0.039 A 
ATOM     28  C   UNL     1       3.159  -4.600  -3.812  0.00  0.00    +0.014 A 
ATOM     29  F   UNL     1       5.829  -6.749  -4.999  0.00  0.00    -0.205 F 
ENDBRANCH  21  23
ENDBRANCH   1  18
TORSDOF 5
