REMARK  Name = ZINC67101939
REMARK  7 active torsions:
REMARK  status: ('A' for Active; 'I' for Inactive)
REMARK    1  A    between atoms: C_1  and  C_2
REMARK    2  A    between atoms: C_2  and  C_3
REMARK    3  A    between atoms: C_3  and  C_5
REMARK    4  A    between atoms: C_3  and  N_15
REMARK    5  A    between atoms: N_18  and  N_19
REMARK    6  A    between atoms: C_20  and  C_22
REMARK    7  A    between atoms: C_23  and  C_27
REMARK                            x       y       z     vdW  Elec       q    Type
REMARK                         _______ _______ _______ _____ _____    ______ ____
ROOT
ATOM      1  N   UNL     1       2.148  -0.104   1.172  0.00  0.00    -0.288 N 
ATOM      2  C   UNL     1       2.518   1.116   1.608  0.00  0.00    +0.317 C 
ATOM      3  O   UNL     1       1.686   1.879   2.060  0.00  0.00    -0.251 OA
ATOM      4  N   UNL     1       3.812   1.491   1.544  0.00  0.00    -0.218 N 
ATOM      5  H   UNL     1       2.812  -0.712   0.811  0.00  0.00    +0.151 HD
ATOM      6  H   UNL     1       4.078   2.369   1.858  0.00  0.00    +0.174 HD
ENDROOT
BRANCH   4   7
ATOM      7  N   UNL     1       4.770   0.612   1.023  0.00  0.00    -0.229 N 
ATOM      8  C   UNL     1       6.063   0.986   0.959  0.00  0.00    +0.267 C 
ATOM      9  O   UNL     1       6.398   2.088   1.353  0.00  0.00    -0.268 OA
ATOM     10  H   UNL     1       4.503  -0.266   0.709  0.00  0.00    +0.173 HD
BRANCH   8  11
ATOM     11  C   UNL     1       7.066   0.067   0.414  0.00  0.00    +0.078 A 
ATOM     12  C   UNL     1       8.433   0.251   0.266  0.00  0.00    -0.031 A 
ATOM     13  C   UNL     1       9.122  -0.804  -0.282  0.00  0.00    +0.011 A 
ATOM     14  C   UNL     1       8.443  -1.924  -0.632  0.00  0.00    +0.046 A 
ATOM     15  S   UNL     1       6.849  -1.584  -0.223  0.00  0.00    -0.092 S 
ATOM     16  C   UNL     1       9.118   1.528   0.680  0.00  0.00    +0.045 C 
ENDBRANCH   8  11
ENDBRANCH   4   7
BRANCH   1  17
ATOM     17  C   UNL     1       0.742  -0.511   1.242  0.00  0.00    +0.140 C 
BRANCH  17  18
ATOM     18  C   UNL     1       0.657  -2.014   1.298  0.00  0.00    +0.129 A 
ATOM     19  N   UNL     1       1.724  -2.853   1.388  0.00  0.00    -0.340 N 
ATOM     20  H   UNL     1       2.658  -2.593   1.427  0.00  0.00    +0.167 HD
ATOM     21  C   UNL     1       1.232  -4.143   1.414  0.00  0.00    +0.066 A 
ATOM     22  C   UNL     1       1.818  -5.399   1.495  0.00  0.00    +0.028 A 
ATOM     23  C   UNL     1       1.021  -6.524   1.499  0.00  0.00    +0.002 A 
ATOM     24  C   UNL     1      -0.360  -6.409   1.421  0.00  0.00    +0.002 A 
ATOM     25  C   UNL     1      -0.953  -5.181   1.341  0.00  0.00    +0.030 A 
ATOM     26  C   UNL     1      -0.166  -4.026   1.336  0.00  0.00    +0.089 A 
ATOM     27  N   UNL     1      -0.449  -2.700   1.273  0.00  0.00    -0.231 NA
ENDBRANCH  17  18
BRANCH  17  29
ATOM     28  C   UNL     1      -0.019   1.526   0.010  0.00  0.00    +0.006 C 
ATOM     29  C   UNL     1       0.002  -0.004   0.002  0.00  0.00    +0.027 C 
ENDBRANCH  17  29
ENDBRANCH   1  17
TORSDOF 5
