REMARK  Name = ZINC39675059
REMARK  10 active torsions:
REMARK  status: ('A' for Active; 'I' for Inactive)
REMARK    1  A    between atoms: C_1  and  C_2
REMARK    2  A    between atoms: C_4  and  C_37
REMARK    3  A    between atoms: N_5  and  C_7
REMARK    4  A    between atoms: C_7  and  C_8
REMARK    5  A    between atoms: C_8  and  N_9
REMARK    6  A    between atoms: C_10  and  C_12
REMARK    7  A    between atoms: C_23  and  C_25
REMARK    8  A    between atoms: C_26  and  C_36
REMARK    9  A    between atoms: C_29  and  C_30
REMARK   10  A    between atoms: C_32  and  C_35
REMARK                            x       y       z     vdW  Elec       q    Type
REMARK                         _______ _______ _______ _____ _____    ______ ____
ROOT
ATOM      1  C   UNL     1       2.723  -6.622   3.912  0.00  0.00    +0.100 C 
ATOM      2  C   UNL     1       1.967  -7.789   3.238  0.00  0.00    +0.121 C 
ATOM      3  N   UNL     1       3.023  -8.574   2.555  0.00  0.00    -0.296 N 
ATOM      4  C   UNL     1       4.164  -8.559   3.502  0.00  0.00    +0.115 C 
ATOM      5  C   UNL     1       4.163  -7.132   4.087  0.00  0.00    -0.004 C 
ATOM      6  C   UNL     1       5.135  -6.246   3.314  0.00  0.00    -0.010 C 
ATOM      7  C   UNL     1       6.565  -6.739   3.549  0.00  0.00    -0.082 C 
ATOM      8  N   UNL     1       6.869  -6.698   4.984  0.00  0.00    +0.379 N 
ATOM      9  C   UNL     1       5.991  -7.624   5.709  0.00  0.00    -0.082 C 
ATOM     10  C   UNL     1       4.536  -7.168   5.566  0.00  0.00    -0.010 C 
ATOM     11  C   UNL     1       2.960  -9.167   1.347  0.00  0.00    +0.252 C 
ATOM     12  O   UNL     1       3.919  -9.781   0.920  0.00  0.00    -0.270 OA
ATOM     13  H   UNL     1       7.831  -6.965   5.130  0.00  0.00    -0.086 HD
ATOM     14  H   UNL     1       6.727  -5.761   5.330  0.00  0.00    -0.086 HD
ENDROOT
BRANCH  11  15
ATOM     15  C   UNL     1       1.729  -9.071   0.543  0.00  0.00    +0.108 A 
ATOM     16  C   UNL     1       1.423  -8.067  -0.409  0.00  0.00    +0.093 A 
ATOM     17  N   UNL     1       0.251  -8.325  -0.907  0.00  0.00    -0.082 NA
ATOM     18  O   UNL     1      -0.254  -9.501  -0.306  0.00  0.00    -0.352 OA
ATOM     19  C   UNL     1       0.657  -9.951   0.572  0.00  0.00    +0.201 A 
ATOM     20  C   UNL     1       2.304  -6.901  -0.779  0.00  0.00    +0.070 C 
BRANCH  19  21
ATOM     21  C   UNL     1       0.538 -11.160   1.415  0.00  0.00    +0.152 A 
ATOM     22  C   UNL     1      -0.557 -12.059   1.438  0.00  0.00    +0.079 A 
ATOM     23  C   UNL     1      -0.284 -13.025   2.332  0.00  0.00    +0.135 A 
ATOM     24  O   UNL     1       0.921 -12.775   2.868  0.00  0.00    -0.359 OA
ATOM     25  N   UNL     1       1.431 -11.595   2.274  0.00  0.00    -0.075 NA
ATOM     26  C   UNL     1      -1.179 -14.188   2.675  0.00  0.00    +0.089 C 
ENDBRANCH  19  21
ENDBRANCH  11  15
BRANCH   1  28
ATOM     27  N   UNL     1       2.851  -4.176   3.567  0.00  0.00    -0.313 N 
ATOM     28  C   UNL     1       2.701  -5.402   3.028  0.00  0.00    +0.218 C 
ATOM     29  O   UNL     1       2.550  -5.524   1.831  0.00  0.00    -0.275 OA
ATOM     30  H   UNL     1       2.972  -4.079   4.524  0.00  0.00    +0.149 HD
BRANCH  27  31
ATOM     31  C   UNL     1       2.830  -2.990   2.707  0.00  0.00    +0.127 C 
BRANCH  31  32
ATOM     32  C   UNL     1       3.020  -1.736   3.562  0.00  0.00    +0.162 C 
BRANCH  32  37
ATOM     33  C   UNL     1       4.561   1.996   0.581  0.00  0.00    +0.067 C 
ATOM     34  C   UNL     1       3.695   1.074   1.400  0.00  0.00    +0.060 A 
ATOM     35  C   UNL     1       2.310   1.178   1.560  0.00  0.00    +0.047 A 
ATOM     36  C   UNL     1       1.907   0.167   2.365  0.00  0.00    +0.036 A 
ATOM     37  N   UNL     1       2.999  -0.551   2.702  0.00  0.00    -0.267 N 
ATOM     38  N   UNL     1       4.109   0.035   2.080  0.00  0.00    -0.176 NA
ATOM     39  C   UNL     1       0.493  -0.108   2.806  0.00  0.00    +0.065 C 
ENDBRANCH  32  37
ENDBRANCH  31  32
ENDBRANCH  27  31
ENDBRANCH   1  28
TORSDOF 6
