REMARK  Name = ZINC63820555
REMARK  16 active torsions:
REMARK  status: ('A' for Active; 'I' for Inactive)
REMARK    1  A    between atoms: C_1  and  C_2
REMARK    2  A    between atoms: C_2  and  C_3
REMARK    3  A    between atoms: C_3  and  C_5
REMARK    4  A    between atoms: C_3  and  N_33
REMARK    5  A    between atoms: C_9  and  S_18
REMARK    6  A    between atoms: N_10  and  C_11
REMARK    7  A    between atoms: C_11  and  C_12
REMARK    8  A    between atoms: S_18  and  C_19
REMARK    9  A    between atoms: C_19  and  C_20
REMARK   10  A    between atoms: C_20  and  C_22
REMARK   11  A    between atoms: C_23  and  C_32
REMARK   12  A    between atoms: C_24  and  C_29
REMARK   13  A    between atoms: C_25  and  C_28
REMARK   14  A    between atoms: C_29  and  C_31
REMARK   15  A    between atoms: N_33  and  C_34
REMARK   16  A    between atoms: N_33  and  C_35
REMARK                            x       y       z     vdW  Elec       q    Type
REMARK                         _______ _______ _______ _____ _____    ______ ____
ROOT
ATOM      1  C   UNL     1       0.478  -2.106  -1.189  0.00  0.00    +0.164 C 
ATOM      2  N   UNL     1       0.651  -2.647   0.171  0.00  0.00    -0.248 N 
ATOM      3  N   UNL     1      -0.603  -3.134   0.559  0.00  0.00    -0.163 NA
ATOM      4  C   UNL     1      -1.485  -2.960  -0.367  0.00  0.00    +0.176 C 
ATOM      5  N   UNL     1      -0.945  -2.342  -1.488  0.00  0.00    -0.286 N 
ATOM      6  H   UNL     1       1.469  -2.663   0.692  0.00  0.00    +0.170 HD
ENDROOT
BRANCH   1   7
ATOM      7  C   UNL     1       0.791  -0.609  -1.214  0.00  0.00    -0.029 C 
BRANCH   7   8
ATOM      8  N   UNL     1       2.234  -0.407  -1.026  0.00  0.00    +0.380 N 
ATOM      9  C   UNL     1       2.971  -1.151  -2.055  0.00  0.00    -0.096 C 
ATOM     10  C   UNL     1       2.547   1.024  -1.137  0.00  0.00    -0.096 C 
ATOM     11  H   UNL     1       2.503  -0.740  -0.112  0.00  0.00    -0.082 HD
ENDBRANCH   7   8
BRANCH   7  13
ATOM     12  C   UNL     1      -1.470   0.081  -0.406  0.00  0.00    +0.002 C 
ATOM     13  C   UNL     1       0.027   0.092  -0.089  0.00  0.00    -0.015 C 
ENDBRANCH   7  13
ENDBRANCH   1   7
BRANCH   5  14
ATOM     14  C   UNL     1      -1.649  -1.991  -2.724  0.00  0.00    +0.144 C 
BRANCH  14  15
ATOM     15  C   UNL     1      -1.565  -3.142  -3.693  0.00  0.00    -0.030 A 
ATOM     16  C   UNL     1      -0.511  -3.221  -4.583  0.00  0.00    +0.005 A 
ATOM     17  C   UNL     1      -0.434  -4.277  -5.473  0.00  0.00    +0.000 A 
ATOM     18  C   UNL     1      -1.411  -5.254  -5.471  0.00  0.00    +0.000 A 
ATOM     19  C   UNL     1      -2.466  -5.176  -4.581  0.00  0.00    +0.000 A 
ATOM     20  C   UNL     1      -2.540  -4.122  -3.689  0.00  0.00    +0.005 A 
ENDBRANCH  14  15
ENDBRANCH   5  14
BRANCH   4  21
ATOM     21  S   UNL     1      -3.172  -3.450  -0.227  0.00  0.00    -0.081 S 
BRANCH  21  22
ATOM     22  C   UNL     1      -3.279  -4.189   1.426  0.00  0.00    +0.158 C 
BRANCH  22  23
ATOM     23  C   UNL     1      -4.690  -4.656   1.677  0.00  0.00    +0.190 C 
ATOM     24  O   UNL     1      -5.540  -4.506   0.823  0.00  0.00    -0.290 OA
BRANCH  23  25
ATOM     25  C   UNL     1      -5.024  -5.271   2.908  0.00  0.00    +0.087 A 
ATOM     26  C   UNL     1      -6.266  -5.746   3.263  0.00  0.00    -0.012 A 
ATOM     27  C   UNL     1      -6.144  -6.274   4.569  0.00  0.00    +0.041 A 
ATOM     28  C   UNL     1      -4.824  -6.097   4.958  0.00  0.00    +0.024 A 
ATOM     29  N   UNL     1      -4.159  -5.503   3.958  0.00  0.00    -0.355 N 
ATOM     30  H   UNL     1      -3.217  -5.269   3.972  0.00  0.00    +0.166 HD
ATOM     31  C   UNL     1      -4.236  -6.511   6.282  0.00  0.00    +0.064 C 
ATOM     32  C   UNL     1      -7.516  -5.711   2.422  0.00  0.00    +0.047 C 
BRANCH  27  33
ATOM     33  C   UNL     1      -7.211  -6.892   5.362  0.00  0.00    +0.162 C 
ATOM     34  O   UNL     1      -7.955  -6.198   6.024  0.00  0.00    -0.292 OA
ATOM     35  C   UNL     1      -7.385  -8.389   5.356  0.00  0.00    +0.091 C 
ENDBRANCH  27  33
ENDBRANCH  23  25
ENDBRANCH  22  23
ENDBRANCH  21  22
ENDBRANCH   4  21
TORSDOF 10
