REMARK  Name = ZINC39686606
REMARK  12 active torsions:
REMARK  status: ('A' for Active; 'I' for Inactive)
REMARK    1  A    between atoms: C_1  and  C_2
REMARK    2  A    between atoms: C_3  and  C_12
REMARK    3  A    between atoms: C_7  and  O_8
REMARK    4  A    between atoms: O_8  and  C_9
REMARK    5  A    between atoms: C_9  and  C_11
REMARK    6  A    between atoms: C_16  and  C_25
REMARK    7  A    between atoms: N_27  and  C_28
REMARK    8  A    between atoms: C_28  and  C_30
REMARK    9  A    between atoms: C_28  and  C_31
REMARK   10  A    between atoms: C_31  and  C_32
REMARK   11  A    between atoms: C_37  and  O_38
REMARK   12  A    between atoms: O_38  and  C_39
REMARK                            x       y       z     vdW  Elec       q    Type
REMARK                         _______ _______ _______ _____ _____    ______ ____
ROOT
ATOM      1  C   UNL     1      -0.076  -0.178  -2.521  0.00  0.00    +0.247 C 
ATOM      2  O   UNL     1      -0.009   1.031  -2.627  0.00  0.00    -0.270 OA
ATOM      3  N   UNL     1      -0.292  -0.939  -3.612  0.00  0.00    -0.296 N 
ATOM      4  C   UNL     1      -0.530  -2.401  -3.668  0.00  0.00    +0.121 C 
ATOM      5  C   UNL     1      -1.615  -2.579  -4.754  0.00  0.00    +0.100 C 
ATOM      6  C   UNL     1      -1.486  -1.331  -5.644  0.00  0.00    -0.004 C 
ATOM      7  C   UNL     1      -0.350  -0.502  -5.028  0.00  0.00    +0.115 C 
ATOM      8  C   UNL     1      -2.785  -0.532  -5.625  0.00  0.00    -0.010 C 
ATOM      9  C   UNL     1      -2.653   0.672  -6.562  0.00  0.00    -0.082 C 
ATOM     10  N   UNL     1      -2.362   0.206  -7.923  0.00  0.00    +0.379 N 
ATOM     11  C   UNL     1      -1.066  -0.482  -7.951  0.00  0.00    -0.082 C 
ATOM     12  C   UNL     1      -1.131  -1.735  -7.072  0.00  0.00    -0.010 C 
ATOM     13  H   UNL     1      -3.086  -0.431  -8.220  0.00  0.00    -0.086 HD
ATOM     14  H   UNL     1      -2.336   0.996  -8.549  0.00  0.00    -0.086 HD
ENDROOT
BRANCH   1  17
ATOM     15  C   UNL     1      -1.121   1.145  -0.170  0.00  0.00    +0.048 C 
ATOM     16  C   UNL     1      -0.422  -0.186  -0.054  0.00  0.00    +0.004 A 
ATOM     17  C   UNL     1       0.078  -0.814  -1.195  0.00  0.00    +0.043 A 
ATOM     18  C   UNL     1       0.724  -2.046  -1.080  0.00  0.00    +0.013 A 
ATOM     19  C   UNL     1       0.866  -2.637   0.159  0.00  0.00    +0.004 A 
ATOM     20  C   UNL     1       0.370  -2.013   1.288  0.00  0.00    +0.047 A 
ATOM     21  C   UNL     1      -0.270  -0.785   1.184  0.00  0.00    +0.135 A 
BRANCH  21  22
ATOM     22  O   UNL     1      -0.751  -0.173   2.299  0.00  0.00    -0.426 OA
BRANCH  22  23
ATOM     23  C   UNL     1      -0.056   0.859   2.801  0.00  0.00    +0.309 C 
ATOM     24  O   UNL     1       1.012   1.160   2.321  0.00  0.00    -0.251 OA
ATOM     25  C   UNL     1      -0.606   1.644   3.965  0.00  0.00    +0.136 C 
ENDBRANCH  22  23
ENDBRANCH  21  22
ENDBRANCH   1  17
BRANCH   5  26
ATOM     26  C   UNL     1      -1.354  -3.828  -5.556  0.00  0.00    +0.218 C 
ATOM     27  O   UNL     1      -0.227  -4.265  -5.648  0.00  0.00    -0.275 OA
ATOM     28  N   UNL     1      -2.374  -4.458  -6.171  0.00  0.00    -0.312 N 
ATOM     29  H   UNL     1      -3.276  -4.108  -6.098  0.00  0.00    +0.149 HD
BRANCH  28  30
ATOM     30  C   UNL     1      -2.121  -5.673  -6.951  0.00  0.00    +0.074 C 
ATOM     31  C   UNL     1      -2.125  -6.887  -6.020  0.00  0.00    +0.028 C 
BRANCH  30  32
ATOM     32  C   UNL     1      -3.215  -5.837  -8.008  0.00  0.00    +0.060 C 
BRANCH  32  33
ATOM     33  C   UNL     1      -3.132  -4.704  -8.997  0.00  0.00    -0.004 A 
ATOM     34  C   UNL     1      -3.917  -3.579  -8.828  0.00  0.00    +0.007 A 
ATOM     35  C   UNL     1      -3.842  -2.539  -9.736  0.00  0.00    +0.000 A 
ATOM     36  C   UNL     1      -2.981  -2.621 -10.815  0.00  0.00    +0.004 A 
ATOM     37  C   UNL     1      -2.194  -3.743 -10.988  0.00  0.00    +0.046 A 
ATOM     38  C   UNL     1      -2.263  -4.786 -10.076  0.00  0.00    +0.123 A 
BRANCH  38  39
ATOM     39  O   UNL     1      -1.486  -5.888 -10.241  0.00  0.00    -0.495 OA
ATOM     40  C   UNL     1      -0.615  -5.903 -11.374  0.00  0.00    +0.277 C 
ENDBRANCH  38  39
ENDBRANCH  32  33
ENDBRANCH  30  32
ENDBRANCH  28  30
ENDBRANCH   5  26
TORSDOF 8
