REMARK  Name = ZINC36645058
REMARK  12 active torsions:
REMARK  status: ('A' for Active; 'I' for Inactive)
REMARK    1  A    between atoms: C_1  and  C_2
REMARK    2  A    between atoms: C_5  and  O_8
REMARK    3  A    between atoms: O_8  and  C_9
REMARK    4  A    between atoms: C_9  and  C_10
REMARK    5  A    between atoms: N_12  and  C_13
REMARK    6  A    between atoms: C_13  and  C_14
REMARK    7  A    between atoms: C_14  and  C_15
REMARK    8  A    between atoms: C_15  and  N_16
REMARK    9  A    between atoms: N_16  and  C_17
REMARK   10  A    between atoms: N_16  and  C_18
REMARK   11  A    between atoms: C_22  and  C_29
REMARK   12  A    between atoms: C_25  and  C_28
REMARK                            x       y       z     vdW  Elec       q    Type
REMARK                         _______ _______ _______ _____ _____    ______ ____
ROOT
ATOM      1  C   UNL     1       0.090  -6.277   1.043  0.00  0.00    +0.259 C 
ATOM      2  O   UNL     1       0.090  -6.735  -0.080  0.00  0.00    -0.271 OA
ATOM      3  N   UNL     1       0.106  -7.104   2.108  0.00  0.00    -0.248 N 
ATOM      4  C   UNL     1       0.106  -6.582   3.391  0.00  0.00    +0.168 A 
ATOM      5  N   UNL     1       0.126  -7.218   4.539  0.00  0.00    -0.224 NA
ATOM      6  C   UNL     1       0.123  -6.574   5.726  0.00  0.00    +0.083 A 
ATOM      7  C   UNL     1       0.142  -7.135   7.024  0.00  0.00    -0.024 A 
ATOM      8  C   UNL     1       0.135  -6.332   8.134  0.00  0.00    +0.006 A 
ATOM      9  C   UNL     1       0.110  -4.948   8.028  0.00  0.00    +0.005 A 
ATOM     10  C   UNL     1       0.091  -4.365   6.774  0.00  0.00    -0.035 A 
ATOM     11  C   UNL     1       0.097  -5.162   5.656  0.00  0.00    +0.044 A 
ATOM     12  S   UNL     1       0.086  -4.870   3.904  0.00  0.00    -0.052 S 
ATOM     13  C   UNL     1       0.064  -2.865   6.636  0.00  0.00    +0.045 C 
ATOM     14  C   UNL     1       0.170  -8.633   7.188  0.00  0.00    +0.046 C 
ENDROOT
BRANCH   1  15
ATOM     15  C   UNL     1       0.072  -4.785   1.249  0.00  0.00    +0.325 C 
BRANCH  15  16
ATOM     16  O   UNL     1       0.057  -4.129  -0.021  0.00  0.00    -0.483 OA
BRANCH  16  21
ATOM     17  C   UNL     1      -0.018   1.503   0.010  0.00  0.00    +0.044 C 
ATOM     18  C   UNL     1       0.002  -0.004   0.002  0.00  0.00    -0.050 A 
ATOM     19  C   UNL     1       0.006  -0.688  -1.200  0.00  0.00    +0.007 A 
ATOM     20  C   UNL     1       0.024  -2.069  -1.210  0.00  0.00    +0.046 A 
ATOM     21  C   UNL     1       0.039  -2.770  -0.013  0.00  0.00    +0.121 A 
ATOM     22  C   UNL     1       0.036  -2.082   1.191  0.00  0.00    +0.046 A 
ATOM     23  C   UNL     1       0.023  -0.701   1.196  0.00  0.00    +0.007 A 
ENDBRANCH  16  21
ENDBRANCH  15  16
ENDBRANCH   1  15
BRANCH   3  24
ATOM     24  C   UNL     1       0.124  -8.555   1.908  0.00  0.00    +0.114 C 
BRANCH  24  25
ATOM     25  C   UNL     1       1.572  -9.042   1.831  0.00  0.00    +0.001 C 
BRANCH  25  26
ATOM     26  C   UNL     1       1.591 -10.557   1.622  0.00  0.00    -0.078 C 
BRANCH  26  27
ATOM     27  N   UNL     1       2.982 -11.025   1.548  0.00  0.00    +0.376 N 
ATOM     28  C   UNL     1       3.642 -10.802   2.841  0.00  0.00    -0.097 C 
ATOM     29  C   UNL     1       3.000 -12.458   1.229  0.00  0.00    -0.097 C 
ATOM     30  H   UNL     1       3.470 -10.513   0.828  0.00  0.00    -0.083 HD
ENDBRANCH  26  27
ENDBRANCH  25  26
ENDBRANCH  24  25
ENDBRANCH   3  24
TORSDOF 7
