REMARK  Name = ZINC27597029
REMARK  13 active torsions:
REMARK  status: ('A' for Active; 'I' for Inactive)
REMARK    1  A    between atoms: C_1  and  C_2
REMARK    2  A    between atoms: C_2  and  C_3
REMARK    3  A    between atoms: C_6  and  C_9
REMARK    4  A    between atoms: C_9  and  C_11
REMARK    5  A    between atoms: C_9  and  N_31
REMARK    6  A    between atoms: C_11  and  N_12
REMARK    7  A    between atoms: C_13  and  C_15
REMARK    8  A    between atoms: C_15  and  C_16
REMARK    9  A    between atoms: C_16  and  N_17
REMARK   10  A    between atoms: C_18  and  C_24
REMARK   11  A    between atoms: C_27  and  C_30
REMARK   12  A    between atoms: N_31  and  C_32
REMARK   13  A    between atoms: N_31  and  C_33
REMARK                            x       y       z     vdW  Elec       q    Type
REMARK                         _______ _______ _______ _____ _____    ______ ____
ROOT
ATOM      1  N   UNL     1      -4.552   5.081  -3.523  0.00  0.00    -0.316 N 
ATOM      2  C   UNL     1      -4.371   4.561  -2.294  0.00  0.00    +0.215 C 
ATOM      3  O   UNL     1      -4.542   5.251  -1.312  0.00  0.00    -0.276 OA
ATOM      4  H   UNL     1      -4.397   4.454  -4.414  0.00  0.00    +0.149 HD
ENDROOT
BRANCH   1   5
ATOM      5  C   UNL     1      -4.956   6.481  -3.674  0.00  0.00    +0.093 C 
BRANCH   5   6
ATOM      6  C   UNL     1      -5.203   6.784  -5.153  0.00  0.00    -0.021 C 
BRANCH   6  10
ATOM      7  C   UNL     1      -1.560   6.317  -7.333  0.00  0.00    -0.048 A 
ATOM      8  C   UNL     1      -2.506   5.310  -7.345  0.00  0.00    +0.004 A 
ATOM      9  C   UNL     1      -3.685   5.461  -6.639  0.00  0.00    +0.002 A 
ATOM     10  C   UNL     1      -3.918   6.619  -5.922  0.00  0.00    -0.059 A 
ATOM     11  C   UNL     1      -2.974   7.629  -5.914  0.00  0.00    +0.002 A 
ATOM     12  C   UNL     1      -1.792   7.476  -6.616  0.00  0.00    +0.004 A 
BRANCH   7  14
ATOM     13  C   UNL     1      -0.458   6.692  -9.523  0.00  0.00    +0.009 C 
ATOM     14  C   UNL     1      -0.274   6.153  -8.102  0.00  0.00    +0.032 C 
ENDBRANCH   7  14
ENDBRANCH   6  10
BRANCH   6  15
ATOM     15  N   UNL     1      -5.686   8.164  -5.296  0.00  0.00    +0.382 N 
ATOM     16  C   UNL     1      -6.011   8.466  -6.697  0.00  0.00    -0.096 C 
ATOM     17  C   UNL     1      -6.841   8.411  -4.423  0.00  0.00    -0.096 C 
ATOM     18  H   UNL     1      -4.876   8.840  -4.984  0.00  0.00    -0.082 HD
ENDBRANCH   6  15
ENDBRANCH   5   6
ENDBRANCH   1   5
BRANCH   2  19
ATOM     19  C   UNL     1      -3.956   3.120  -2.139  0.00  0.00    +0.117 C 
BRANCH  19  20
ATOM     20  C   UNL     1      -3.820   2.785  -0.652  0.00  0.00    +0.135 C 
BRANCH  20  21
ATOM     21  N   UNL     1      -3.417   1.385  -0.501  0.00  0.00    -0.303 N 
ATOM     22  C   UNL     1      -2.124   0.929  -0.339  0.00  0.00    +0.163 A 
ATOM     23  N   UNL     1      -2.153  -0.370  -0.233  0.00  0.00    -0.153 NA
ATOM     24  N   UNL     1      -3.488  -0.784  -0.331  0.00  0.00    -0.254 N 
ATOM     25  H   UNL     1      -3.739  -1.853  -0.266  0.00  0.00    +0.191 HD
ATOM     26  C   UNL     1      -4.244   0.321  -0.499  0.00  0.00    +0.176 A 
ATOM     27  S   UNL     1      -5.947   0.364  -0.673  0.00  0.00    -0.011 S 
BRANCH  22  28
ATOM     28  C   UNL     1      -0.909   1.773  -0.288  0.00  0.00    +0.019 A 
ATOM     29  C   UNL     1      -0.928   3.060  -0.826  0.00  0.00    +0.012 A 
ATOM     30  C   UNL     1       0.206   3.845  -0.771  0.00  0.00    +0.004 A 
ATOM     31  C   UNL     1       1.361   3.355  -0.188  0.00  0.00    -0.050 A 
ATOM     32  C   UNL     1       1.388   2.078   0.342  0.00  0.00    +0.004 A 
ATOM     33  C   UNL     1       0.261   1.284   0.293  0.00  0.00    +0.012 A 
ATOM     34  C   UNL     1       2.596   4.218  -0.130  0.00  0.00    +0.044 C 
ENDBRANCH  22  28
ENDBRANCH  20  21
ENDBRANCH  19  20
ENDBRANCH   2  19
TORSDOF 9
