REMARK  Name = ZINC09498153
REMARK  6 active torsions:
REMARK  status: ('A' for Active; 'I' for Inactive)
REMARK    1  A    between atoms: C_1  and  N_2
REMARK    2  A    between atoms: C_3  and  N_26
REMARK    3  A    between atoms: C_5  and  N_11
REMARK    4  A    between atoms: N_7  and  C_10
REMARK    5  A    between atoms: N_14  and  C_15
REMARK    6  A    between atoms: N_29  and  C_30
REMARK                            x       y       z     vdW  Elec       q    Type
REMARK                         _______ _______ _______ _____ _____    ______ ____
ROOT
ATOM      1  C   UNL     1       0.002  -0.004   0.002  0.00  0.00    +0.135 C 
ATOM      2  N   UNL     1      -0.018   1.461   0.010  0.00  0.00    -0.267 N 
ATOM      3  C   UNL     1       1.169   2.329   0.003  0.00  0.00    +0.204 C 
ATOM      4  C   UNL     1       0.584   3.755   0.017  0.00  0.00    +0.204 C 
ATOM      5  N   UNL     1      -0.871   3.538   0.029  0.00  0.00    -0.267 N 
ATOM      6  C   UNL     1      -1.120   2.222   0.019  0.00  0.00    +0.307 C 
ATOM      7  O   UNL     1      -2.245   1.760   0.021  0.00  0.00    -0.252 OA
ATOM      8  C   UNL     1      -1.886   4.594   0.045  0.00  0.00    +0.135 C 
ENDROOT
BRANCH   4   9
ATOM      9  N   UNL     1       0.984   4.486  -1.188  0.00  0.00    -0.278 N 
ATOM     10  C   UNL     1       1.423   5.757  -1.090  0.00  0.00    +0.301 C 
ATOM     11  O   UNL     1       1.487   6.296  -0.002  0.00  0.00    -0.253 OA
ATOM     12  N   UNL     1       1.792   6.430  -2.198  0.00  0.00    -0.294 N 
ATOM     13  H   UNL     1       0.933   4.056  -2.056  0.00  0.00    +0.152 HD
ATOM     14  H   UNL     1       1.741   6.000  -3.066  0.00  0.00    +0.151 HD
BRANCH  12  15
ATOM     15  C   UNL     1       2.269   7.811  -2.091  0.00  0.00    +0.037 C 
ATOM     16  C   UNL     1       3.513   7.853  -1.202  0.00  0.00    +0.029 C 
ATOM     17  C   UNL     1       4.011   9.296  -1.091  0.00  0.00    -0.008 C 
ATOM     18  C   UNL     1       4.362   9.823  -2.484  0.00  0.00    +0.007 C 
ATOM     19  C   UNL     1       3.117   9.780  -3.373  0.00  0.00    -0.008 C 
ATOM     20  C   UNL     1       2.619   8.338  -3.484  0.00  0.00    +0.029 C 
ATOM     21  C   UNL     1       2.021  10.653  -2.758  0.00  0.00    +0.007 C 
ATOM     22  C   UNL     1       1.671  10.125  -1.365  0.00  0.00    -0.008 C 
ATOM     23  C   UNL     1       2.915  10.168  -0.476  0.00  0.00    +0.007 C 
ATOM     24  C   UNL     1       1.172   8.683  -1.476  0.00  0.00    +0.029 C 
ENDBRANCH  12  15
ENDBRANCH   4   9
BRANCH   3  25
ATOM     25  N   UNL     1       1.983   2.096   1.199  0.00  0.00    -0.278 N 
ATOM     26  C   UNL     1       3.149   1.427   1.101  0.00  0.00    +0.301 C 
ATOM     27  O   UNL     1       3.525   1.016   0.020  0.00  0.00    -0.253 OA
ATOM     28  N   UNL     1       3.898   1.213   2.200  0.00  0.00    -0.294 N 
ATOM     29  H   UNL     1       1.683   2.424   2.061  0.00  0.00    +0.152 HD
ATOM     30  H   UNL     1       3.598   1.541   3.063  0.00  0.00    +0.151 HD
BRANCH  28  31
ATOM     31  C   UNL     1       5.165   0.486   2.094  0.00  0.00    +0.037 C 
ATOM     32  C   UNL     1       6.105   1.234   1.146  0.00  0.00    +0.029 C 
ATOM     33  C   UNL     1       7.428   0.475   1.035  0.00  0.00    -0.008 C 
ATOM     34  C   UNL     1       8.075   0.370   2.418  0.00  0.00    +0.007 C 
ATOM     35  C   UNL     1       7.135  -0.378   3.365  0.00  0.00    -0.008 C 
ATOM     36  C   UNL     1       5.811   0.381   3.476  0.00  0.00    +0.029 C 
ATOM     37  C   UNL     1       6.872  -1.783   2.817  0.00  0.00    +0.007 C 
ATOM     38  C   UNL     1       6.226  -1.679   1.435  0.00  0.00    -0.008 C 
ATOM     39  C   UNL     1       7.165  -0.930   0.487  0.00  0.00    +0.007 C 
ATOM     40  C   UNL     1       4.902  -0.919   1.546  0.00  0.00    +0.029 C 
ENDBRANCH  28  31
ENDBRANCH   3  25
TORSDOF 4
