REMARK  Name = ZINC38807866
REMARK  11 active torsions:
REMARK  status: ('A' for Active; 'I' for Inactive)
REMARK    1  A    between atoms: C_3  and  C_35
REMARK    2  A    between atoms: N_6  and  C_8
REMARK    3  A    between atoms: C_8  and  C_9
REMARK    4  A    between atoms: C_9  and  C_11
REMARK    5  A    between atoms: C_14  and  C_17
REMARK    6  A    between atoms: C_20  and  C_23
REMARK    7  A    between atoms: C_23  and  C_25
REMARK    8  A    between atoms: C_25  and  N_26
REMARK    9  A    between atoms: C_30  and  C_32
REMARK   10  A    between atoms: N_33  and  O_34
REMARK   11  A    between atoms: N_36  and  O_37
REMARK                            x       y       z     vdW  Elec       q    Type
REMARK                         _______ _______ _______ _____ _____    ______ ____
ROOT
ATOM      1  C   UNL     1      -2.813  -3.573   0.287  0.00  0.00    +0.053 C 
ATOM      2  C   UNL     1      -2.330  -4.141  -1.049  0.00  0.00    +0.011 C 
ATOM      3  C   UNL     1      -3.030  -3.410  -2.197  0.00  0.00    +0.004 C 
ATOM      4  C   UNL     1      -4.543  -3.604  -2.077  0.00  0.00    -0.008 C 
ATOM      5  C   UNL     1      -5.026  -3.036  -0.741  0.00  0.00    +0.004 C 
ATOM      6  C   UNL     1      -4.326  -3.767   0.407  0.00  0.00    +0.011 C 
ENDROOT
BRANCH   4   7
ATOM      7  C   UNL     1      -5.243  -2.873  -3.225  0.00  0.00    -0.008 C 
ATOM      8  C   UNL     1      -6.756  -3.067  -3.105  0.00  0.00    +0.004 C 
ATOM      9  C   UNL     1      -7.456  -2.336  -4.253  0.00  0.00    +0.011 C 
ATOM     10  C   UNL     1      -6.973  -2.904  -5.589  0.00  0.00    +0.057 C 
ATOM     11  C   UNL     1      -5.460  -2.710  -5.708  0.00  0.00    +0.011 C 
ATOM     12  C   UNL     1      -4.760  -3.441  -4.561  0.00  0.00    +0.004 C 
BRANCH  10  13
ATOM     13  C   UNL     1      -7.299  -4.374  -5.657  0.00  0.00    +0.153 C 
ATOM     14  O   UNL     1      -7.612  -4.970  -4.654  0.00  0.00    -0.295 OA
BRANCH  13  15
ATOM     15  C   UNL     1      -7.232  -5.100  -6.976  0.00  0.00    +0.179 C 
BRANCH  15  16
ATOM     16  N   UNL     1      -7.590  -6.507  -6.777  0.00  0.00    -0.324 N 
ATOM     17  C   UNL     1      -6.560  -7.502  -6.455  0.00  0.00    +0.132 C 
ATOM     18  C   UNL     1      -6.780  -8.733  -7.298  0.00  0.00    -0.008 C 
ATOM     19  C   UNL     1      -8.004  -9.046  -7.709  0.00  0.00    +0.008 C 
ATOM     20  C   UNL     1      -9.144  -8.180  -7.345  0.00  0.00    +0.010 C 
ATOM     21  C   UNL     1      -8.899  -6.918  -6.883  0.00  0.00    +0.080 C 
BRANCH  20  22
ATOM     22  C   UNL     1     -10.524  -8.670  -7.475  0.00  0.00    +0.162 C 
ATOM     23  N   UNL     1     -10.747  -9.871  -7.912  0.00  0.00    -0.095 NA
BRANCH  23  24
ATOM     24  O   UNL     1     -12.076 -10.343  -8.037  0.00  0.00    -0.409 OA
ATOM     25  H   UNL     1     -12.143 -11.248  -8.370  0.00  0.00    +0.328 HD
ENDBRANCH  23  24
ENDBRANCH  20  22
ENDBRANCH  15  16
ENDBRANCH  13  15
ENDBRANCH  10  13
ENDBRANCH   4   7
BRANCH   1  26
ATOM     26  C   UNL     1      -2.488  -2.103   0.355  0.00  0.00    +0.120 C 
ATOM     27  O   UNL     1      -3.365  -1.284   0.222  0.00  0.00    -0.299 OA
BRANCH  26  28
ATOM     28  C   UNL     1      -1.068  -1.656   0.589  0.00  0.00    -0.003 C 
BRANCH  28  33
ATOM     29  C   UNL     1      -1.798   1.840   1.745  0.00  0.00    -0.018 C 
ATOM     30  C   UNL     1      -0.360   2.360   1.826  0.00  0.00    +0.005 C 
ATOM     31  C   UNL     1       0.450   1.776   0.665  0.00  0.00    +0.017 C 
ATOM     32  C   UNL     1       0.383   0.248   0.722  0.00  0.00    -0.069 C 
ATOM     33  N   UNL     1      -1.015  -0.188   0.613  0.00  0.00    +0.385 N 
ATOM     34  C   UNL     1      -1.782   0.310   1.761  0.00  0.00    -0.078 C 
ATOM     35  H   UNL     1      -1.414   0.175  -0.239  0.00  0.00    -0.081 HD
BRANCH  31  36
ATOM     36  C   UNL     1       1.885   2.221   0.779  0.00  0.00    +0.127 C 
ATOM     37  N   UNL     1       2.420   2.903  -0.163  0.00  0.00    -0.100 NA
BRANCH  37  38
ATOM     38  O   UNL     1       3.768   3.322  -0.056  0.00  0.00    -0.409 OA
ATOM     39  H   UNL     1       4.083   3.831  -0.816  0.00  0.00    +0.328 HD
ENDBRANCH  37  38
ENDBRANCH  31  36
ENDBRANCH  28  33
ENDBRANCH  26  28
ENDBRANCH   1  26
TORSDOF 11
