REMARK  Name = ZINC12610509
REMARK  7 active torsions:
REMARK  status: ('A' for Active; 'I' for Inactive)
REMARK    1  A    between atoms: C_4  and  C_7
REMARK    2  A    between atoms: C_7  and  N_8
REMARK    3  A    between atoms: N_8  and  S_9
REMARK    4  A    between atoms: S_9  and  C_12
REMARK    5  A    between atoms: C_16  and  C_18
REMARK    6  A    between atoms: N_20  and  N_21
REMARK    7  A    between atoms: C_22  and  C_24
REMARK                            x       y       z     vdW  Elec       q    Type
REMARK                         _______ _______ _______ _____ _____    ______ ____
ROOT
ATOM      1  C   UNL     1      -0.070   5.323   0.032  0.00  0.00    +0.260 C 
ATOM      2  O   UNL     1      -1.131   5.916   0.045  0.00  0.00    -0.269 OA
ATOM      3  N   UNL     1       1.088   6.013   0.025  0.00  0.00    -0.230 N 
ATOM      4  H   UNL     1       1.934   5.539   0.014  0.00  0.00    +0.173 HD
ENDROOT
BRANCH   1   9
ATOM      5  C   UNL     1      -1.222   1.748   0.017  0.00  0.00    +0.106 A 
ATOM      6  C   UNL     1      -0.013   1.076   0.008  0.00  0.00    +0.028 A 
ATOM      7  C   UNL     1       1.178   1.781   0.000  0.00  0.00    +0.003 A 
ATOM      8  C   UNL     1       1.166   3.160   0.008  0.00  0.00    +0.013 A 
ATOM      9  C   UNL     1      -0.050   3.845   0.023  0.00  0.00    +0.040 A 
ATOM     10  C   UNL     1      -1.248   3.127   0.031  0.00  0.00    +0.041 A 
BRANCH   5  11
ATOM     11  S   UNL     1      -2.732   0.841   0.020  0.00  0.00    +0.059 S 
ATOM     12  O   UNL     1      -3.724   1.702  -0.522  0.00  0.00    -0.153 OA
ATOM     13  O   UNL     1      -2.442  -0.433  -0.539  0.00  0.00    -0.153 OA
BRANCH  11  14
ATOM     14  N   UNL     1      -3.144   0.580   1.602  0.00  0.00    -0.186 NA
ATOM     15  H   UNL     1      -3.164  -0.323   1.956  0.00  0.00    +0.148 HD
BRANCH  14  16
ATOM     16  C   UNL     1      -3.479   1.713   2.468  0.00  0.00    +0.141 C 
BRANCH  16  20
ATOM     17  C   UNL     1      -5.411   0.285   6.000  0.00  0.00    +0.000 A 
ATOM     18  C   UNL     1      -4.035   0.416   5.970  0.00  0.00    +0.000 A 
ATOM     19  C   UNL     1      -3.410   0.878   4.827  0.00  0.00    +0.005 A 
ATOM     20  C   UNL     1      -4.161   1.209   3.714  0.00  0.00    -0.032 A 
ATOM     21  C   UNL     1      -5.537   1.083   3.746  0.00  0.00    +0.005 A 
ATOM     22  C   UNL     1      -6.162   0.616   4.887  0.00  0.00    +0.000 A 
ENDBRANCH  16  20
ENDBRANCH  14  16
ENDBRANCH  11  14
ENDBRANCH   5  11
ENDBRANCH   1   9
BRANCH   3  23
ATOM     23  N   UNL     1       1.069   7.414   0.033  0.00  0.00    -0.230 N 
ATOM     24  C   UNL     1       2.227   8.103   0.026  0.00  0.00    +0.261 C 
ATOM     25  O   UNL     1       3.288   7.510   0.013  0.00  0.00    -0.269 OA
ATOM     26  H   UNL     1       0.222   7.887   0.044  0.00  0.00    +0.173 HD
BRANCH  24  27
ATOM     27  C   UNL     1       2.207   9.578   0.035  0.00  0.00    +0.046 A 
ATOM     28  C   UNL     1       1.002  10.273   0.044  0.00  0.00    +0.014 A 
ATOM     29  C   UNL     1       0.955  11.664   0.059  0.00  0.00    +0.005 A 
ATOM     30  C   UNL     1       2.105  12.398   0.053  0.00  0.00    -0.039 A 
ATOM     31  C   UNL     1       3.321  11.721   0.037  0.00  0.00    -0.011 A 
ATOM     32  C   UNL     1       3.414  10.319   0.028  0.00  0.00    -0.005 A 
ATOM     33  C   UNL     1       4.691   9.745   0.012  0.00  0.00    +0.009 A 
ATOM     34  C   UNL     1       5.783  10.566   0.006  0.00  0.00    +0.001 A 
ATOM     35  C   UNL     1       5.669  11.957   0.015  0.00  0.00    +0.004 A 
ATOM     36  C   UNL     1       4.442  12.546   0.031  0.00  0.00    -0.039 A 
ATOM     37  C   UNL     1       3.952  13.974   0.045  0.00  0.00    +0.040 C 
ATOM     38  C   UNL     1       2.412  13.877   0.059  0.00  0.00    +0.040 C 
ENDBRANCH  24  27
ENDBRANCH   3  23
TORSDOF 7
