REMARK  Name = ZINC38602071
REMARK  10 active torsions:
REMARK  status: ('A' for Active; 'I' for Inactive)
REMARK    1  A    between atoms: C_1  and  C_2
REMARK    2  A    between atoms: C_2  and  C_4
REMARK    3  A    between atoms: C_2  and  N_24
REMARK    4  A    between atoms: C_4  and  C_6
REMARK    5  A    between atoms: C_4  and  N_11
REMARK    6  A    between atoms: N_14  and  C_17
REMARK    7  A    between atoms: C_17  and  C_18
REMARK    8  A    between atoms: N_24  and  S_25
REMARK    9  A    between atoms: S_25  and  C_28
REMARK   10  A    between atoms: C_28  and  C_29
REMARK                            x       y       z     vdW  Elec       q    Type
REMARK                         _______ _______ _______ _____ _____    ______ ____
ROOT
ATOM      1  C   UNL     1       0.742  -0.511   1.242  0.00  0.00    +0.112 C 
ENDROOT
BRANCH   1   2
ATOM      2  N   UNL     1       2.080   0.093   1.294  0.00  0.00    -0.297 NA
ATOM      3  C   UNL     1       2.832  -0.185   0.062  0.00  0.00    +0.066 C 
ATOM      4  C   UNL     1       4.194   0.509   0.132  0.00  0.00    -0.063 C 
ATOM      5  N   UNL     1       4.936   0.017   1.300  0.00  0.00    +0.384 N 
ATOM      6  C   UNL     1       4.184   0.324   2.524  0.00  0.00    -0.063 C 
ATOM      7  C   UNL     1       2.822  -0.372   2.474  0.00  0.00    +0.066 C 
ATOM      8  H   UNL     1       5.060  -0.982   1.223  0.00  0.00    -0.081 HD
BRANCH   5   9
ATOM      9  C   UNL     1       6.250   0.670   1.356  0.00  0.00    -0.043 C 
BRANCH   9  10
ATOM     10  C   UNL     1       7.058   0.077   2.481  0.00  0.00    -0.064 A 
ATOM     11  C   UNL     1       6.984   0.624   3.749  0.00  0.00    +0.002 A 
ATOM     12  C   UNL     1       7.725   0.080   4.781  0.00  0.00    +0.000 A 
ATOM     13  C   UNL     1       8.540  -1.011   4.546  0.00  0.00    +0.000 A 
ATOM     14  C   UNL     1       8.614  -1.559   3.279  0.00  0.00    +0.000 A 
ATOM     15  C   UNL     1       7.870  -1.018   2.248  0.00  0.00    +0.002 A 
ENDBRANCH   9  10
ENDBRANCH   5   9
ENDBRANCH   1   2
BRANCH   1  16
ATOM     16  C   UNL     1      -0.030  -0.130   2.478  0.00  0.00    +0.008 A 
ATOM     17  C   UNL     1      -0.860  -0.888   3.234  0.00  0.00    +0.013 A 
ATOM     18  C   UNL     1      -1.467  -0.321   4.339  0.00  0.00    +0.008 A 
ATOM     19  C   UNL     1      -1.214   0.977   4.634  0.00  0.00    +0.045 A 
ATOM     20  S   UNL     1      -0.082   1.437   3.333  0.00  0.00    -0.100 S 
ENDBRANCH   1  16
BRANCH   1  22
ATOM     21  C   UNL     1      -0.019   1.526   0.010  0.00  0.00    +0.027 C 
ATOM     22  C   UNL     1       0.002  -0.004   0.002  0.00  0.00    +0.095 C 
BRANCH  22  23
ATOM     23  N   UNL     1      -1.372  -0.511   0.012  0.00  0.00    -0.190 NA
ATOM     24  H   UNL     1      -1.845  -0.615   0.853  0.00  0.00    +0.148 HD
BRANCH  23  25
ATOM     25  S   UNL     1      -2.119  -0.907  -1.411  0.00  0.00    +0.034 S 
ATOM     26  O   UNL     1      -3.422  -1.330  -1.032  0.00  0.00    -0.158 OA
ATOM     27  O   UNL     1      -1.941   0.231  -2.243  0.00  0.00    -0.158 OA
BRANCH  25  28
ATOM     28  C   UNL     1      -1.171  -2.311  -2.061  0.00  0.00    +0.221 C 
BRANCH  28  29
ATOM     29  C   UNL     1      -1.769  -2.759  -3.369  0.00  0.00    -0.007 A 
ATOM     30  C   UNL     1      -2.766  -3.717  -3.382  0.00  0.00    +0.007 A 
ATOM     31  C   UNL     1      -3.314  -4.128  -4.582  0.00  0.00    +0.000 A 
ATOM     32  C   UNL     1      -2.868  -3.581  -5.771  0.00  0.00    +0.001 A 
ATOM     33  C   UNL     1      -1.871  -2.623  -5.759  0.00  0.00    +0.020 A 
ATOM     34  C   UNL     1      -1.326  -2.207  -4.558  0.00  0.00    +0.046 A 
ATOM     35 CL   UNL     1      -0.079  -0.999  -4.542  0.00  0.00    -0.083 Cl
ENDBRANCH  28  29
ENDBRANCH  25  28
ENDBRANCH  23  25
ENDBRANCH  22  23
ENDBRANCH   1  22
TORSDOF 9
