REMARK  Name = ZINC64340222
REMARK  10 active torsions:
REMARK  status: ('A' for Active; 'I' for Inactive)
REMARK    1  A    between atoms: C_1  and  O_2
REMARK    2  A    between atoms: O_2  and  C_3
REMARK    3  A    between atoms: C_3  and  C_5
REMARK    4  A    between atoms: C_5  and  C_7
REMARK    5  A    between atoms: C_5  and  N_17
REMARK    6  A    between atoms: C_7  and  C_8
REMARK    7  A    between atoms: C_18  and  C_20
REMARK    8  A    between atoms: C_20  and  C_22
REMARK    9  A    between atoms: C_20  and  N_29
REMARK   10  A    between atoms: C_22  and  C_23
REMARK                            x       y       z     vdW  Elec       q    Type
REMARK                         _______ _______ _______ _____ _____    ______ ____
ROOT
ATOM      1  N   UNL     1       1.354  -2.503  -2.345  0.00  0.00    -0.301 N 
ATOM      2  C   UNL     1       2.700  -2.578  -2.362  0.00  0.00    +0.234 C 
ATOM      3  O   UNL     1       3.334  -2.315  -1.362  0.00  0.00    -0.274 OA
ATOM      4  H   UNL     1       0.847  -2.713  -3.145  0.00  0.00    +0.150 HD
ENDROOT
BRANCH   1   5
ATOM      5  C   UNL     1       0.657  -2.104  -1.120  0.00  0.00    +0.186 C 
BRANCH   5   6
ATOM      6  C   UNL     1       0.598  -0.600  -1.043  0.00  0.00    +0.328 C 
ATOM      7  O   UNL     1       1.088   0.070  -1.921  0.00  0.00    -0.249 OA
BRANCH   6   9
ATOM      8  C   UNL     1      -0.017   1.425   0.010  0.00  0.00    +0.280 C 
ATOM      9  O   UNL     1       0.002  -0.004   0.002  0.00  0.00    -0.467 OA
ENDBRANCH   6   9
ENDBRANCH   5   6
BRANCH   5  10
ATOM     10  C   UNL     1      -0.764  -2.670  -1.133  0.00  0.00    +0.067 C 
BRANCH  10  11
ATOM     11  C   UNL     1      -0.705  -4.175  -1.086  0.00  0.00    -0.039 C 
ATOM     12  C   UNL     1      -0.796  -4.958   0.013  0.00  0.00    -0.001 A 
ATOM     13  C   UNL     1      -0.970  -4.655   1.438  0.00  0.00    +0.010 A 
ATOM     14  C   UNL     1      -1.026  -5.676   2.324  0.00  0.00    +0.001 A 
ATOM     15  C   UNL     1      -0.923  -7.013   1.915  0.00  0.00    +0.002 A 
ATOM     16  C   UNL     1      -0.763  -7.370   0.623  0.00  0.00    +0.026 A 
ATOM     17  C   UNL     1      -0.691  -6.378  -0.393  0.00  0.00    +0.043 A 
ATOM     18  N   UNL     1      -0.540  -6.469  -1.692  0.00  0.00    -0.380 N 
ATOM     19  C   UNL     1      -0.539  -5.115  -2.259  0.00  0.00    +0.144 C 
ATOM     20  H   UNL     1      -0.449  -7.293  -2.195  0.00  0.00    +0.160 HD
ENDBRANCH  10  11
ENDBRANCH   5  10
ENDBRANCH   1   5
BRANCH   2  21
ATOM     21  C   UNL     1       3.416  -2.989  -3.622  0.00  0.00    +0.165 C 
BRANCH  21  22
ATOM     22  N   UNL     1       4.764  -3.454  -3.288  0.00  0.00    -0.288 N 
ATOM     23  C   UNL     1       5.632  -2.622  -2.677  0.00  0.00    +0.298 C 
ATOM     24  O   UNL     1       5.295  -1.487  -2.403  0.00  0.00    -0.253 OA
ATOM     25  N   UNL     1       6.872  -3.050  -2.370  0.00  0.00    -0.313 N 
ATOM     26  H   UNL     1       5.033  -4.359  -3.507  0.00  0.00    +0.151 HD
ATOM     27  H   UNL     1       7.141  -3.956  -2.589  0.00  0.00    +0.146 HD
ATOM     28  H   UNL     1       7.496  -2.452  -1.930  0.00  0.00    +0.146 HD
ENDBRANCH  21  22
BRANCH  21  29
ATOM     29  C   UNL     1       3.509  -1.790  -4.569  0.00  0.00    +0.067 C 
BRANCH  29  30
ATOM     30  C   UNL     1       4.115  -2.230  -5.877  0.00  0.00    -0.045 A 
ATOM     31  C   UNL     1       5.485  -2.189  -6.053  0.00  0.00    +0.004 A 
ATOM     32  C   UNL     1       6.041  -2.592  -7.253  0.00  0.00    +0.000 A 
ATOM     33  C   UNL     1       5.226  -3.037  -8.277  0.00  0.00    +0.000 A 
ATOM     34  C   UNL     1       3.855  -3.079  -8.101  0.00  0.00    +0.000 A 
ATOM     35  C   UNL     1       3.300  -2.680  -6.899  0.00  0.00    +0.004 A 
ENDBRANCH  29  30
ENDBRANCH  21  29
ENDBRANCH   2  21
TORSDOF 9
