REMARK  Name = ZINC18195828
REMARK  7 active torsions:
REMARK  status: ('A' for Active; 'I' for Inactive)
REMARK    1  A    between atoms: C_1  and  C_2
REMARK    2  A    between atoms: C_2  and  C_29
REMARK    3  A    between atoms: C_6  and  C_16
REMARK    4  A    between atoms: C_13  and  O_14
REMARK    5  A    between atoms: C_18  and  O_24
REMARK    6  A    between atoms: C_19  and  O_23
REMARK    7  A    between atoms: O_24  and  C_25
REMARK                            x       y       z     vdW  Elec       q    Type
REMARK                         _______ _______ _______ _____ _____    ______ ____
ROOT
ATOM      1  C   UNL     1       4.226   4.002  -2.938  0.00  0.00    +0.011 C 
ATOM      2  C   UNL     1       4.716   4.644  -1.639  0.00  0.00    -0.023 C 
ATOM      3  C   UNL     1       3.574   4.685  -0.622  0.00  0.00    +0.058 C 
ATOM      4  C   UNL     1       3.113   3.278  -0.316  0.00  0.00    +0.017 C 
ATOM      5  C   UNL     1       3.982   2.244  -0.348  0.00  0.00    +0.024 C 
ATOM      6  C   UNL     1       3.569   0.826  -0.018  0.00  0.00    +0.092 C 
ATOM      7  C   UNL     1       2.071   0.724  -0.010  0.00  0.00    +0.067 A 
ATOM      8  C   UNL     1       1.260   1.828  -0.000  0.00  0.00    +0.126 A 
ATOM      9  N   UNL     1      -0.017   1.400   0.010  0.00  0.00    -0.260 N 
ATOM     10  H   UNL     1      -0.833   1.979   0.021  0.00  0.00    +0.190 HD
ATOM     11  N   UNL     1       0.002  -0.004   0.002  0.00  0.00    -0.134 NA
ATOM     12  C   UNL     1       1.255  -0.404  -0.010  0.00  0.00    +0.237 A 
ATOM     13  N   UNL     1       1.787   3.114  -0.004  0.00  0.00    -0.303 N 
ATOM     14  C   UNL     1       5.330   2.446  -0.695  0.00  0.00    +0.162 C 
ATOM     15  O   UNL     1       6.087   1.495  -0.710  0.00  0.00    -0.292 OA
ATOM     16  C   UNL     1       5.857   3.808  -1.048  0.00  0.00    +0.086 C 
ATOM     17  C   UNL     1       5.208   6.065  -1.919  0.00  0.00    +0.011 C 
ATOM     18  H   UNL     1       1.229   3.879   0.208  0.00  0.00    +0.153 HD
ENDROOT
BRANCH   6  19
ATOM     19  C   UNL     1       4.104   0.451   1.340  0.00  0.00    -0.031 A 
ATOM     20  C   UNL     1       4.970  -0.620   1.469  0.00  0.00    +0.054 A 
ATOM     21  C   UNL     1       5.467  -0.962   2.716  0.00  0.00    +0.163 A 
ATOM     22  C   UNL     1       5.085  -0.233   3.839  0.00  0.00    +0.172 A 
ATOM     23  C   UNL     1       4.213   0.835   3.703  0.00  0.00    +0.059 A 
ATOM     24  C   UNL     1       3.725   1.176   2.454  0.00  0.00    +0.022 A 
ATOM     25  I   UNL     1       3.634   1.935   5.389  0.00  0.00    -0.040 I 
BRANCH  22  26
ATOM     26  O   UNL     1       5.565  -0.569   5.066  0.00  0.00    -0.503 OA
ATOM     27  H   UNL     1       5.019  -1.211   5.540  0.00  0.00    +0.292 HD
ENDBRANCH  22  26
BRANCH  21  28
ATOM     28  O   UNL     1       6.322  -2.011   2.844  0.00  0.00    -0.491 OA
ATOM     29  C   UNL     1       6.671  -2.713   1.649  0.00  0.00    +0.277 C 
ENDBRANCH  21  28
ENDBRANCH   6  19
BRANCH  12  30
ATOM     30  O   UNL     1       1.680  -1.695  -0.020  0.00  0.00    -0.491 OA
ATOM     31  H   UNL     1       0.888  -2.307  -0.017  0.00  0.00    +0.294 HD
ENDBRANCH  12  30
TORSDOF 4
