REMARK  Name = ZINC64622288
REMARK  3 active torsions:
REMARK  status: ('A' for Active; 'I' for Inactive)
REMARK    1  A    between atoms: C_8  and  C_30
REMARK    2  A    between atoms: C_16  and  C_18
REMARK    3  A    between atoms: C_22  and  N_24
REMARK                            x       y       z     vdW  Elec       q    Type
REMARK                         _______ _______ _______ _____ _____    ______ ____
ROOT
ATOM      1  C   UNL     1      -0.243   1.056   2.960  0.00  0.00    +0.001 A 
ATOM      2  C   UNL     1       0.723   1.941   2.464  0.00  0.00    +0.002 A 
ATOM      3  C   UNL     1       1.820   1.522   1.797  0.00  0.00    +0.026 A 
ATOM      4  C   UNL     1       2.040   0.137   1.570  0.00  0.00    +0.043 A 
ATOM      5  N   UNL     1       3.021  -0.506   0.977  0.00  0.00    -0.376 N 
ATOM      6  C   UNL     1       2.698  -1.930   0.960  0.00  0.00    +0.127 C 
ATOM      7  C   UNL     1       3.786  -2.771   1.639  0.00  0.00    +0.106 C 
ATOM      8  N   UNL     1       3.214  -4.093   1.936  0.00  0.00    -0.292 N 
ATOM      9  C   UNL     1       2.041  -4.221   2.808  0.00  0.00    +0.113 C 
ATOM     10  C   UNL     1       0.876  -3.406   2.216  0.00  0.00    +0.052 C 
ATOM     11  C   UNL     1       1.430  -2.067   1.785  0.00  0.00    -0.035 C 
ATOM     12  C   UNL     1       1.036  -0.823   2.091  0.00  0.00    -0.001 A 
ATOM     13  C   UNL     1      -0.130  -0.282   2.802  0.00  0.00    +0.010 A 
ATOM     14  C   UNL     1       3.773  -5.198   1.403  0.00  0.00    +0.247 C 
ATOM     15  O   UNL     1       4.818  -5.114   0.788  0.00  0.00    -0.270 OA
ATOM     16  H   UNL     1       3.824  -0.102   0.613  0.00  0.00    +0.160 HD
ENDROOT
BRANCH  14  17
ATOM     17  C   UNL     1       3.116  -6.512   1.567  0.00  0.00    +0.039 A 
ATOM     18  C   UNL     1       1.722  -6.602   1.569  0.00  0.00    +0.013 A 
ATOM     19  C   UNL     1       1.111  -7.830   1.722  0.00  0.00    +0.003 A 
ATOM     20  C   UNL     1       1.874  -8.973   1.873  0.00  0.00    +0.023 A 
ATOM     21  C   UNL     1       3.261  -8.894   1.873  0.00  0.00    +0.039 A 
ATOM     22  C   UNL     1       3.885  -7.666   1.714  0.00  0.00    +0.036 A 
BRANCH  21  23
ATOM     23  N   UNL     1       4.028 -10.054   2.026  0.00  0.00    -0.254 N 
ATOM     24  C   UNL     1       3.497 -11.396   2.308  0.00  0.00    +0.134 C 
ATOM     25  C   UNL     1       4.755 -12.284   2.376  0.00  0.00    +0.125 C 
ATOM     26  N   UNL     1       5.861 -11.348   2.126  0.00  0.00    -0.297 N 
ATOM     27  C   UNL     1       5.363 -10.120   1.934  0.00  0.00    +0.307 C 
ATOM     28  O   UNL     1       6.060  -9.151   1.702  0.00  0.00    -0.252 OA
ATOM     29  H   UNL     1       6.801 -11.584   2.099  0.00  0.00    +0.150 HD
ENDBRANCH  21  23
ENDBRANCH  14  17
BRANCH   7  30
ATOM     30  C   UNL     1       4.984  -2.923   0.700  0.00  0.00    +0.012 C 
ATOM     31  C   UNL     1       5.722  -1.587   0.594  0.00  0.00    +0.005 C 
ATOM     32  C   UNL     1       6.920  -1.739  -0.345  0.00  0.00    +0.000 C 
ATOM     33  C   UNL     1       6.432  -2.163  -1.732  0.00  0.00    +0.000 C 
ATOM     34  C   UNL     1       5.694  -3.500  -1.625  0.00  0.00    +0.000 C 
ATOM     35  C   UNL     1       4.496  -3.348  -0.686  0.00  0.00    +0.005 C 
ENDBRANCH   7  30
TORSDOF 3
