REMARK  Name = ZINC63000882
REMARK  6 active torsions:
REMARK  status: ('A' for Active; 'I' for Inactive)
REMARK    1  A    between atoms: C_4  and  CA_7
REMARK    2  A    between atoms: CA_7  and  C_9
REMARK    3  A    between atoms: CA_7  and  N_11
REMARK    4  A    between atoms: C_9  and  O_10
REMARK    5  A    between atoms: N_11  and  C_12
REMARK    6  A    between atoms: C_15  and  N_22
REMARK                            x       y       z     vdW  Elec       q    Type
REMARK                         _______ _______ _______ _____ _____    ______ ____
ROOT
ATOM      1  C   UNL     1       4.763  -2.390  -1.526  0.00  0.00    +0.054 A 
ATOM      2  C   UNL     1       5.993  -1.824  -1.270  0.00  0.00    +0.027 A 
ATOM      3  C   UNL     1       7.149  -2.332  -1.853  0.00  0.00    +0.025 A 
ATOM      4  C   UNL     1       7.092  -3.417  -2.702  0.00  0.00    +0.034 A 
ATOM      5  C   UNL     1       5.848  -4.017  -2.983  0.00  0.00    +0.023 A 
ATOM      6  C   UNL     1       4.670  -3.504  -2.386  0.00  0.00    +0.093 A 
ATOM      7  N   UNL     1       3.489  -4.074  -2.646  0.00  0.00    -0.253 NA
ATOM      8  C   UNL     1       3.394  -5.110  -3.444  0.00  0.00    +0.111 A 
ATOM      9  C   UNL     1       4.513  -5.667  -4.058  0.00  0.00    +0.020 A 
ATOM     10  C   UNL     1       5.749  -5.124  -3.844  0.00  0.00    +0.013 A 
ENDROOT
BRANCH   4  11
ATOM     11  N   UNL     1       8.260  -3.917  -3.282  0.00  0.00    -0.357 N 
ATOM     12  H   UNL     1       9.114  -3.502  -3.087  0.00  0.00    +0.142 HD
ATOM     13  H   UNL     1       8.216  -4.680  -3.879  0.00  0.00    +0.142 HD
ENDBRANCH   4  11
BRANCH   1  14
ATOM     14  N   UNL     1       3.611  -1.865  -0.930  0.00  0.00    -0.333 N 
ATOM     15  H   UNL     1       2.747  -2.267  -1.108  0.00  0.00    +0.147 HD
BRANCH  14  16
ATOM     16  CA  UNL     1       3.711  -0.707  -0.038  0.00  0.00    +0.126 C 
BRANCH  16  20
ATOM     17  C   UNL     1      -0.017   1.378   0.010  0.00  0.00    +0.000 A 
ATOM     18  C   UNL     1       1.171   2.086   0.002  0.00  0.00    +0.000 A 
ATOM     19  C   UNL     1       2.377   1.411  -0.013  0.00  0.00    +0.005 A 
ATOM     20  C   UNL     1       2.396   0.029  -0.020  0.00  0.00    -0.025 A 
ATOM     21  C   UNL     1       1.208  -0.679  -0.012  0.00  0.00    +0.005 A 
ATOM     22  C   UNL     1       0.002  -0.004   0.002  0.00  0.00    +0.000 A 
ENDBRANCH  16  20
BRANCH  16  23
ATOM     23  C   UNL     1       4.049  -1.182   1.377  0.00  0.00    +0.182 C 
BRANCH  23  24
ATOM     24  O   UNL     1       2.966  -1.962   1.889  0.00  0.00    -0.393 OA
ATOM     25  H   UNL     1       3.112  -2.297   2.784  0.00  0.00    +0.209 HD
ENDBRANCH  23  24
ENDBRANCH  16  23
ENDBRANCH  14  16
ENDBRANCH   1  14
TORSDOF 6
