REMARK  Name = ZINC13285536
REMARK  8 active torsions:
REMARK  status: ('A' for Active; 'I' for Inactive)
REMARK    1  A    between atoms: C_1  and  C_2
REMARK    2  A    between atoms: C_6  and  C_15
REMARK    3  A    between atoms: C_9  and  O_11
REMARK    4  A    between atoms: O_11  and  C_12
REMARK    5  A    between atoms: C_12  and  C_13
REMARK    6  A    between atoms: C_12  and  C_14
REMARK    7  A    between atoms: C_25  and  C_27
REMARK    8  A    between atoms: C_25  and  C_28
REMARK                            x       y       z     vdW  Elec       q    Type
REMARK                         _______ _______ _______ _____ _____    ______ ____
ROOT
ATOM      1  C   UNL     1       0.018   1.503   0.007  0.00  0.00    +0.066 C 
ATOM      2  C   UNL     1       0.019  -0.004   0.000  0.00  0.00    +0.049 C 
ATOM      3  N   UNL     1      -0.077  -0.634  -1.147  0.00  0.00    -0.256 NA
ATOM      4  C   UNL     1      -0.091  -1.952  -1.310  0.00  0.00    +0.049 C 
ATOM      5  C   UNL     1      -0.000  -2.807  -0.232  0.00  0.00    +0.028 C 
ATOM      6  C   UNL     1       0.119  -2.201   1.153  0.00  0.00    +0.094 C 
ATOM      7  C   UNL     1       0.129  -0.684   1.212  0.00  0.00    +0.069 C 
ATOM      8  C   UNL     1       0.237  -0.009   2.411  0.00  0.00    +0.338 C 
ATOM      9  O   UNL     1       0.459  -0.693   3.550  0.00  0.00    -0.245 OA
ATOM     10  C   UNL     1      -0.019  -4.188  -0.383  0.00  0.00    +0.162 C 
ATOM     11  O   UNL     1       0.067  -4.901   0.598  0.00  0.00    -0.292 OA
ATOM     12  C   UNL     1      -0.146  -4.812  -1.749  0.00  0.00    +0.086 C 
ATOM     13  C   UNL     1      -0.927  -3.861  -2.660  0.00  0.00    -0.023 C 
ATOM     14  C   UNL     1      -0.205  -2.513  -2.708  0.00  0.00    +0.062 C 
ATOM     15  C   UNL     1      -2.340  -3.666  -2.106  0.00  0.00    +0.011 C 
ATOM     16  C   UNL     1      -1.005  -4.451  -4.070  0.00  0.00    +0.011 C 
ENDROOT
BRANCH   6  17
ATOM     17  C   UNL     1       1.400  -2.697   1.774  0.00  0.00    -0.017 A 
ATOM     18  C   UNL     1       2.613  -2.424   1.170  0.00  0.00    +0.006 A 
ATOM     19  C   UNL     1       3.787  -2.879   1.740  0.00  0.00    +0.000 A 
ATOM     20  C   UNL     1       3.749  -3.606   2.915  0.00  0.00    +0.001 A 
ATOM     21  C   UNL     1       2.538  -3.879   3.521  0.00  0.00    +0.020 A 
ATOM     22  C   UNL     1       1.362  -3.419   2.954  0.00  0.00    +0.045 A 
ATOM     23 CL   UNL     1      -0.160  -3.756   3.717  0.00  0.00    -0.083 Cl
ENDBRANCH   6  17
BRANCH   8  24
ATOM     24  O   UNL     1       0.120   1.332   2.441  0.00  0.00    -0.459 OA
BRANCH  24  25
ATOM     25  C   UNL     1       0.242   1.965   3.717  0.00  0.00    +0.171 C 
ATOM     26  C   UNL     1       0.821   3.370   3.536  0.00  0.00    +0.052 C 
ATOM     27  C   UNL     1      -1.137   2.062   4.372  0.00  0.00    +0.052 C 
ENDBRANCH  24  25
ENDBRANCH   8  24
TORSDOF 3
