REMARK  Name = ZINC06885180
REMARK  4 active torsions:
REMARK  status: ('A' for Active; 'I' for Inactive)
REMARK    1  A    between atoms: C_4  and  C_7
REMARK    2  A    between atoms: C_7  and  N_8
REMARK    3  A    between atoms: C_9  and  C_11
REMARK    4  A    between atoms: C_15  and  N_16
REMARK                            x       y       z     vdW  Elec       q    Type
REMARK                         _______ _______ _______ _____ _____    ______ ____
ROOT
ATOM      1  C   UNL     1       5.691  -1.815  -3.071  0.00  0.00    +0.068 A 
ATOM      2  C   UNL     1       6.508  -0.842  -3.787  0.00  0.00    -0.023 A 
ATOM      3  C   UNL     1       6.814  -1.180  -5.056  0.00  0.00    -0.005 A 
ATOM      4  S   UNL     1       6.036  -2.753  -5.310  0.00  0.00    -0.078 S 
ATOM      5  C   UNL     1       5.313  -2.963  -3.751  0.00  0.00    +0.076 A 
ATOM      6  C   UNL     1       7.619  -0.396  -6.045  0.00  0.00    +0.043 C 
ATOM      7  C   UNL     1       8.927   0.058  -5.385  0.00  0.00    +0.005 C 
ATOM      8  C   UNL     1       8.691   1.412  -4.723  0.00  0.00    +0.001 C 
ATOM      9  C   UNL     1       7.257   1.500  -4.205  0.00  0.00    +0.005 C 
ATOM     10  C   UNL     1       7.008   0.442  -3.136  0.00  0.00    +0.037 C 
ENDROOT
BRANCH   1  12
ATOM     11  N   UNL     1       4.124  -0.938  -1.424  0.00  0.00    -0.307 N 
ATOM     12  C   UNL     1       5.278  -1.584  -1.685  0.00  0.00    +0.247 C 
ATOM     13  O   UNL     1       5.977  -1.975  -0.769  0.00  0.00    -0.270 OA
ATOM     14  H   UNL     1       3.567  -0.626  -2.155  0.00  0.00    +0.149 HD
BRANCH  11  15
ATOM     15  C   UNL     1       3.711  -0.707  -0.038  0.00  0.00    +0.139 C 
BRANCH  15  19
ATOM     16  C   UNL     1      -0.017   1.378   0.010  0.00  0.00    +0.000 A 
ATOM     17  C   UNL     1       1.171   2.086   0.002  0.00  0.00    +0.000 A 
ATOM     18  C   UNL     1       2.377   1.411  -0.014  0.00  0.00    +0.005 A 
ATOM     19  C   UNL     1       2.396   0.029  -0.021  0.00  0.00    -0.030 A 
ATOM     20  C   UNL     1       1.208  -0.679  -0.014  0.00  0.00    +0.005 A 
ATOM     21  C   UNL     1       0.002  -0.004   0.002  0.00  0.00    +0.000 A 
ENDBRANCH  15  19
ENDBRANCH  11  15
ENDBRANCH   1  12
BRANCH   5  22
ATOM     22  N   UNL     1       4.547  -4.019  -3.295  0.00  0.00    -0.352 N 
ATOM     23  H   UNL     1       4.199  -4.010  -2.389  0.00  0.00    +0.143 HD
ATOM     24  H   UNL     1       4.356  -4.768  -3.880  0.00  0.00    +0.143 HD
ENDBRANCH   5  22
TORSDOF 4
