REMARK  Name = ZINC15730555
REMARK  8 active torsions:
REMARK  status: ('A' for Active; 'I' for Inactive)
REMARK    1  A    between atoms: C_1  and  C_2
REMARK    2  A    between atoms: C_5  and  N_11
REMARK    3  A    between atoms: C_7  and  N_8
REMARK    4  A    between atoms: N_8  and  C_9
REMARK    5  A    between atoms: N_8  and  C_10
REMARK    6  A    between atoms: N_11  and  S_12
REMARK    7  A    between atoms: S_12  and  C_15
REMARK    8  A    between atoms: C_25  and  C_28
REMARK                            x       y       z     vdW  Elec       q    Type
REMARK                         _______ _______ _______ _____ _____    ______ ____
ROOT
ATOM      1  S   UNL     1       3.580   3.439  -1.029  0.00  0.00    +0.072 S 
ATOM      2  O   UNL     1       4.643   4.359  -0.821  0.00  0.00    -0.150 OA
ATOM      3  O   UNL     1       3.748   2.036  -0.878  0.00  0.00    -0.150 OA
ENDROOT
BRANCH   1   4
ATOM      4  C   UNL     1       2.999   3.704  -2.671  0.00  0.00    +0.110 A 
ATOM      5  C   UNL     1       3.203   4.926  -3.284  0.00  0.00    +0.030 A 
ATOM      6  C   UNL     1       2.750   5.144  -4.573  0.00  0.00    +0.018 A 
ATOM      7  C   UNL     1       2.090   4.130  -5.248  0.00  0.00    +0.029 A 
ATOM      8  C   UNL     1       1.886   2.897  -4.631  0.00  0.00    +0.049 A 
ATOM      9  C   UNL     1       2.345   2.685  -3.342  0.00  0.00    +0.053 A 
ATOM     10  N   UNL     1       1.220   1.879  -5.330  0.00  0.00    -0.284 N 
ATOM     11  C   UNL     1       1.609   1.542  -6.566  0.00  0.00    +0.218 C 
ATOM     12  O   UNL     1       0.911   0.804  -7.229  0.00  0.00    -0.275 OA
ATOM     13  C   UNL     1       2.890   2.062  -7.148  0.00  0.00    +0.110 C 
ATOM     14  C   UNL     1       2.642   3.381  -7.901  0.00  0.00    +0.057 C 
ATOM     15  S   UNL     1       1.498   4.379  -6.890  0.00  0.00    -0.120 S 
ATOM     16  C   UNL     1       2.013   3.091  -9.265  0.00  0.00    +0.020 C 
ATOM     17  H   UNL     1       0.475   1.415  -4.915  0.00  0.00    +0.155 HD
ENDBRANCH   1   4
BRANCH   1  18
ATOM     18  N   UNL     1       2.361   3.883  -0.000  0.00  0.00    -0.216 N 
ATOM     19  H   UNL     1       2.481   4.638   0.597  0.00  0.00    +0.174 HD
BRANCH  18  24
ATOM     20  C   UNL     1      -2.513   0.975   0.019  0.00  0.00    +0.045 C 
ATOM     21  C   UNL     1      -1.219   1.749   0.017  0.00  0.00    -0.029 A 
ATOM     22  C   UNL     1      -0.013   1.076   0.008  0.00  0.00    +0.007 A 
ATOM     23  C   UNL     1       1.175   1.781   0.000  0.00  0.00    +0.025 A 
ATOM     24  C   UNL     1       1.160   3.171   0.008  0.00  0.00    +0.050 A 
ATOM     25  C   UNL     1      -0.050   3.850   0.023  0.00  0.00    +0.047 A 
ATOM     26  C   UNL     1      -1.242   3.138   0.031  0.00  0.00    +0.034 A 
BRANCH  26  27
ATOM     27  N   UNL     1      -2.462   3.817   0.046  0.00  0.00    -0.336 N 
ATOM     28  C   UNL     1      -2.577   4.666   1.240  0.00  0.00    +0.129 C 
ATOM     29  C   UNL     1      -2.641   4.606  -1.180  0.00  0.00    +0.129 C 
ENDBRANCH  26  27
ENDBRANCH  18  24
ENDBRANCH   1  18
TORSDOF 4
