REMARK  Name = ZINC23940764
REMARK  8 active torsions:
REMARK  status: ('A' for Active; 'I' for Inactive)
REMARK    1  A    between atoms: C_5  and  C_7
REMARK    2  A    between atoms: C_10  and  S_13
REMARK    3  A    between atoms: N_11  and  N_12
REMARK    4  A    between atoms: S_13  and  C_14
REMARK    5  A    between atoms: C_14  and  C_15
REMARK    6  A    between atoms: C_15  and  C_16
REMARK    7  A    between atoms: C_16  and  O_17
REMARK    8  A    between atoms: O_17  and  C_18
REMARK                            x       y       z     vdW  Elec       q    Type
REMARK                         _______ _______ _______ _____ _____    ______ ____
ROOT
ATOM      1  C   UNL     1       0.119  -0.840   1.089  0.00  0.00    +0.183 A 
ATOM      2  N   UNL     1       0.143  -2.069   0.627  0.00  0.00    -0.127 NA
ATOM      3  N   UNL     1       0.001  -2.061  -0.650  0.00  0.00    -0.121 NA
ATOM      4  C   UNL     1      -0.128  -0.826  -1.082  0.00  0.00    +0.209 A 
ATOM      5  N   UNL     1      -0.051  -0.006   0.007  0.00  0.00    -0.224 N 
ENDROOT
BRANCH   1  10
ATOM      6  C   UNL     1      -0.512   0.876   4.369  0.00  0.00    +0.001 A 
ATOM      7  C   UNL     1       0.495   0.339   5.152  0.00  0.00    +0.001 A 
ATOM      8  C   UNL     1       1.381  -0.579   4.618  0.00  0.00    +0.016 A 
ATOM      9  C   UNL     1       1.261  -0.971   3.300  0.00  0.00    +0.029 A 
ATOM     10  C   UNL     1       0.250  -0.429   2.503  0.00  0.00    +0.035 A 
ATOM     11  C   UNL     1      -0.639   0.497   3.049  0.00  0.00    +0.013 A 
ATOM     12 BR   UNL     1       2.467  -2.233   2.572  0.00  0.00    -0.050 Br
ENDBRANCH   1  10
BRANCH   5  13
ATOM     13  N   UNL     1      -0.133   1.357   0.022  0.00  0.00    -0.295 N 
ATOM     14  H   UNL     1      -0.271   1.910  -0.919  0.00  0.00    +0.163 HD
ATOM     15  H   UNL     1      -0.061   1.903   0.974  0.00  0.00    +0.163 HD
ENDBRANCH   5  13
BRANCH   4  16
ATOM     16  S   UNL     1      -0.353  -0.323  -2.755  0.00  0.00    -0.084 S 
BRANCH  16  17
ATOM     17  C   UNL     1      -0.349  -1.938  -3.573  0.00  0.00    +0.081 C 
BRANCH  17  18
ATOM     18  C   UNL     1      -0.536  -1.747  -5.079  0.00  0.00    +0.052 C 
BRANCH  18  19
ATOM     19  C   UNL     1      -0.533  -3.112  -5.770  0.00  0.00    +0.230 C 
BRANCH  19  20
ATOM     20  O   UNL     1      -0.708  -2.935  -7.177  0.00  0.00    -0.492 OA
BRANCH  20  21
ATOM     21  C   UNL     1      -0.728  -4.057  -7.943  0.00  0.00    +0.121 A 
ATOM     22  C   UNL     1      -0.578  -5.303  -7.353  0.00  0.00    +0.048 A 
ATOM     23  C   UNL     1      -0.605  -6.444  -8.132  0.00  0.00    +0.042 A 
ATOM     24  C   UNL     1      -0.770  -6.343  -9.503  0.00  0.00    +0.124 A 
ATOM     25  C   UNL     1      -0.915  -5.099 -10.094  0.00  0.00    +0.042 A 
ATOM     26  C   UNL     1      -0.894  -3.958  -9.317  0.00  0.00    +0.048 A 
ATOM     27  F   UNL     1      -0.792  -7.459 -10.264  0.00  0.00    -0.205 F 
ENDBRANCH  20  21
ENDBRANCH  19  20
ENDBRANCH  18  19
ENDBRANCH  17  18
ENDBRANCH  16  17
ENDBRANCH   4  16
TORSDOF 8
