REMARK  Name = ZINC39688425
REMARK  7 active torsions:
REMARK  status: ('A' for Active; 'I' for Inactive)
REMARK    1  A    between atoms: C_1  and  C_2
REMARK    2  A    between atoms: C_2  and  C_4
REMARK    3  A    between atoms: C_2  and  N_12
REMARK    4  A    between atoms: C_4  and  C_5
REMARK    5  A    between atoms: C_13  and  C_15
REMARK    6  A    between atoms: C_26  and  C_28
REMARK    7  A    between atoms: C_34  and  C_36
REMARK                            x       y       z     vdW  Elec       q    Type
REMARK                         _______ _______ _______ _____ _____    ______ ____
ROOT
ATOM      1  C   UNL     1       0.712  -1.094  -3.598  0.00  0.00    +0.100 C 
ATOM      2  C   UNL     1       1.342  -2.483  -3.349  0.00  0.00    +0.121 C 
ATOM      3  N   UNL     1       0.333  -3.447  -3.848  0.00  0.00    -0.299 N 
ATOM      4  C   UNL     1      -0.202  -2.817  -5.079  0.00  0.00    +0.115 C 
ATOM      5  C   UNL     1      -0.298  -1.317  -4.737  0.00  0.00    -0.004 C 
ATOM      6  C   UNL     1       0.078  -0.473  -5.950  0.00  0.00    -0.010 C 
ATOM      7  C   UNL     1      -0.973  -0.667  -7.047  0.00  0.00    -0.082 C 
ATOM      8  N   UNL     1      -2.291  -0.269  -6.540  0.00  0.00    +0.379 N 
ATOM      9  C   UNL     1      -2.687  -1.147  -5.431  0.00  0.00    -0.082 C 
ATOM     10  C   UNL     1      -1.709  -0.973  -4.266  0.00  0.00    -0.010 C 
ATOM     11  C   UNL     1      -0.019  -4.629  -3.304  0.00  0.00    +0.236 C 
ATOM     12  O   UNL     1      -0.870  -5.311  -3.836  0.00  0.00    -0.274 OA
ATOM     13  H   UNL     1      -2.251   0.685  -6.214  0.00  0.00    -0.086 HD
ATOM     14  H   UNL     1      -2.971  -0.340  -7.282  0.00  0.00    -0.086 HD
ENDROOT
BRANCH  11  15
ATOM     15  C   UNL     1       0.644  -5.103  -2.037  0.00  0.00    +0.162 C 
ATOM     16  C   UNL     1       2.020  -5.721  -2.365  0.00  0.00    +0.033 C 
ATOM     17  C   UNL     1       2.099  -6.927  -1.392  0.00  0.00    +0.021 C 
ATOM     18  C   UNL     1       0.624  -7.397  -1.358  0.00  0.00    +0.109 C 
ATOM     19  N   UNL     1      -0.171  -6.153  -1.409  0.00  0.00    -0.283 N 
ATOM     20  C   UNL     1      -1.432  -6.003  -0.956  0.00  0.00    +0.320 C 
ATOM     21  O   UNL     1      -1.987  -4.929  -1.052  0.00  0.00    -0.266 OA
BRANCH  20  22
ATOM     22  C   UNL     1      -2.152  -7.170  -0.331  0.00  0.00    +0.470 C 
ATOM     23  F   UNL     1      -3.435  -6.772   0.059  0.00  0.00    -0.162 F 
ATOM     24  F   UNL     1      -2.248  -8.211  -1.260  0.00  0.00    -0.162 F 
ATOM     25  F   UNL     1      -1.440  -7.610   0.790  0.00  0.00    -0.162 F 
ENDBRANCH  20  22
ENDBRANCH  11  15
BRANCH   1  27
ATOM     26  N   UNL     1      -0.108   0.714  -2.123  0.00  0.00    -0.312 N 
ATOM     27  C   UNL     1       0.006  -0.608  -2.358  0.00  0.00    +0.218 C 
ATOM     28  O   UNL     1      -0.459  -1.407  -1.573  0.00  0.00    -0.275 OA
ATOM     29  H   UNL     1       0.264   1.353  -2.751  0.00  0.00    +0.149 HD
BRANCH  26  31
ATOM     30  C   UNL     1      -2.299   1.252  -1.180  0.00  0.00    +0.028 C 
ATOM     31  C   UNL     1      -0.794   1.186  -0.917  0.00  0.00    +0.074 C 
BRANCH  31  32
ATOM     32  C   UNL     1      -0.278   2.579  -0.550  0.00  0.00    +0.057 C 
BRANCH  32  33
ATOM     33  C   UNL     1       1.178   2.493  -0.172  0.00  0.00    -0.045 A 
ATOM     34  C   UNL     1       1.538   2.261   1.142  0.00  0.00    +0.006 A 
ATOM     35  C   UNL     1       2.873   2.181   1.489  0.00  0.00    +0.038 A 
ATOM     36  C   UNL     1       3.850   2.334   0.521  0.00  0.00    +0.123 A 
ATOM     37  C   UNL     1       3.489   2.566  -0.795  0.00  0.00    +0.038 A 
ATOM     38  C   UNL     1       2.153   2.641  -1.142  0.00  0.00    +0.006 A 
ATOM     39  F   UNL     1       5.156   2.256   0.859  0.00  0.00    -0.205 F 
ENDBRANCH  32  33
ENDBRANCH  31  32
ENDBRANCH  26  31
ENDBRANCH   1  27
TORSDOF 6
