REMARK  Name = ZINC20567628
REMARK  4 active torsions:
REMARK  status: ('A' for Active; 'I' for Inactive)
REMARK    1  A    between atoms: C_1  and  C_2
REMARK    2  A    between atoms: C_2  and  N_3
REMARK    3  A    between atoms: C_16  and  C_18
REMARK    4  A    between atoms: N_24  and  C_27
REMARK                            x       y       z     vdW  Elec       q    Type
REMARK                         _______ _______ _______ _____ _____    ______ ____
ROOT
ATOM      1  N   UNL     1       1.254   0.543  -0.060  0.00  0.00    +0.388 N 
ATOM      2  C   UNL     1       0.398   1.479  -0.800  0.00  0.00    -0.073 C 
ATOM      3  C   UNL     1       0.610   1.286  -2.308  0.00  0.00    +0.019 C 
ATOM      4  C   UNL     1       0.494  -0.189  -2.605  0.00  0.00    -0.022 A 
ATOM      5  C   UNL     1       0.314  -0.861  -3.871  0.00  0.00    +0.003 A 
ATOM      6  C   UNL     1       0.194  -0.398  -5.186  0.00  0.00    +0.010 A 
ATOM      7  C   UNL     1       0.029  -1.346  -6.165  0.00  0.00    +0.001 A 
ATOM      8  C   UNL     1      -0.017  -2.700  -5.879  0.00  0.00    +0.002 A 
ATOM      9  C   UNL     1       0.100  -3.187  -4.588  0.00  0.00    +0.026 A 
ATOM     10  C   UNL     1       0.268  -2.248  -3.573  0.00  0.00    +0.047 A 
ATOM     11  N   UNL     1       0.411  -2.379  -2.220  0.00  0.00    -0.359 N 
ATOM     12  H   UNL     1       0.417  -3.220  -1.739  0.00  0.00    +0.166 HD
ATOM     13  C   UNL     1       0.547  -1.143  -1.648  0.00  0.00    +0.011 A 
ATOM     14  C   UNL     1       0.733  -0.828  -0.183  0.00  0.00    +0.021 C 
ATOM     15  H   UNL     1       2.190   0.579  -0.437  0.00  0.00    -0.080 HD
ENDROOT
BRANCH  14  16
ATOM     16  C   UNL     1       1.714  -1.798   0.423  0.00  0.00    +0.074 A 
ATOM     17  C   UNL     1       3.054  -1.818  -0.005  0.00  0.00    +0.260 A 
ATOM     18  N   UNL     1       3.916  -2.693   0.550  0.00  0.00    -0.274 N 
ATOM     19  H   UNL     1       4.840  -2.709   0.257  0.00  0.00    +0.173 HD
ATOM     20  C   UNL     1       3.504  -3.545   1.507  0.00  0.00    +0.337 A 
ATOM     21  O   UNL     1       4.297  -4.326   1.995  0.00  0.00    -0.246 OA
ATOM     22  N   UNL     1       2.227  -3.543   1.932  0.00  0.00    -0.229 N 
ATOM     23  C   UNL     1       1.317  -2.665   1.397  0.00  0.00    +0.267 A 
ATOM     24  O   UNL     1       0.038  -2.662   1.829  0.00  0.00    -0.267 OA
ATOM     25  O   UNL     1       3.433  -1.050  -0.872  0.00  0.00    -0.267 OA
BRANCH  22  26
ATOM     26  C   UNL     1       1.824  -4.442   2.930  0.00  0.00    +0.054 A 
ATOM     27  C   UNL     1       1.905  -4.077   4.267  0.00  0.00    +0.028 A 
ATOM     28  C   UNL     1       1.508  -4.964   5.248  0.00  0.00    +0.022 A 
ATOM     29  C   UNL     1       1.029  -6.215   4.900  0.00  0.00    +0.041 A 
ATOM     30  C   UNL     1       0.948  -6.581   3.568  0.00  0.00    +0.022 A 
ATOM     31  C   UNL     1       1.339  -5.695   2.582  0.00  0.00    +0.028 A 
ATOM     32 CL   UNL     1       0.531  -7.327   6.136  0.00  0.00    -0.084 Cl
ENDBRANCH  22  26
ENDBRANCH  14  16
BRANCH   1  34
ATOM     33  C   UNL     1       1.941   2.301   1.499  0.00  0.00    -0.017 C 
ATOM     34  C   UNL     1       1.285   0.927   1.357  0.00  0.00    -0.081 C 
ENDBRANCH   1  34
TORSDOF 3
