REMARK  Name = ZINC39747539
REMARK  9 active torsions:
REMARK  status: ('A' for Active; 'I' for Inactive)
REMARK    1  A    between atoms: C_1  and  C_2
REMARK    2  A    between atoms: C_5  and  C_37
REMARK    3  A    between atoms: C_6  and  O_8
REMARK    4  A    between atoms: O_8  and  C_9
REMARK    5  A    between atoms: C_9  and  C_10
REMARK    6  A    between atoms: C_14  and  S_23
REMARK    7  A    between atoms: N_16  and  C_17
REMARK    8  A    between atoms: S_23  and  C_24
REMARK    9  A    between atoms: C_24  and  C_25
REMARK                            x       y       z     vdW  Elec       q    Type
REMARK                         _______ _______ _______ _____ _____    ______ ____
ROOT
ATOM      1  C   UNL     1       0.296  -3.283   4.694  0.00  0.00    +0.195 C 
ATOM      2  N   UNL     1       1.304  -4.375   4.649  0.00  0.00    -0.231 NA
ATOM      3  N   UNL     1       0.668  -5.376   3.777  0.00  0.00    -0.226 NA
ATOM      4  C   UNL     1      -0.766  -5.320   4.138  0.00  0.00    +0.217 C 
ATOM      5  N   UNL     1      -1.004  -3.985   4.723  0.00  0.00    -0.285 N 
ATOM      6  H   UNL     1       1.470  -4.751   5.570  0.00  0.00    +0.143 HD
ATOM      7  H   UNL     1       1.048  -6.295   3.946  0.00  0.00    +0.143 HD
ENDROOT
BRANCH   5   8
ATOM      8  C   UNL     1      -2.214  -3.484   5.208  0.00  0.00    +0.033 A 
ATOM      9  C   UNL     1      -2.276  -2.197   5.727  0.00  0.00    +0.023 A 
ATOM     10  C   UNL     1      -3.475  -1.705   6.205  0.00  0.00    +0.002 A 
ATOM     11  C   UNL     1      -4.611  -2.492   6.169  0.00  0.00    +0.000 A 
ATOM     12  C   UNL     1      -4.552  -3.773   5.653  0.00  0.00    +0.002 A 
ATOM     13  C   UNL     1      -3.359  -4.270   5.168  0.00  0.00    +0.023 A 
ENDBRANCH   5   8
BRANCH   1  14
ATOM     14  C   UNL     1       0.402  -2.405   3.445  0.00  0.00    +0.268 C 
BRANCH  14  15
ATOM     15  O   UNL     1       1.603  -1.634   3.506  0.00  0.00    -0.488 OA
BRANCH  15  21
ATOM     16  C   UNL     1       0.093   0.458  -0.637  0.00  0.00    +0.044 C 
ATOM     17  C   UNL     1       1.131   0.264   0.438  0.00  0.00    -0.047 A 
ATOM     18  C   UNL     1       2.328   0.953   0.375  0.00  0.00    +0.004 A 
ATOM     19  C   UNL     1       3.282   0.777   1.360  0.00  0.00    +0.007 A 
ATOM     20  C   UNL     1       3.042  -0.089   2.409  0.00  0.00    -0.009 A 
ATOM     21  C   UNL     1       1.842  -0.782   2.475  0.00  0.00    +0.124 A 
ATOM     22  C   UNL     1       0.883  -0.599   1.488  0.00  0.00    +0.049 A 
ATOM     23  C   UNL     1       4.083  -0.281   3.482  0.00  0.00    +0.047 C 
ENDBRANCH  15  21
ENDBRANCH  14  15
ENDBRANCH   1  14
BRANCH   4  24
ATOM     24  S   UNL     1      -1.789  -5.542   2.657  0.00  0.00    -0.114 S 
BRANCH  24  25
ATOM     25  C   UNL     1      -1.205  -4.251   1.524  0.00  0.00    +0.146 C 
BRANCH  25  26
ATOM     26  C   UNL     1      -1.921  -4.380   0.204  0.00  0.00    +0.120 A 
ATOM     27  N   UNL     1      -1.544  -3.566  -0.816  0.00  0.00    -0.310 N 
ATOM     28  H   UNL     1      -0.830  -2.923  -0.679  0.00  0.00    +0.170 HD
ATOM     29  C   UNL     1      -2.155  -3.642  -2.021  0.00  0.00    +0.259 A 
ATOM     30  O   UNL     1      -1.826  -2.919  -2.944  0.00  0.00    -0.267 OA
ATOM     31  C   UNL     1      -3.230  -4.634  -2.173  0.00  0.00    +0.065 A 
ATOM     32  C   UNL     1      -3.922  -4.792  -3.372  0.00  0.00    +0.015 A 
ATOM     33  C   UNL     1      -4.922  -5.737  -3.458  0.00  0.00    +0.001 A 
ATOM     34  C   UNL     1      -5.243  -6.528  -2.363  0.00  0.00    +0.002 A 
ATOM     35  C   UNL     1      -4.571  -6.386  -1.170  0.00  0.00    +0.028 A 
ATOM     36  C   UNL     1      -3.554  -5.437  -1.057  0.00  0.00    +0.078 A 
ATOM     37  N   UNL     1      -2.863  -5.268   0.098  0.00  0.00    -0.233 NA
ENDBRANCH  25  26
ENDBRANCH  24  25
ENDBRANCH   4  24
TORSDOF 7
