REMARK  Name = ZINC10000264
REMARK  11 active torsions:
REMARK  status: ('A' for Active; 'I' for Inactive)
REMARK    1  A    between atoms: C_1  and  C_2
REMARK    2  A    between atoms: C_2  and  C_3
REMARK    3  A    between atoms: C_2  and  C_4
REMARK    4  A    between atoms: C_4  and  C_6
REMARK    5  A    between atoms: C_4  and  N_29
REMARK    6  A    between atoms: N_8  and  N_9
REMARK    7  A    between atoms: C_10  and  C_11
REMARK    8  A    between atoms: N_13  and  C_20
REMARK    9  A    between atoms: C_20  and  C_21
REMARK   10  A    between atoms: C_26  and  C_27
REMARK   11  A    between atoms: C_30  and  C_32
REMARK                            x       y       z     vdW  Elec       q    Type
REMARK                         _______ _______ _______ _____ _____    ______ ____
ROOT
ATOM      1  N   UNL     1       5.161   4.774   0.752  0.00  0.00    -0.188 NA
ATOM      2  C   UNL     1       3.944   5.000   1.148  0.00  0.00    +0.140 C 
ENDROOT
BRANCH   2   3
ATOM      3  C   UNL     1       2.914   5.391   0.173  0.00  0.00    +0.020 A 
ATOM      4  C   UNL     1       3.123   5.898  -1.072  0.00  0.00    +0.096 A 
ATOM      5  N   UNL     1       1.925   6.142  -1.676  0.00  0.00    -0.342 N 
ATOM      6  C   UNL     1       0.888   5.789  -0.839  0.00  0.00    +0.050 A 
ATOM      7  C   UNL     1       1.454   5.305   0.352  0.00  0.00    +0.009 A 
ATOM      8  C   UNL     1       0.631   4.872   1.390  0.00  0.00    +0.010 A 
ATOM      9  C   UNL     1      -0.738   4.921   1.241  0.00  0.00    +0.001 A 
ATOM     10  C   UNL     1      -1.298   5.399   0.065  0.00  0.00    +0.002 A 
ATOM     11  C   UNL     1      -0.497   5.831  -0.969  0.00  0.00    +0.026 A 
BRANCH   5  12
ATOM     12  C   UNL     1       1.764   6.693  -3.023  0.00  0.00    +0.158 C 
BRANCH  12  13
ATOM     13  C   UNL     1       1.537   8.181  -2.933  0.00  0.00    -0.010 A 
ATOM     14  C   UNL     1       0.255   8.688  -2.969  0.00  0.00    +0.006 A 
ATOM     15  C   UNL     1       0.045  10.053  -2.887  0.00  0.00    +0.000 A 
ATOM     16  C   UNL     1       1.118  10.918  -2.768  0.00  0.00    +0.001 A 
ATOM     17  C   UNL     1       2.405  10.425  -2.731  0.00  0.00    +0.019 A 
ATOM     18  C   UNL     1       2.624   9.048  -2.808  0.00  0.00    +0.057 A 
BRANCH  18  19
ATOM     19  C   UNL     1       3.958   8.527  -2.764  0.00  0.00    +0.099 C 
ATOM     20  N   UNL     1       5.016   8.115  -2.729  0.00  0.00    -0.191 NA
ENDBRANCH  18  19
ENDBRANCH  12  13
ENDBRANCH   5  12
ENDBRANCH   2   3
BRANCH   1  23
ATOM     21  C   UNL     1       6.714   4.520  -1.035  0.00  0.00    +0.253 C 
ATOM     22  O   UNL     1       7.617   4.476  -0.226  0.00  0.00    -0.272 OA
ATOM     23  N   UNL     1       5.439   4.637  -0.615  0.00  0.00    -0.205 N 
ATOM     24  H   UNL     1       4.713   4.626  -1.258  0.00  0.00    +0.177 HD
BRANCH  21  25
ATOM     25  C   UNL     1       7.018   4.444  -2.509  0.00  0.00    +0.163 C 
BRANCH  25  26
ATOM     26  N   UNL     1       8.421   4.797  -2.737  0.00  0.00    -0.300 N 
ATOM     27  C   UNL     1       8.807   5.286  -3.932  0.00  0.00    +0.245 C 
ATOM     28  O   UNL     1       7.991   5.434  -4.820  0.00  0.00    -0.270 OA
ATOM     29  H   UNL     1       9.072   4.678  -2.028  0.00  0.00    +0.150 HD
BRANCH  27  30
ATOM     30  C   UNL     1      10.223   5.642  -4.162  0.00  0.00    +0.038 A 
ATOM     31  C   UNL     1      10.626   6.149  -5.399  0.00  0.00    +0.013 A 
ATOM     32  C   UNL     1      11.949   6.480  -5.608  0.00  0.00    +0.002 A 
ATOM     33  C   UNL     1      12.876   6.311  -4.595  0.00  0.00    +0.020 A 
ATOM     34  C   UNL     1      12.484   5.809  -3.366  0.00  0.00    +0.042 A 
ATOM     35  C   UNL     1      11.162   5.478  -3.143  0.00  0.00    +0.033 A 
ATOM     36 CL   UNL     1      13.654   5.602  -2.101  0.00  0.00    -0.084 Cl
ENDBRANCH  27  30
ENDBRANCH  25  26
BRANCH  25  38
ATOM     37  C   UNL     1       5.277   2.686  -2.856  0.00  0.00    +0.009 C 
ATOM     38  C   UNL     1       6.762   3.021  -3.009  0.00  0.00    +0.012 C 
ATOM     39  C   UNL     1       7.158   2.920  -4.484  0.00  0.00    +0.009 C 
ENDBRANCH  25  38
ENDBRANCH  21  25
ENDBRANCH   1  23
TORSDOF 9
