REMARK  Name = ZINC46628294
REMARK  8 active torsions:
REMARK  status: ('A' for Active; 'I' for Inactive)
REMARK    1  A    between atoms: C_1  and  C_2
REMARK    2  A    between atoms: N_5  and  C_11
REMARK    3  A    between atoms: C_7  and  C_10
REMARK    4  A    between atoms: C_11  and  C_12
REMARK    5  A    between atoms: C_15  and  C_18
REMARK    6  A    between atoms: C_18  and  N_19
REMARK    7  A    between atoms: N_19  and  S_20
REMARK    8  A    between atoms: S_20  and  C_23
REMARK                            x       y       z     vdW  Elec       q    Type
REMARK                         _______ _______ _______ _____ _____    ______ ____
ROOT
ATOM      1  C   UNL     1      -2.494  -8.290  -0.625  0.00  0.00    +0.141 C 
ENDROOT
BRANCH   1   5
ATOM      2  C   UNL     1      -2.696  -4.052  -0.132  0.00  0.00    -0.033 A 
ATOM      3  C   UNL     1      -2.676  -4.600  -1.401  0.00  0.00    +0.005 A 
ATOM      4  C   UNL     1      -2.611  -5.971  -1.560  0.00  0.00    +0.005 A 
ATOM      5  C   UNL     1      -2.564  -6.795  -0.451  0.00  0.00    -0.032 A 
ATOM      6  C   UNL     1      -2.583  -6.247   0.818  0.00  0.00    +0.005 A 
ATOM      7  C   UNL     1      -2.644  -4.875   0.977  0.00  0.00    +0.005 A 
BRANCH   2   8
ATOM      8  C   UNL     1      -2.768  -2.557   0.042  0.00  0.00    +0.119 C 
BRANCH   8  12
ATOM      9  C   UNL     1      -0.019   1.526   0.010  0.00  0.00    +0.039 C 
ATOM     10  C   UNL     1       0.002  -0.004   0.002  0.00  0.00    +0.130 C 
ATOM     11  C   UNL     1      -1.434  -0.535   0.015  0.00  0.00    +0.116 C 
ATOM     12  N   UNL     1      -1.407  -2.003   0.085  0.00  0.00    -0.293 NA
ATOM     13  C   UNL     1      -0.692  -2.455   1.287  0.00  0.00    +0.116 C 
ATOM     14  C   UNL     1       0.736  -1.905   1.261  0.00  0.00    +0.130 C 
ATOM     15  O   UNL     1       0.692  -0.479   1.161  0.00  0.00    -0.371 OA
ATOM     16  C   UNL     1       1.483  -2.478   0.055  0.00  0.00    +0.039 C 
ENDBRANCH   8  12
ENDBRANCH   2   8
ENDBRANCH   1   5
BRANCH   1  17
ATOM     17  N   UNL     1      -1.091  -8.709  -0.690  0.00  0.00    -0.186 NA
ATOM     18  H   UNL     1      -0.395  -8.050  -0.841  0.00  0.00    +0.148 HD
BRANCH  17  19
ATOM     19  S   UNL     1      -0.695 -10.306  -0.506  0.00  0.00    +0.059 S 
ATOM     20  O   UNL     1       0.717 -10.392  -0.645  0.00  0.00    -0.153 OA
ATOM     21  O   UNL     1      -1.375 -10.762   0.655  0.00  0.00    -0.153 OA
BRANCH  19  22
ATOM     22  C   UNL     1      -1.389 -11.176  -1.872  0.00  0.00    +0.109 A 
ATOM     23  C   UNL     1      -2.669 -11.690  -1.784  0.00  0.00    +0.032 A 
ATOM     24  C   UNL     1      -3.217 -12.374  -2.853  0.00  0.00    +0.051 A 
ATOM     25  C   UNL     1      -2.483 -12.546  -4.017  0.00  0.00    +0.162 A 
ATOM     26  C   UNL     1      -1.197 -12.027  -4.107  0.00  0.00    +0.164 A 
ATOM     27  C   UNL     1      -0.655 -11.338  -3.031  0.00  0.00    +0.078 A 
ATOM     28  O   UNL     1      -0.463 -12.177  -5.243  0.00  0.00    -0.485 OA
ATOM     29  C   UNL     1      -0.898 -13.186  -6.161  0.00  0.00    +0.270 C 
ATOM     30  C   UNL     1      -2.416 -13.051  -6.340  0.00  0.00    +0.270 C 
ATOM     31  O   UNL     1      -3.035 -13.224  -5.060  0.00  0.00    -0.485 OA
ENDBRANCH  19  22
ENDBRANCH  17  19
ENDBRANCH   1  17
TORSDOF 6
