REMARK  Name = ZINC40149513
REMARK  12 active torsions:
REMARK  status: ('A' for Active; 'I' for Inactive)
REMARK    1  A    between atoms: C_1  and  C_2
REMARK    2  A    between atoms: C_2  and  N_3
REMARK    3  A    between atoms: N_3  and  C_4
REMARK    4  A    between atoms: C_5  and  N_20
REMARK    5  A    between atoms: N_6  and  C_13
REMARK    6  A    between atoms: C_13  and  C_14
REMARK    7  A    between atoms: C_21  and  C_23
REMARK    8  A    between atoms: C_23  and  N_24
REMARK    9  A    between atoms: N_24  and  C_25
REMARK   10  A    between atoms: N_24  and  C_28
REMARK   11  A    between atoms: C_28  and  C_30
REMARK   12  A    between atoms: C_28  and  C_31
REMARK                            x       y       z     vdW  Elec       q    Type
REMARK                         _______ _______ _______ _____ _____    ______ ____
ROOT
ATOM      1  N   UNL     1       0.865  -0.027  -1.621  0.00  0.00    -0.266 N 
ATOM      2  C   UNL     1       0.053  -0.442  -2.616  0.00  0.00    +0.203 C 
ATOM      3  O   UNL     1       0.528  -0.862  -3.651  0.00  0.00    -0.277 OA
ENDROOT
BRANCH   1   4
ATOM      4  C   UNL     1       2.261   0.009  -1.818  0.00  0.00    +0.140 A 
ATOM      5  C   UNL     1       3.092  -0.836  -1.111  0.00  0.00    +0.128 A 
ATOM      6  N   UNL     1       4.449  -0.777  -1.325  0.00  0.00    -0.276 N 
ATOM      7  C   UNL     1       4.962   0.094  -2.213  0.00  0.00    +0.331 A 
ATOM      8  O   UNL     1       6.164   0.130  -2.388  0.00  0.00    -0.246 OA
ATOM      9  N   UNL     1       4.168   0.924  -2.912  0.00  0.00    -0.273 N 
ATOM     10  H   UNL     1       4.561   1.543  -3.547  0.00  0.00    +0.173 HD
ATOM     11  C   UNL     1       2.831   0.903  -2.744  0.00  0.00    +0.277 A 
ATOM     12  O   UNL     1       2.120   1.657  -3.386  0.00  0.00    -0.266 OA
BRANCH   5  13
ATOM     13  N   UNL     1       2.569  -1.725  -0.203  0.00  0.00    -0.343 N 
ATOM     14  H   UNL     1       1.617  -1.723  -0.014  0.00  0.00    +0.144 HD
ATOM     15  H   UNL     1       3.151  -2.355   0.249  0.00  0.00    +0.144 HD
ENDBRANCH   5  13
BRANCH   6  16
ATOM     16  C   UNL     1       5.343  -1.669  -0.581  0.00  0.00    +0.163 C 
BRANCH  16  17
ATOM     17  C   UNL     1       5.530  -2.950  -1.351  0.00  0.00    -0.028 A 
ATOM     18  C   UNL     1       4.669  -4.012  -1.146  0.00  0.00    +0.005 A 
ATOM     19  C   UNL     1       4.840  -5.188  -1.853  0.00  0.00    +0.000 A 
ATOM     20  C   UNL     1       5.872  -5.301  -2.765  0.00  0.00    +0.000 A 
ATOM     21  C   UNL     1       6.733  -4.239  -2.971  0.00  0.00    +0.000 A 
ATOM     22  C   UNL     1       6.559  -3.062  -2.268  0.00  0.00    +0.005 A 
ENDBRANCH  16  17
ENDBRANCH   6  16
ENDBRANCH   1   4
BRANCH   1  24
ATOM     23  C   UNL     1       0.093   1.903  -0.332  0.00  0.00    +0.025 C 
ATOM     24  C   UNL     1       0.295   0.386  -0.336  0.00  0.00    +0.110 C 
ENDBRANCH   1  24
BRANCH   2  25
ATOM     25  C   UNL     1      -1.442  -0.384  -2.442  0.00  0.00    +0.020 C 
BRANCH  25  26
ATOM     26  N   UNL     1      -2.096  -0.888  -3.658  0.00  0.00    +0.392 N 
ATOM     27  H   UNL     1      -1.764  -0.370  -4.458  0.00  0.00    -0.080 HD
BRANCH  26  28
ATOM     28  C   UNL     1      -1.780  -2.312  -3.829  0.00  0.00    -0.067 C 
ATOM     29  C   UNL     1      -0.753  -2.683  -4.902  0.00  0.00    -0.017 C 
ATOM     30  C   UNL     1      -2.236  -2.986  -5.125  0.00  0.00    -0.017 C 
ENDBRANCH  26  28
BRANCH  26  31
ATOM     31  C   UNL     1      -3.551  -0.721  -3.536  0.00  0.00    -0.038 C 
ATOM     32  C   UNL     1      -4.230  -1.226  -4.811  0.00  0.00    -0.008 C 
BRANCH  31  33
ATOM     33  C   UNL     1      -3.874   0.738  -3.339  0.00  0.00    -0.043 A 
ATOM     34  C   UNL     1      -3.003   1.708  -3.799  0.00  0.00    +0.003 A 
ATOM     35  C   UNL     1      -3.299   3.045  -3.618  0.00  0.00    +0.000 A 
ATOM     36  C   UNL     1      -4.467   3.415  -2.977  0.00  0.00    +0.001 A 
ATOM     37  C   UNL     1      -5.339   2.446  -2.516  0.00  0.00    +0.020 A 
ATOM     38  C   UNL     1      -5.045   1.107  -2.702  0.00  0.00    +0.043 A 
ATOM     39 CL   UNL     1      -6.143  -0.110  -2.129  0.00  0.00    -0.083 Cl
ENDBRANCH  31  33
ENDBRANCH  26  31
ENDBRANCH  25  26
ENDBRANCH   2  25
TORSDOF 10
