REMARK  Name = ZINC05422301
REMARK  4 active torsions:
REMARK  status: ('A' for Active; 'I' for Inactive)
REMARK    1  A    between atoms: C_7  and  N_20
REMARK    2  A    between atoms: C_10  and  N_11
REMARK    3  A    between atoms: N_12  and  C_13
REMARK    4  A    between atoms: C_16  and  N_19
REMARK                            x       y       z     vdW  Elec       q    Type
REMARK                         _______ _______ _______ _____ _____    ______ ____
ROOT
ATOM      1  C   UNL     1      -0.016   1.358   0.009  0.00  0.00    +0.001 A 
ATOM      2  C   UNL     1       1.168   2.091   0.002  0.00  0.00    +0.001 A 
ATOM      3  C   UNL     1       2.378   1.463  -0.013  0.00  0.00    +0.011 A 
ATOM      4  C   UNL     1       2.433   0.065  -0.021  0.00  0.00    +0.011 A 
ATOM      5  C   UNL     1       1.231  -0.682  -0.013  0.00  0.00    +0.005 A 
ATOM      6  C   UNL     1       0.002  -0.004   0.002  0.00  0.00    +0.010 A 
ATOM      7  C   UNL     1       1.290  -2.093  -0.020  0.00  0.00    +0.032 A 
ATOM      8  C   UNL     1       2.510  -2.741  -0.034  0.00  0.00    +0.025 A 
ATOM      9  C   UNL     1       3.703  -2.042  -0.042  0.00  0.00    +0.032 A 
ATOM     10  C   UNL     1       3.710  -0.648  -0.037  0.00  0.00    +0.094 A 
ENDROOT
BRANCH   7  11
ATOM     11  N   UNL     1       0.116  -2.833  -0.012  0.00  0.00    -0.357 N 
ATOM     12  H   UNL     1      -0.742  -2.380  -0.002  0.00  0.00    +0.142 HD
ATOM     13  H   UNL     1       0.153  -3.802  -0.017  0.00  0.00    +0.142 HD
ENDBRANCH   7  11
BRANCH  10  14
ATOM     14  N   UNL     1       4.884   0.037  -0.045  0.00  0.00    -0.149 NA
ATOM     15  N   UNL     1       6.004  -0.603  -0.059  0.00  0.00    -0.149 NA
BRANCH  15  16
ATOM     16  C   UNL     1       7.183   0.085  -0.067  0.00  0.00    +0.086 A 
ATOM     17  C   UNL     1       7.179   1.484  -0.055  0.00  0.00    +0.031 A 
ATOM     18  C   UNL     1       8.370   2.174  -0.064  0.00  0.00    +0.025 A 
ATOM     19  C   UNL     1       9.577   1.482  -0.084  0.00  0.00    +0.025 A 
ATOM     20  C   UNL     1       9.586   0.090  -0.096  0.00  0.00    +0.025 A 
ATOM     21  C   UNL     1       8.399  -0.607  -0.082  0.00  0.00    +0.031 A 
BRANCH  19  22
ATOM     22  N   UNL     1      10.781   2.184  -0.093  0.00  0.00    -0.358 N 
ATOM     23  H   UNL     1      10.776   3.154  -0.084  0.00  0.00    +0.142 HD
ATOM     24  H   UNL     1      11.623   1.703  -0.107  0.00  0.00    +0.142 HD
ENDBRANCH  19  22
ENDBRANCH  15  16
ENDBRANCH  10  14
TORSDOF 4
