REMARK  Name = ZINC13640066
REMARK  8 active torsions:
REMARK  status: ('A' for Active; 'I' for Inactive)
REMARK    1  A    between atoms: C_1  and  C_2
REMARK    2  A    between atoms: C_2  and  C_3
REMARK    3  A    between atoms: C_2  and  C_4
REMARK    4  A    between atoms: C_2  and  N_5
REMARK    5  A    between atoms: C_6  and  C_8
REMARK    6  A    between atoms: C_15  and  C_24
REMARK    7  A    between atoms: C_27  and  O_31
REMARK    8  A    between atoms: C_29  and  O_30
REMARK                            x       y       z     vdW  Elec       q    Type
REMARK                         _______ _______ _______ _____ _____    ______ ____
ROOT
ATOM      1  C   UNL     1       3.974   2.368  -4.391  0.00  0.00    +0.058 A 
ATOM      2  C   UNL     1       5.306   1.987  -4.561  0.00  0.00    +0.015 A 
ATOM      3  C   UNL     1       5.732   0.769  -4.077  0.00  0.00    +0.001 A 
ATOM      4  C   UNL     1       4.846  -0.070  -3.425  0.00  0.00    +0.006 A 
ATOM      5  C   UNL     1       3.519   0.292  -3.245  0.00  0.00    -0.019 A 
ATOM      6  C   UNL     1       3.075   1.511  -3.728  0.00  0.00    +0.044 A 
ATOM      7  N   UNL     1       1.761   1.930  -3.586  0.00  0.00    -0.336 N 
ATOM      8  C   UNL     1       1.106   1.320  -2.429  0.00  0.00    +0.108 C 
ATOM      9  C   UNL     1       1.149  -0.204  -2.563  0.00  0.00    +0.029 C 
ATOM     10  C   UNL     1       2.621  -0.667  -2.521  0.00  0.00    +0.049 C 
ATOM     11  C   UNL     1       2.955  -0.700  -1.047  0.00  0.00    -0.023 C 
ATOM     12  C   UNL     1       1.861  -0.777  -0.331  0.00  0.00    -0.030 C 
ATOM     13  C   UNL     1       0.640  -0.814  -1.227  0.00  0.00    +0.033 C 
ATOM     14  H   UNL     1       1.235   1.761  -4.430  0.00  0.00    +0.147 HD
ENDROOT
BRANCH   8  15
ATOM     15  C   UNL     1       1.823   1.734  -1.169  0.00  0.00    +0.015 A 
ATOM     16  C   UNL     1       3.190   1.933  -1.187  0.00  0.00    +0.012 A 
ATOM     17  C   UNL     1       3.850   2.312  -0.034  0.00  0.00    +0.046 A 
ATOM     18  C   UNL     1       3.141   2.494   1.145  0.00  0.00    +0.120 A 
ATOM     19  C   UNL     1       1.769   2.300   1.164  0.00  0.00    +0.091 A 
ATOM     20  C   UNL     1       1.109   1.914   0.007  0.00  0.00    +0.125 A 
BRANCH  20  21
ATOM     21  O   UNL     1      -0.235   1.718   0.024  0.00  0.00    -0.506 OA
ATOM     22  H   UNL     1      -0.502   0.849   0.352  0.00  0.00    +0.292 HD
ENDBRANCH  20  21
BRANCH  18  23
ATOM     23  O   UNL     1       3.791   2.866   2.279  0.00  0.00    -0.507 OA
ATOM     24  H   UNL     1       3.853   3.824   2.400  0.00  0.00    +0.292 HD
ENDBRANCH  18  23
ENDBRANCH   8  15
BRANCH   1  26
ATOM     25  N   UNL     1       4.370   4.489  -5.541  0.00  0.00    -0.307 N 
ATOM     26  C   UNL     1       3.509   3.669  -4.906  0.00  0.00    +0.246 C 
ATOM     27  O   UNL     1       2.348   4.001  -4.759  0.00  0.00    -0.270 OA
ATOM     28  H   UNL     1       5.295   4.224  -5.658  0.00  0.00    +0.150 HD
BRANCH  25  30
ATOM     29  C   UNL     1       3.375   6.628  -4.894  0.00  0.00    +0.031 C 
ATOM     30  C   UNL     1       3.907   5.782  -6.053  0.00  0.00    +0.026 C 
ATOM     31  C   UNL     1       5.073   6.511  -6.724  0.00  0.00    +0.031 C 
ATOM     32  C   UNL     1       2.791   5.556  -7.074  0.00  0.00    +0.031 C 
ENDBRANCH  25  30
ENDBRANCH   1  26
TORSDOF 5
