REMARK  Name = ZINC33349831
REMARK  7 active torsions:
REMARK  status: ('A' for Active; 'I' for Inactive)
REMARK    1  A    between atoms: C_1  and  C_2
REMARK    2  A    between atoms: C_5  and  O_8
REMARK    3  A    between atoms: O_8  and  C_9
REMARK    4  A    between atoms: C_9  and  C_10
REMARK    5  A    between atoms: C_10  and  O_11
REMARK    6  A    between atoms: O_11  and  C_12
REMARK    7  A    between atoms: C_15  and  C_19
REMARK                            x       y       z     vdW  Elec       q    Type
REMARK                         _______ _______ _______ _____ _____    ______ ____
ROOT
ATOM      1  C   UNL     1       1.703  -7.977   0.145  0.00  0.00    +0.157 A 
ATOM      2  C   UNL     1       2.549  -8.766   0.916  0.00  0.00    +0.085 A 
ATOM      3  C   UNL     1       2.663 -10.115   0.658  0.00  0.00    +0.031 A 
ATOM      4  C   UNL     1       1.924 -10.691  -0.383  0.00  0.00    -0.021 A 
ATOM      5  C   UNL     1       1.073  -9.892  -1.156  0.00  0.00    +0.031 A 
ATOM      6  C   UNL     1       0.963  -8.545  -0.886  0.00  0.00    +0.085 A 
ATOM      7 CL   UNL     1      -0.097  -7.554  -1.839  0.00  0.00    -0.080 Cl
ATOM      8 CL   UNL     1       3.465  -8.051   2.206  0.00  0.00    -0.080 Cl
ENDROOT
BRANCH   4   9
ATOM      9  C   UNL     1       2.042 -12.128  -0.663  0.00  0.00    +0.028 C 
ATOM     10  C   UNL     1       2.138 -13.013   0.361  0.00  0.00    +0.078 C 
ATOM     11  C   UNL     1       1.975 -12.789   1.810  0.00  0.00    +0.256 C 
ATOM     12  O   UNL     1       1.716 -11.687   2.258  0.00  0.00    -0.269 OA
ATOM     13  N   UNL     1       2.123 -13.838   2.600  0.00  0.00    -0.261 N 
ATOM     14  C   UNL     1       2.416 -15.079   2.071  0.00  0.00    +0.158 C 
ATOM     15  N   UNL     1       2.592 -16.208   2.701  0.00  0.00    -0.279 NA
ATOM     16  S   UNL     1       2.488 -14.764   0.315  0.00  0.00    -0.049 S 
ATOM     17  H   UNL     1       2.024 -13.736   3.560  0.00  0.00    +0.157 HD
ATOM     18  H   UNL     1       2.795 -17.015   2.202  0.00  0.00    +0.189 HD
ENDBRANCH   4   9
BRANCH   1  19
ATOM     19  O   UNL     1       1.594  -6.648   0.405  0.00  0.00    -0.486 OA
BRANCH  19  20
ATOM     20  C   UNL     1       0.590  -6.250   1.341  0.00  0.00    +0.270 C 
BRANCH  20  21
ATOM     21  C   UNL     1       0.618  -4.729   1.502  0.00  0.00    +0.270 C 
BRANCH  21  22
ATOM     22  O   UNL     1       0.249  -4.112   0.267  0.00  0.00    -0.489 OA
BRANCH  22  27
ATOM     23  C   UNL     1       0.143   1.518   0.153  0.00  0.00    +0.044 C 
ATOM     24  C   UNL     1       0.172   0.012   0.183  0.00  0.00    -0.050 A 
ATOM     25  C   UNL     1      -0.150  -0.708  -0.953  0.00  0.00    +0.007 A 
ATOM     26  C   UNL     1      -0.125  -2.089  -0.927  0.00  0.00    +0.046 A 
ATOM     27  C   UNL     1       0.224  -2.753   0.239  0.00  0.00    +0.121 A 
ATOM     28  C   UNL     1       0.548  -2.029   1.378  0.00  0.00    +0.046 A 
ATOM     29  C   UNL     1       0.526  -0.648   1.345  0.00  0.00    +0.007 A 
ENDBRANCH  22  27
ENDBRANCH  21  22
ENDBRANCH  20  21
ENDBRANCH  19  20
ENDBRANCH   1  19
TORSDOF 6
