REMARK  Name = ZINC35641618
REMARK  9 active torsions:
REMARK  status: ('A' for Active; 'I' for Inactive)
REMARK    1  A    between atoms: C_1  and  C_2
REMARK    2  A    between atoms: C_2  and  O_3
REMARK    3  A    between atoms: O_3  and  C_4
REMARK    4  A    between atoms: C_4  and  C_6
REMARK    5  A    between atoms: C_7  and  C_22
REMARK    6  A    between atoms: N_8  and  C_21
REMARK    7  A    between atoms: C_12  and  C_14
REMARK    8  A    between atoms: C_22  and  N_23
REMARK    9  A    between atoms: C_26  and  C_29
REMARK                            x       y       z     vdW  Elec       q    Type
REMARK                         _______ _______ _______ _____ _____    ______ ____
ROOT
ATOM      1  C   UNL     1      -2.763  -2.368   0.133  0.00  0.00    +0.076 C 
ATOM      2  C   UNL     1      -2.903  -3.689  -0.107  0.00  0.00    +0.010 C 
ATOM      3  N   UNL     1      -4.140  -4.258  -0.218  0.00  0.00    -0.264 N 
ATOM      4  C   UNL     1      -5.285  -3.574  -0.102  0.00  0.00    +0.307 C 
ATOM      5  O   UNL     1      -6.339  -4.168  -0.216  0.00  0.00    -0.252 OA
ATOM      6  N   UNL     1      -5.307  -2.248   0.138  0.00  0.00    -0.288 N 
ATOM      7  C   UNL     1      -4.023  -1.540   0.280  0.00  0.00    +0.145 C 
ATOM      8  C   UNL     1      -4.218  -5.698  -0.478  0.00  0.00    +0.139 C 
ATOM      9  H   UNL     1      -6.148  -1.772   0.217  0.00  0.00    +0.151 HD
ENDROOT
BRANCH   7  10
ATOM     10  C   UNL     1      -3.995  -0.888   1.639  0.00  0.00    -0.004 A 
ATOM     11  C   UNL     1      -4.592  -1.513   2.717  0.00  0.00    +0.007 A 
ATOM     12  C   UNL     1      -4.566  -0.915   3.963  0.00  0.00    +0.000 A 
ATOM     13  C   UNL     1      -3.943   0.307   4.132  0.00  0.00    +0.001 A 
ATOM     14  C   UNL     1      -3.345   0.933   3.054  0.00  0.00    +0.020 A 
ATOM     15  C   UNL     1      -3.366   0.332   1.807  0.00  0.00    +0.046 A 
ATOM     16 CL   UNL     1      -2.610   1.114   0.454  0.00  0.00    -0.083 Cl
ENDBRANCH   7  10
BRANCH   1  17
ATOM     17  C   UNL     1      -1.482  -1.778   0.248  0.00  0.00    +0.339 C 
ATOM     18  O   UNL     1      -1.042  -1.489   1.345  0.00  0.00    -0.245 OA
BRANCH  17  19
ATOM     19  O   UNL     1      -0.750  -1.534  -0.859  0.00  0.00    -0.462 OA
BRANCH  19  21
ATOM     20  C   UNL     1       1.211  -0.738  -2.026  0.00  0.00    +0.048 C 
ATOM     21  C   UNL     1       0.534  -0.936  -0.668  0.00  0.00    +0.229 C 
ENDBRANCH  19  21
ENDBRANCH  17  19
ENDBRANCH   1  17
BRANCH   2  22
ATOM     22  C   UNL     1      -1.675  -4.551  -0.255  0.00  0.00    -0.026 C 
BRANCH  22  23
ATOM     23  N   UNL     1      -1.598  -5.491   0.870  0.00  0.00    +0.383 N 
ATOM     24  C   UNL     1      -1.410  -4.744   2.119  0.00  0.00    -0.078 C 
ATOM     25  C   UNL     1      -1.410  -5.713   3.304  0.00  0.00    -0.016 C 
ATOM     26  C   UNL     1      -0.269  -6.719   3.132  0.00  0.00    -0.018 C 
ATOM     27  C   UNL     1      -0.434  -7.441   1.792  0.00  0.00    -0.016 C 
ATOM     28  C   UNL     1      -0.470  -6.408   0.664  0.00  0.00    -0.078 C 
ATOM     29  C   UNL     1      -0.312  -7.740   4.272  0.00  0.00    +0.007 C 
ATOM     30  H   UNL     1      -2.455  -6.021   0.924  0.00  0.00    -0.081 HD
ENDBRANCH  22  23
ENDBRANCH   2  22
TORSDOF 6
