REMARK  Name = ZINC03913857
REMARK  10 active torsions:
REMARK  status: ('A' for Active; 'I' for Inactive)
REMARK    1  A    between atoms: C_1  and  O_2
REMARK    2  A    between atoms: O_2  and  C_3
REMARK    3  A    between atoms: C_6  and  C_9
REMARK    4  A    between atoms: N_13  and  C_17
REMARK    5  A    between atoms: C_17  and  C_18
REMARK    6  A    between atoms: C_18  and  C_19
REMARK    7  A    between atoms: C_19  and  C_20
REMARK    8  A    between atoms: N_22  and  N_23
REMARK    9  A    between atoms: C_24  and  C_26
REMARK   10  A    between atoms: C_31  and  O_32
REMARK                            x       y       z     vdW  Elec       q    Type
REMARK                         _______ _______ _______ _____ _____    ______ ____
ROOT
ATOM      1  C   UNL     1       5.432  -7.105  -5.605  0.00  0.00    +0.029 C 
ENDROOT
BRANCH   1   2
ATOM      2  C   UNL     1       3.984  -6.902  -6.056  0.00  0.00    +0.115 C 
BRANCH   2   7
ATOM      3  C   UNL     1       2.489  -2.488  -4.355  0.00  0.00    +0.028 C 
ATOM      4  C   UNL     1       2.628  -3.838  -4.378  0.00  0.00    +0.077 C 
ATOM      5  C   UNL     1       3.331  -4.696  -5.353  0.00  0.00    +0.258 C 
ATOM      6  O   UNL     1       3.906  -4.227  -6.318  0.00  0.00    -0.269 OA
ATOM      7  N   UNL     1       3.305  -5.998  -5.124  0.00  0.00    -0.255 N 
ATOM      8  C   UNL     1       2.667  -6.512  -4.053  0.00  0.00    +0.121 C 
ATOM      9  S   UNL     1       2.522  -8.154  -3.590  0.00  0.00    -0.027 S 
ATOM     10  S   UNL     1       2.016  -5.066  -3.232  0.00  0.00    -0.061 S 
BRANCH   3  14
ATOM     11  C   UNL     1       0.765  -0.591  -0.977  0.00  0.00    +0.120 A 
ATOM     12  C   UNL     1       1.068  -1.947  -0.930  0.00  0.00    +0.046 A 
ATOM     13  C   UNL     1       1.628  -2.568  -2.024  0.00  0.00    +0.011 A 
ATOM     14  C   UNL     1       1.891  -1.831  -3.185  0.00  0.00    -0.024 A 
ATOM     15  C   UNL     1       1.584  -0.466  -3.227  0.00  0.00    +0.011 A 
ATOM     16  C   UNL     1       1.020   0.144  -2.129  0.00  0.00    +0.046 A 
BRANCH  11  18
ATOM     17  C   UNL     1      -0.022  -0.798   1.256  0.00  0.00    +0.277 C 
ATOM     18  O   UNL     1       0.213   0.016   0.105  0.00  0.00    -0.495 OA
ENDBRANCH  11  18
ENDBRANCH   3  14
ENDBRANCH   2   7
ENDBRANCH   1   2
BRANCH   1  19
ATOM     19  C   UNL     1       6.141  -8.050  -6.578  0.00  0.00    +0.099 C 
BRANCH  19  20
ATOM     20  C   UNL     1       7.567  -8.250  -6.134  0.00  0.00    +0.229 C 
ATOM     21  O   UNL     1       7.976  -7.692  -5.138  0.00  0.00    -0.274 OA
ATOM     22  N   UNL     1       8.388  -9.048  -6.844  0.00  0.00    -0.234 N 
ATOM     23  H   UNL     1       8.061  -9.495  -7.641  0.00  0.00    +0.173 HD
BRANCH  22  24
ATOM     24  N   UNL     1       9.714  -9.234  -6.431  0.00  0.00    -0.230 N 
ATOM     25  C   UNL     1      10.535 -10.033  -7.141  0.00  0.00    +0.264 C 
ATOM     26  O   UNL     1      10.125 -10.592  -8.140  0.00  0.00    -0.269 OA
ATOM     27  H   UNL     1      10.041  -8.788  -5.635  0.00  0.00    +0.173 HD
BRANCH  25  28
ATOM     28  C   UNL     1      11.931 -10.229  -6.707  0.00  0.00    +0.079 A 
ATOM     29  C   UNL     1      12.405  -9.593  -5.557  0.00  0.00    +0.017 A 
ATOM     30  C   UNL     1      13.710  -9.780  -5.156  0.00  0.00    +0.001 A 
ATOM     31  C   UNL     1      14.556 -10.597  -5.889  0.00  0.00    +0.004 A 
ATOM     32  C   UNL     1      14.101 -11.231  -7.028  0.00  0.00    +0.046 A 
ATOM     33  C   UNL     1      12.788 -11.059  -7.442  0.00  0.00    +0.129 A 
BRANCH  33  34
ATOM     34  O   UNL     1      12.338 -11.687  -8.557  0.00  0.00    -0.506 OA
ATOM     35  H   UNL     1      12.457 -11.177  -9.371  0.00  0.00    +0.292 HD
ENDBRANCH  33  34
ENDBRANCH  25  28
ENDBRANCH  22  24
ENDBRANCH  19  20
ENDBRANCH   1  19
TORSDOF 9
