REMARK  Name = ZINC12787083
REMARK  10 active torsions:
REMARK  status: ('A' for Active; 'I' for Inactive)
REMARK    1  A    between atoms: C_1  and  C_2
REMARK    2  A    between atoms: C_2  and  C_4
REMARK    3  A    between atoms: C_2  and  N_14
REMARK    4  A    between atoms: C_7  and  C_10
REMARK    5  A    between atoms: C_10  and  C_11
REMARK    6  A    between atoms: C_11  and  C_12
REMARK    7  A    between atoms: C_11  and  C_13
REMARK    8  A    between atoms: C_15  and  C_17
REMARK    9  A    between atoms: C_20  and  C_23
REMARK   10  A    between atoms: C_23  and  N_24
REMARK                            x       y       z     vdW  Elec       q    Type
REMARK                         _______ _______ _______ _____ _____    ______ ____
ROOT
ATOM      1  N   UNL     1      -1.372  -0.511   0.012  0.00  0.00    -0.305 N 
ATOM      2  C   UNL     1      -2.051  -0.643  -1.145  0.00  0.00    +0.245 C 
ATOM      3  O   UNL     1      -1.522  -0.341  -2.197  0.00  0.00    -0.270 OA
ATOM      4  H   UNL     1      -1.794  -0.752   0.852  0.00  0.00    +0.150 HD
ENDROOT
BRANCH   2   5
ATOM      5  C   UNL     1      -3.438  -1.155  -1.134  0.00  0.00    +0.037 A 
ATOM      6  C   UNL     1      -4.050  -1.497   0.073  0.00  0.00    +0.013 A 
ATOM      7  C   UNL     1      -5.344  -1.973   0.076  0.00  0.00    +0.006 A 
ATOM      8  C   UNL     1      -6.036  -2.112  -1.114  0.00  0.00    -0.030 A 
ATOM      9  C   UNL     1      -5.435  -1.775  -2.314  0.00  0.00    +0.006 A 
ATOM     10  C   UNL     1      -4.143  -1.292  -2.331  0.00  0.00    +0.013 A 
BRANCH   8  11
ATOM     11  C   UNL     1      -7.450  -2.634  -1.104  0.00  0.00    +0.141 C 
BRANCH  11  12
ATOM     12  N   UNL     1      -8.383  -1.512  -0.975  0.00  0.00    -0.295 N 
ATOM     13  C   UNL     1      -9.711  -1.741  -0.943  0.00  0.00    +0.297 C 
ATOM     14  O   UNL     1     -10.134  -2.878  -1.022  0.00  0.00    -0.253 OA
ATOM     15  N   UNL     1     -10.570  -0.709  -0.825  0.00  0.00    -0.313 N 
ATOM     16  H   UNL     1      -8.046  -0.605  -0.913  0.00  0.00    +0.151 HD
ATOM     17  H   UNL     1     -10.232   0.198  -0.763  0.00  0.00    +0.146 HD
ATOM     18  H   UNL     1     -11.525  -0.873  -0.802  0.00  0.00    +0.146 HD
ENDBRANCH  11  12
ENDBRANCH   8  11
ENDBRANCH   2   5
BRANCH   1  20
ATOM     19  C   UNL     1      -0.019   1.526   0.010  0.00  0.00    +0.033 C 
ATOM     20  C   UNL     1       0.002  -0.004   0.002  0.00  0.00    +0.100 C 
BRANCH  20  21
ATOM     21  C   UNL     1       0.731  -0.503   1.223  0.00  0.00    -0.027 A 
ATOM     22  C   UNL     1       0.081  -0.558   2.442  0.00  0.00    +0.006 A 
ATOM     23  C   UNL     1       0.749  -1.016   3.562  0.00  0.00    +0.004 A 
ATOM     24  C   UNL     1       2.068  -1.420   3.463  0.00  0.00    -0.047 A 
ATOM     25  C   UNL     1       2.718  -1.365   2.244  0.00  0.00    +0.004 A 
ATOM     26  C   UNL     1       2.048  -0.911   1.123  0.00  0.00    +0.006 A 
BRANCH  24  27
ATOM     27  C   UNL     1       2.797  -1.918   4.684  0.00  0.00    +0.038 C 
BRANCH  27  28
ATOM     28  C   UNL     1       2.611  -3.432   4.807  0.00  0.00    -0.013 C 
ATOM     29  C   UNL     1       3.284  -4.126   3.622  0.00  0.00    +0.007 C 
ATOM     30  C   UNL     1       3.245  -3.919   6.111  0.00  0.00    +0.007 C 
ENDBRANCH  27  28
ENDBRANCH  24  27
ENDBRANCH  20  21
ENDBRANCH   1  20
TORSDOF 7
