REMARK  Name = ZINC41003473
REMARK  11 active torsions:
REMARK  status: ('A' for Active; 'I' for Inactive)
REMARK    1  A    between atoms: C_1  and  C_2
REMARK    2  A    between atoms: C_2  and  C_33
REMARK    3  A    between atoms: C_4  and  N_32
REMARK    4  A    between atoms: C_6  and  C_30
REMARK    5  A    between atoms: C_6  and  C_31
REMARK    6  A    between atoms: N_7  and  C_8
REMARK    7  A    between atoms: C_9  and  C_28
REMARK    8  A    between atoms: C_11  and  C_13
REMARK    9  A    between atoms: C_16  and  O_19
REMARK   10  A    between atoms: O_19  and  C_20
REMARK   11  A    between atoms: C_20  and  C_21
REMARK                            x       y       z     vdW  Elec       q    Type
REMARK                         _______ _______ _______ _____ _____    ______ ____
ROOT
ATOM      1  C   UNL     1       2.049  -1.498   1.211  0.00  0.00    +0.228 A 
ATOM      2  C   UNL     1       2.796  -2.066   2.231  0.00  0.00    +0.201 A 
ATOM      3  N   UNL     1       3.820  -2.740   1.642  0.00  0.00    -0.196 NA
ATOM      4  C   UNL     1       3.719  -2.602   0.345  0.00  0.00    +0.231 A 
ATOM      5  O   UNL     1       2.640  -1.851   0.055  0.00  0.00    -0.420 OA
ENDROOT
BRANCH   1  12
ATOM      6  C   UNL     1       0.586   1.217   2.811  0.00  0.00    +0.031 C 
ATOM      7  C   UNL     1       1.013   0.739   1.422  0.00  0.00    +0.031 C 
ATOM      8  C   UNL     1       0.085   1.344   0.363  0.00  0.00    +0.009 C 
ATOM      9  C   UNL     1      -1.331   0.798   0.558  0.00  0.00    -0.071 C 
ATOM     10  C   UNL     1      -1.322  -0.722   0.381  0.00  0.00    +0.009 C 
ATOM     11  C   UNL     1      -0.410  -1.351   1.439  0.00  0.00    +0.031 C 
ATOM     12  N   UNL     1       0.916  -0.726   1.353  0.00  0.00    -0.289 N 
ATOM     13  C   UNL     1      -0.286  -2.854   1.182  0.00  0.00    +0.031 C 
ATOM     14  C   UNL     1      -1.000  -1.113   2.831  0.00  0.00    +0.031 C 
ATOM     15  C   UNL     1       2.455   1.171   1.152  0.00  0.00    +0.031 C 
BRANCH   9  16
ATOM     16  N   UNL     1      -2.229   1.401  -0.434  0.00  0.00    +0.380 N 
ATOM     17  H   UNL     1      -1.906   1.174  -1.363  0.00  0.00    -0.090 HD
ATOM     18  H   UNL     1      -3.163   1.041  -0.306  0.00  0.00    -0.090 HD
ATOM     19  H   UNL     1      -2.236   2.403  -0.317  0.00  0.00    -0.090 HD
ENDBRANCH   9  16
ENDBRANCH   1  12
BRANCH   4  20
ATOM     20  C   UNL     1       4.644  -3.186  -0.649  0.00  0.00    +0.037 A 
ATOM     21  C   UNL     1       4.438  -2.964  -2.012  0.00  0.00    +0.017 A 
ATOM     22  C   UNL     1       5.302  -3.510  -2.936  0.00  0.00    +0.046 A 
ATOM     23  C   UNL     1       6.378  -4.280  -2.512  0.00  0.00    +0.121 A 
ATOM     24  C   UNL     1       6.587  -4.503  -1.157  0.00  0.00    +0.046 A 
ATOM     25  C   UNL     1       5.730  -3.955  -0.227  0.00  0.00    +0.017 A 
BRANCH  23  26
ATOM     26  O   UNL     1       7.228  -4.817  -3.426  0.00  0.00    -0.487 OA
BRANCH  26  27
ATOM     27  C   UNL     1       8.313  -5.598  -2.922  0.00  0.00    +0.266 C 
BRANCH  27  28
ATOM     28  C   UNL     1       9.142  -6.107  -4.073  0.00  0.00    +0.008 A 
ATOM     29  C   UNL     1       8.795  -5.785  -5.371  0.00  0.00    +0.008 A 
ATOM     30  C   UNL     1       9.556  -6.251  -6.427  0.00  0.00    +0.000 A 
ATOM     31  C   UNL     1      10.664  -7.041  -6.184  0.00  0.00    +0.001 A 
ATOM     32  C   UNL     1      11.013  -7.364  -4.887  0.00  0.00    +0.020 A 
ATOM     33  C   UNL     1      10.255  -6.893  -3.829  0.00  0.00    +0.047 A 
ATOM     34 CL   UNL     1      10.695  -7.293  -2.199  0.00  0.00    -0.083 Cl
ENDBRANCH  27  28
ENDBRANCH  26  27
ENDBRANCH  23  26
ENDBRANCH   4  20
BRANCH   2  35
ATOM     35  C   UNL     1       2.539  -1.963   3.636  0.00  0.00    +0.124 C 
ATOM     36  N   UNL     1       2.336  -1.881   4.750  0.00  0.00    -0.189 NA
ENDBRANCH   2  35
TORSDOF 7
