REMARK  Name = ZINC37560560
REMARK  11 active torsions:
REMARK  status: ('A' for Active; 'I' for Inactive)
REMARK    1  A    between atoms: C_1  and  C_2
REMARK    2  A    between atoms: C_5  and  N_8
REMARK    3  A    between atoms: N_8  and  C_9
REMARK    4  A    between atoms: N_8  and  S_26
REMARK    5  A    between atoms: N_12  and  C_15
REMARK    6  A    between atoms: C_15  and  C_16
REMARK    7  A    between atoms: C_18  and  O_24
REMARK    8  A    between atoms: C_20  and  O_22
REMARK    9  A    between atoms: O_22  and  C_23
REMARK   10  A    between atoms: O_24  and  C_25
REMARK   11  A    between atoms: S_26  and  C_29
REMARK                            x       y       z     vdW  Elec       q    Type
REMARK                         _______ _______ _______ _____ _____    ______ ____
ROOT
ATOM      1  N   UNL     1       0.054  -4.154  -0.027  0.00  0.00    -0.200 N 
ENDROOT
BRANCH   1   6
ATOM      2  C   UNL     1      -0.941   1.411   0.417  0.00  0.00    +0.044 C 
ATOM      3  C   UNL     1      -0.677  -0.068   0.299  0.00  0.00    -0.050 A 
ATOM      4  C   UNL     1       0.613  -0.524   0.096  0.00  0.00    +0.005 A 
ATOM      5  C   UNL     1       0.859  -1.879  -0.013  0.00  0.00    +0.025 A 
ATOM      6  C   UNL     1      -0.191  -2.784   0.083  0.00  0.00    +0.052 A 
ATOM      7  C   UNL     1      -1.485  -2.322   0.287  0.00  0.00    +0.025 A 
ATOM      8  C   UNL     1      -1.723  -0.967   0.401  0.00  0.00    +0.005 A 
ENDBRANCH   1   6
BRANCH   1   9
ATOM      9  C   UNL     1       0.732  -4.867   1.059  0.00  0.00    +0.095 C 
ATOM     10  C   UNL     1       2.166  -4.346   1.196  0.00  0.00    +0.006 C 
ATOM     11  C   UNL     1       2.842  -5.037   2.381  0.00  0.00    -0.077 C 
ATOM     12  N   UNL     1       2.096  -4.748   3.612  0.00  0.00    +0.382 N 
ATOM     13  C   UNL     1       0.742  -5.307   3.516  0.00  0.00    -0.077 C 
ATOM     14  C   UNL     1      -0.015  -4.627   2.374  0.00  0.00    +0.006 C 
ATOM     15  H   UNL     1       2.038  -3.749   3.742  0.00  0.00    -0.081 HD
BRANCH  12  16
ATOM     16  C   UNL     1       2.792  -5.348   4.758  0.00  0.00    -0.043 C 
BRANCH  16  17
ATOM     17  C   UNL     1       2.095  -4.950   6.033  0.00  0.00    -0.057 A 
ATOM     18  C   UNL     1       2.474  -3.797   6.695  0.00  0.00    +0.047 A 
ATOM     19  C   UNL     1       1.834  -3.428   7.870  0.00  0.00    +0.124 A 
ATOM     20  C   UNL     1       0.815  -4.217   8.380  0.00  0.00    +0.091 A 
ATOM     21  C   UNL     1       0.437  -5.373   7.714  0.00  0.00    +0.124 A 
ATOM     22  C   UNL     1       1.076  -5.735   6.537  0.00  0.00    +0.047 A 
BRANCH  21  23
ATOM     23  O   UNL     1      -0.562  -6.149   8.212  0.00  0.00    -0.495 OA
ATOM     24  C   UNL     1      -1.179  -5.713   9.425  0.00  0.00    +0.277 C 
ENDBRANCH  21  23
BRANCH  19  25
ATOM     25  O   UNL     1       2.207  -2.295   8.520  0.00  0.00    -0.495 OA
ATOM     26  C   UNL     1       1.505  -1.977   9.724  0.00  0.00    +0.277 C 
ENDBRANCH  19  25
ENDBRANCH  16  17
ENDBRANCH  12  16
ENDBRANCH   1   9
BRANCH   1  27
ATOM     27  S   UNL     1      -0.422  -4.974  -1.385  0.00  0.00    +0.075 S 
ATOM     28  O   UNL     1      -0.708  -6.305  -0.976  0.00  0.00    -0.150 OA
ATOM     29  O   UNL     1      -1.382  -4.155  -2.039  0.00  0.00    -0.150 OA
BRANCH  27  30
ATOM     30  C   UNL     1       0.975  -5.066  -2.455  0.00  0.00    +0.109 A 
ATOM     31  C   UNL     1       1.152  -4.115  -3.442  0.00  0.00    +0.031 A 
ATOM     32  C   UNL     1       2.247  -4.185  -4.282  0.00  0.00    +0.040 A 
ATOM     33  C   UNL     1       3.168  -5.208  -4.134  0.00  0.00    +0.124 A 
ATOM     34  C   UNL     1       2.990  -6.161  -3.144  0.00  0.00    +0.040 A 
ATOM     35  C   UNL     1       1.896  -6.085  -2.303  0.00  0.00    +0.031 A 
ATOM     36  F   UNL     1       4.239  -5.278  -4.954  0.00  0.00    -0.205 F 
ENDBRANCH  27  30
ENDBRANCH   1  27
TORSDOF 8
