REMARK  Name = ZINC12798216
REMARK  6 active torsions:
REMARK  status: ('A' for Active; 'I' for Inactive)
REMARK    1  A    between atoms: C_1  and  C_2
REMARK    2  A    between atoms: C_2  and  C_4
REMARK    3  A    between atoms: C_2  and  N_19
REMARK    4  A    between atoms: C_9  and  C_14
REMARK    5  A    between atoms: N_22  and  S_25
REMARK    6  A    between atoms: S_25  and  C_28
REMARK                            x       y       z     vdW  Elec       q    Type
REMARK                         _______ _______ _______ _____ _____    ______ ____
ROOT
ATOM      1  C   UNL     1      -6.468   6.720  -3.314  0.00  0.00    -0.005 C 
ATOM      2  C   UNL     1      -5.043   7.271  -3.407  0.00  0.00    -0.004 C 
ENDROOT
BRANCH   2   3
ATOM      3  C   UNL     1      -4.532   7.105  -4.815  0.00  0.00    +0.098 A 
ATOM      4  N   UNL     1      -4.558   5.878  -5.395  0.00  0.00    -0.197 NA
ATOM      5  C   UNL     1      -4.110   5.688  -6.650  0.00  0.00    +0.282 A 
ATOM      6  O   UNL     1      -4.141   4.579  -7.156  0.00  0.00    -0.265 OA
ATOM      7  C   UNL     1      -3.599   6.806  -7.381  0.00  0.00    +0.080 A 
ATOM      8  C   UNL     1      -3.064   6.856  -8.737  0.00  0.00    +0.010 A 
ATOM      9  C   UNL     1      -2.628   8.045  -9.222  0.00  0.00    +0.057 A 
ATOM     10  S   UNL     1      -2.925   9.174  -7.875  0.00  0.00    -0.078 S 
ATOM     11  C   UNL     1      -3.612   8.035  -6.701  0.00  0.00    +0.092 A 
ATOM     12  N   UNL     1      -4.072   8.145  -5.457  0.00  0.00    -0.339 N 
ATOM     13  H   UNL     1      -4.059   9.131  -4.969  0.00  0.00    +0.167 HD
BRANCH   8  14
ATOM     14  C   UNL     1      -2.992   5.633  -9.564  0.00  0.00    +0.021 A 
ATOM     15  C   UNL     1      -3.425   5.433 -10.848  0.00  0.00    +0.016 A 
ATOM     16  C   UNL     1      -3.249   4.191 -11.420  0.00  0.00    +0.008 A 
ATOM     17  C   UNL     1      -2.655   3.208 -10.697  0.00  0.00    +0.046 A 
ATOM     18  S   UNL     1      -2.327   4.030  -9.147  0.00  0.00    -0.097 S 
ENDBRANCH   8  14
ENDBRANCH   2   3
BRANCH   2  19
ATOM     19  N   UNL     1      -5.045   8.696  -3.051  0.00  0.00    +0.388 N 
ATOM     20  C   UNL     1      -5.205   8.876  -1.602  0.00  0.00    -0.060 C 
ATOM     21  C   UNL     1      -5.020  10.356  -1.251  0.00  0.00    +0.091 C 
ATOM     22  N   UNL     1      -5.938  11.151  -2.081  0.00  0.00    -0.180 NA
ATOM     23  C   UNL     1      -5.933  10.926  -3.535  0.00  0.00    +0.091 C 
ATOM     24  C   UNL     1      -6.081   9.424  -3.796  0.00  0.00    -0.060 C 
ATOM     25  H   UNL     1      -4.070   9.118  -3.335  0.00  0.00    -0.081 HD
BRANCH  22  26
ATOM     26  S   UNL     1      -6.950  12.269  -1.398  0.00  0.00    +0.061 S 
ATOM     27  O   UNL     1      -6.361  12.649  -0.162  0.00  0.00    -0.153 OA
ATOM     28  O   UNL     1      -7.260  13.212  -2.415  0.00  0.00    -0.153 OA
BRANCH  26  29
ATOM     29  C   UNL     1      -8.454  11.440  -1.005  0.00  0.00    +0.105 A 
ATOM     30  C   UNL     1      -9.478  11.389  -1.931  0.00  0.00    +0.028 A 
ATOM     31  C   UNL     1     -10.656  10.734  -1.625  0.00  0.00    +0.002 A 
ATOM     32  C   UNL     1     -10.814  10.138  -0.388  0.00  0.00    +0.000 A 
ATOM     33  C   UNL     1      -9.791  10.193   0.541  0.00  0.00    +0.002 A 
ATOM     34  C   UNL     1      -8.611  10.844   0.233  0.00  0.00    +0.028 A 
ENDBRANCH  26  29
ENDBRANCH  22  26
ENDBRANCH   2  19
TORSDOF 5
