REMARK  Name = ZINC08531629
REMARK  10 active torsions:
REMARK  status: ('A' for Active; 'I' for Inactive)
REMARK    1  A    between atoms: C_1  and  C_2
REMARK    2  A    between atoms: C_2  and  C_4
REMARK    3  A    between atoms: C_2  and  N_12
REMARK    4  A    between atoms: N_12  and  C_13
REMARK    5  A    between atoms: C_13  and  C_15
REMARK    6  A    between atoms: C_13  and  C_16
REMARK    7  A    between atoms: N_18  and  C_19
REMARK    8  A    between atoms: C_22  and  O_28
REMARK    9  A    between atoms: C_24  and  N_25
REMARK   10  A    between atoms: O_28  and  C_29
REMARK                            x       y       z     vdW  Elec       q    Type
REMARK                         _______ _______ _______ _____ _____    ______ ____
ROOT
ATOM      1  C   UNL     1      -0.114  -0.118  -2.400  0.00  0.00    +0.014 C 
ATOM      2  C   UNL     1      -1.451  -0.863  -2.401  0.00  0.00    -0.004 C 
ENDROOT
BRANCH   1   3
ATOM      3  C   UNL     1       0.662  -0.479  -3.640  0.00  0.00    +0.203 C 
ATOM      4  O   UNL     1       1.752  -1.003  -3.543  0.00  0.00    -0.277 OA
ATOM      5  N   UNL     1       0.146  -0.221  -4.858  0.00  0.00    -0.285 N 
ATOM      6  H   UNL     1      -0.752   0.138  -4.938  0.00  0.00    +0.155 HD
BRANCH   5   7
ATOM      7  C   UNL     1       0.905  -0.470  -6.009  0.00  0.00    +0.064 A 
ATOM      8  C   UNL     1       1.769  -1.557  -6.049  0.00  0.00    +0.029 A 
ATOM      9  C   UNL     1       2.517  -1.802  -7.184  0.00  0.00    +0.047 A 
ATOM     10  C   UNL     1       2.407  -0.962  -8.282  0.00  0.00    +0.122 A 
ATOM     11  C   UNL     1       1.545   0.124  -8.242  0.00  0.00    +0.080 A 
ATOM     12  C   UNL     1       0.791   0.367  -7.111  0.00  0.00    +0.151 A 
BRANCH  12  13
ATOM     13  N   UNL     1      -0.133   1.522  -7.071  0.00  0.00    +0.058 N 
ATOM     14  O   UNL     1      -0.306   2.193  -8.062  0.00  0.00    -0.126 OA
ATOM     15  O   UNL     1      -0.716   1.795  -6.047  0.00  0.00    -0.126 OA
ENDBRANCH  12  13
BRANCH  10  16
ATOM     16  O   UNL     1       3.145  -1.203  -9.399  0.00  0.00    -0.495 OA
ATOM     17  C   UNL     1       4.012  -2.338  -9.370  0.00  0.00    +0.277 C 
ENDBRANCH  10  16
ENDBRANCH   5   7
ENDBRANCH   1   3
BRANCH   1  18
ATOM     18  N   UNL     1       0.659  -0.500  -1.211  0.00  0.00    +0.391 N 
ATOM     19  H   UNL     1       1.572  -0.074  -1.252  0.00  0.00    -0.084 HD
ATOM     20  H   UNL     1       0.757  -1.504  -1.181  0.00  0.00    -0.084 HD
BRANCH  18  22
ATOM     21  C   UNL     1      -0.082   1.488   0.013  0.00  0.00    -0.009 C 
ATOM     22  C   UNL     1      -0.042  -0.041  -0.004  0.00  0.00    -0.042 C 
BRANCH  22  23
ATOM     23  C   UNL     1       0.685  -0.538   1.219  0.00  0.00    -0.043 A 
ATOM     24  C   UNL     1       2.036  -0.826   1.150  0.00  0.00    +0.005 A 
ATOM     25  C   UNL     1       2.703  -1.282   2.271  0.00  0.00    +0.020 A 
ATOM     26  C   UNL     1       2.021  -1.450   3.463  0.00  0.00    +0.042 A 
ATOM     27  C   UNL     1       0.670  -1.161   3.533  0.00  0.00    +0.040 A 
ATOM     28  C   UNL     1       0.003  -0.700   2.411  0.00  0.00    +0.044 A 
ATOM     29 CL   UNL     1      -1.692  -0.332   2.499  0.00  0.00    -0.083 Cl
ATOM     30 CL   UNL     1       2.859  -2.022   4.871  0.00  0.00    -0.083 Cl
ENDBRANCH  22  23
ENDBRANCH  18  22
ENDBRANCH   1  18
TORSDOF 7
