REMARK  Name = ZINC36523580
REMARK  15 active torsions:
REMARK  status: ('A' for Active; 'I' for Inactive)
REMARK    1  A    between atoms: C_1  and  C_2
REMARK    2  A    between atoms: C_2  and  C_3
REMARK    3  A    between atoms: C_2  and  C_4
REMARK    4  A    between atoms: C_2  and  N_5
REMARK    5  A    between atoms: C_6  and  C_8
REMARK    6  A    between atoms: C_8  and  C_10
REMARK    7  A    between atoms: C_8  and  N_19
REMARK    8  A    between atoms: C_11  and  O_18
REMARK    9  A    between atoms: C_13  and  O_17
REMARK   10  A    between atoms: C_15  and  O_16
REMARK   11  A    between atoms: N_19  and  C_20
REMARK   12  A    between atoms: C_21  and  C_23
REMARK   13  A    between atoms: C_29  and  O_31
REMARK   14  A    between atoms: O_31  and  C_32
REMARK   15  A    between atoms: C_32  and  C_33
REMARK                            x       y       z     vdW  Elec       q    Type
REMARK                         _______ _______ _______ _____ _____    ______ ____
ROOT
ATOM      1  C   UNL     1       2.684  -0.667  -2.574  0.00  0.00    +0.199 C 
ENDROOT
BRANCH   1   2
ATOM      2  C   UNL     1       1.589  -0.366  -3.565  0.00  0.00    +0.065 A 
ATOM      3  C   UNL     1       1.746  -0.714  -4.898  0.00  0.00    +0.129 A 
ATOM      4  C   UNL     1       0.738  -0.437  -5.810  0.00  0.00    +0.091 A 
ATOM      5  C   UNL     1      -0.426   0.187  -5.388  0.00  0.00    +0.124 A 
ATOM      6  C   UNL     1      -0.584   0.533  -4.054  0.00  0.00    +0.091 A 
ATOM      7  C   UNL     1       0.422   0.252  -3.142  0.00  0.00    +0.129 A 
BRANCH   7   8
ATOM      8  O   UNL     1       0.267   0.588  -1.834  0.00  0.00    -0.506 OA
ATOM      9  H   UNL     1       0.583   1.475  -1.615  0.00  0.00    +0.292 HD
ENDBRANCH   7   8
BRANCH   5  10
ATOM     10  O   UNL     1      -1.414   0.459  -6.281  0.00  0.00    -0.507 OA
ATOM     11  H   UNL     1      -2.063  -0.251  -6.378  0.00  0.00    +0.292 HD
ENDBRANCH   5  10
BRANCH   3  12
ATOM     12  O   UNL     1       2.887  -1.325  -5.311  0.00  0.00    -0.506 OA
ATOM     13  H   UNL     1       2.882  -2.285  -5.200  0.00  0.00    +0.292 HD
ENDBRANCH   3  12
ENDBRANCH   1   2
BRANCH   1  15
ATOM     14  N   UNL     1       1.430  -2.195  -1.088  0.00  0.00    -0.309 N 
ATOM     15  C   UNL     1       2.074  -1.022  -1.242  0.00  0.00    +0.239 C 
ATOM     16  O   UNL     1       2.162  -0.251  -0.310  0.00  0.00    -0.273 OA
ATOM     17  H   UNL     1       1.359  -2.812  -1.833  0.00  0.00    +0.149 HD
BRANCH  14  19
ATOM     18  C   UNL     1      -0.212  -1.491   0.583  0.00  0.00    +0.031 C 
ATOM     19  C   UNL     1       0.836  -2.540   0.207  0.00  0.00    +0.026 C 
ATOM     20  C   UNL     1       1.930  -2.575   1.276  0.00  0.00    +0.031 C 
ATOM     21  C   UNL     1       0.171  -3.915   0.113  0.00  0.00    +0.031 C 
ENDBRANCH  14  19
ENDBRANCH   1  15
BRANCH   1  22
ATOM     22  N   UNL     1       3.541   0.511  -2.420  0.00  0.00    -0.287 N 
ATOM     23  C   UNL     1       2.948   1.810  -2.091  0.00  0.00    +0.133 C 
ATOM     24  C   UNL     1       4.874   0.401  -2.582  0.00  0.00    +0.237 C 
ATOM     25  O   UNL     1       5.365  -0.674  -2.855  0.00  0.00    -0.274 OA
BRANCH  24  26
ATOM     26  C   UNL     1       5.755   1.613  -2.424  0.00  0.00    +0.165 C 
ATOM     27  C   UNL     1       5.721   2.459  -3.714  0.00  0.00    +0.033 C 
ATOM     28  C   UNL     1       7.188   2.943  -3.852  0.00  0.00    +0.021 C 
ATOM     29  C   UNL     1       7.971   1.716  -3.321  0.00  0.00    +0.112 C 
ATOM     30  N   UNL     1       7.149   1.194  -2.210  0.00  0.00    -0.256 N 
ATOM     31  C   UNL     1       7.597   0.458  -1.174  0.00  0.00    +0.404 C 
ATOM     32  O   UNL     1       6.824   0.082  -0.316  0.00  0.00    -0.226 OA
BRANCH  31  33
ATOM     33  O   UNL     1       8.902   0.138  -1.091  0.00  0.00    -0.445 OA
BRANCH  33  34
ATOM     34  C   UNL     1       9.308  -0.645   0.033  0.00  0.00    +0.269 C 
BRANCH  34  35
ATOM     35  C   UNL     1      10.791  -0.902  -0.043  0.00  0.00    -0.010 A 
ATOM     36  C   UNL     1      11.266  -2.019  -0.705  0.00  0.00    +0.007 A 
ATOM     37  C   UNL     1      12.626  -2.255  -0.775  0.00  0.00    +0.000 A 
ATOM     38  C   UNL     1      13.512  -1.374  -0.182  0.00  0.00    +0.000 A 
ATOM     39  C   UNL     1      13.037  -0.257   0.480  0.00  0.00    +0.000 A 
ATOM     40  C   UNL     1      11.677  -0.019   0.546  0.00  0.00    +0.007 A 
ENDBRANCH  34  35
ENDBRANCH  33  34
ENDBRANCH  31  33
ENDBRANCH  24  26
ENDBRANCH   1  22
TORSDOF 11
