REMARK  Name = ZINC14475751
REMARK  3 active torsions:
REMARK  status: ('A' for Active; 'I' for Inactive)
REMARK    1  A    between atoms: C_3  and  O_28
REMARK    2  A    between atoms: C_4  and  C_10
REMARK    3  A    between atoms: C_6  and  N_7
REMARK                            x       y       z     vdW  Elec       q    Type
REMARK                         _______ _______ _______ _____ _____    ______ ____
ROOT
ATOM      1  C   UNL     1      -1.219  -2.050   0.451  0.00  0.00    +0.108 C 
ATOM      2  C   UNL     1      -0.643  -3.275  -0.266  0.00  0.00    +0.029 C 
ATOM      3  C   UNL     1      -1.062  -4.531   0.553  0.00  0.00    +0.033 C 
ATOM      4  C   UNL     1      -0.029  -4.589   1.661  0.00  0.00    -0.030 C 
ATOM      5  C   UNL     1       1.049  -3.928   1.319  0.00  0.00    -0.023 C 
ATOM      6  C   UNL     1       0.883  -3.335  -0.060  0.00  0.00    +0.050 C 
ATOM      7  C   UNL     1       1.539  -1.995  -0.162  0.00  0.00    -0.001 A 
ATOM      8  C   UNL     1       0.814  -0.813  -0.176  0.00  0.00    +0.034 A 
ATOM      9  C   UNL     1       1.464   0.411  -0.276  0.00  0.00    +0.043 A 
ATOM     10  C   UNL     1       2.842   0.458  -0.361  0.00  0.00    +0.044 A 
ATOM     11  C   UNL     1       3.570  -0.719  -0.346  0.00  0.00    +0.040 A 
ATOM     12  C   UNL     1       2.925  -1.935  -0.247  0.00  0.00    +0.048 A 
ATOM     13 CL   UNL     1       3.852  -3.403  -0.229  0.00  0.00    -0.083 Cl
ATOM     14 CL   UNL     1       3.657   1.986  -0.487  0.00  0.00    -0.083 Cl
ATOM     15  N   UNL     1      -0.581  -0.843  -0.085  0.00  0.00    -0.336 N 
ATOM     16  H   UNL     1      -1.199   0.009  -0.404  0.00  0.00    +0.147 HD
ENDROOT
BRANCH   1  20
ATOM     17  C   UNL     1      -0.432  -2.342   4.643  0.00  0.00    +0.036 A 
ATOM     18  C   UNL     1      -1.643  -2.777   4.139  0.00  0.00    +0.048 A 
ATOM     19  C   UNL     1      -1.903  -2.679   2.780  0.00  0.00    +0.122 A 
ATOM     20  C   UNL     1      -0.942  -2.154   1.928  0.00  0.00    +0.017 A 
ATOM     21  C   UNL     1       0.267  -1.721   2.437  0.00  0.00    +0.041 A 
ATOM     22  C   UNL     1       0.522  -1.815   3.793  0.00  0.00    +0.127 A 
BRANCH  22  23
ATOM     23  N   UNL     1       1.818  -1.350   4.335  0.00  0.00    +0.056 N 
ATOM     24  O   UNL     1       2.660  -0.885   3.587  0.00  0.00    -0.126 OA
ATOM     25  O   UNL     1       2.044  -1.432   5.529  0.00  0.00    -0.126 OA
ENDBRANCH  22  23
BRANCH  19  26
ATOM     26  O   UNL     1      -3.095  -3.102   2.283  0.00  0.00    -0.506 OA
ATOM     27  H   UNL     1      -3.300  -3.024   1.205  0.00  0.00    +0.292 HD
ENDBRANCH  19  26
ENDBRANCH   1  20
TORSDOF 3
