REMARK  Name = ZINC35004904
REMARK  14 active torsions:
REMARK  status: ('A' for Active; 'I' for Inactive)
REMARK    1  A    between atoms: C_1  and  N_2
REMARK    2  A    between atoms: N_2  and  C_3
REMARK    3  A    between atoms: N_2  and  C_4
REMARK    4  A    between atoms: C_4  and  C_5
REMARK    5  A    between atoms: C_5  and  N_6
REMARK    6  A    between atoms: N_6  and  C_7
REMARK    7  A    between atoms: N_6  and  S_24
REMARK    8  A    between atoms: C_7  and  C_8
REMARK    9  A    between atoms: C_15  and  O_22
REMARK   10  A    between atoms: C_16  and  O_20
REMARK   11  A    between atoms: O_20  and  C_21
REMARK   12  A    between atoms: O_22  and  C_23
REMARK   13  A    between atoms: S_24  and  C_27
REMARK   14  A    between atoms: C_30  and  N_33
REMARK                            x       y       z     vdW  Elec       q    Type
REMARK                         _______ _______ _______ _____ _____    ______ ____
ROOT
ATOM      1  N   UNL     1       0.637  -0.589   3.635  0.00  0.00    -0.170 NA
ENDROOT
BRANCH   1   2
ATOM      2  S   UNL     1       0.226  -2.045   4.307  0.00  0.00    +0.061 S 
ATOM      3  O   UNL     1       0.631  -1.993   5.668  0.00  0.00    -0.153 OA
ATOM      4  O   UNL     1      -1.117  -2.305   3.921  0.00  0.00    -0.153 OA
BRANCH   2   5
ATOM      5  C   UNL     1       1.220  -3.276   3.532  0.00  0.00    +0.106 A 
ATOM      6  C   UNL     1       0.772  -3.905   2.385  0.00  0.00    +0.031 A 
ATOM      7  C   UNL     1       1.552  -4.871   1.777  0.00  0.00    +0.034 A 
ATOM      8  C   UNL     1       2.780  -5.207   2.315  0.00  0.00    +0.126 A 
ATOM      9  C   UNL     1       3.228  -4.578   3.461  0.00  0.00    +0.034 A 
ATOM     10  C   UNL     1       2.450  -3.609   4.067  0.00  0.00    +0.031 A 
BRANCH   8  11
ATOM     11  N   UNL     1       3.614  -6.242   1.664  0.00  0.00    +0.056 N 
ATOM     12  O   UNL     1       3.222  -6.793   0.662  0.00  0.00    -0.126 OA
ATOM     13  O   UNL     1       4.688  -6.537   2.135  0.00  0.00    -0.126 OA
ENDBRANCH   8  11
ENDBRANCH   2   5
ENDBRANCH   1   2
BRANCH   1  14
ATOM     14  C   UNL     1      -0.071  -0.103   2.448  0.00  0.00    +0.091 C 
BRANCH  14  15
ATOM     15  C   UNL     1       0.713  -0.491   1.192  0.00  0.00    -0.062 C 
BRANCH  15  17
ATOM     16  C   UNL     1      -0.018   1.465   0.010  0.00  0.00    -0.097 C 
ATOM     17  N   UNL     1       0.002  -0.004   0.002  0.00  0.00    +0.377 N 
ATOM     18  C   UNL     1       0.690  -0.478  -1.207  0.00  0.00    -0.097 C 
ATOM     19  H   UNL     1      -0.945  -0.353   0.009  0.00  0.00    -0.083 HD
ENDBRANCH  15  17
ENDBRANCH  14  15
ENDBRANCH   1  14
BRANCH   1  20
ATOM     20  C   UNL     1       1.710   0.214   4.227  0.00  0.00    +0.205 C 
BRANCH  20  21
ATOM     21  C   UNL     1       1.116   1.226   5.173  0.00  0.00    +0.232 C 
ATOM     22  O   UNL     1      -0.085   1.272   5.336  0.00  0.00    -0.274 OA
ATOM     23  N   UNL     1       1.920   2.080   5.837  0.00  0.00    -0.296 N 
ATOM     24  C   UNL     1       1.372   3.076   6.773  0.00  0.00    +0.113 C 
ATOM     25  C   UNL     1       1.887   2.740   8.171  0.00  0.00    +0.054 C 
ATOM     26  C   UNL     1       3.371   2.484   8.149  0.00  0.00    -0.038 A 
ATOM     27  C   UNL     1       4.059   2.589   9.353  0.00  0.00    +0.053 A 
ATOM     28  C   UNL     1       5.421   2.358   9.408  0.00  0.00    +0.162 A 
ATOM     29  C   UNL     1       6.109   2.016   8.247  0.00  0.00    +0.162 A 
ATOM     30  C   UNL     1       5.423   1.917   7.051  0.00  0.00    +0.054 A 
ATOM     31  C   UNL     1       4.055   2.155   7.000  0.00  0.00    -0.023 A 
ATOM     32  C   UNL     1       3.376   2.051   5.662  0.00  0.00    +0.143 C 
BRANCH  29  33
ATOM     33  O   UNL     1       7.448   1.783   8.289  0.00  0.00    -0.491 OA
ATOM     34  C   UNL     1       8.085   1.437   7.058  0.00  0.00    +0.277 C 
ENDBRANCH  29  33
BRANCH  28  35
ATOM     35  O   UNL     1       6.085   2.465  10.590  0.00  0.00    -0.491 OA
ATOM     36  C   UNL     1       5.312   2.820  11.738  0.00  0.00    +0.277 C 
ENDBRANCH  28  35
ENDBRANCH  20  21
ENDBRANCH   1  20
TORSDOF 10
