REMARK  Name = ZINC39737095
REMARK  6 active torsions:
REMARK  status: ('A' for Active; 'I' for Inactive)
REMARK    1  A    between atoms: C_1  and  C_2
REMARK    2  A    between atoms: C_9  and  N_12
REMARK    3  A    between atoms: C_13  and  C_15
REMARK    4  A    between atoms: N_17  and  C_18
REMARK    5  A    between atoms: C_18  and  C_19
REMARK    6  A    between atoms: C_19  and  C_20
REMARK                            x       y       z     vdW  Elec       q    Type
REMARK                         _______ _______ _______ _____ _____    ______ ____
ROOT
ATOM      1  C   UNL     1       2.657  -7.159   2.944  0.00  0.00    +0.299 C 
ATOM      2  O   UNL     1       3.555  -7.122   2.128  0.00  0.00    -0.265 OA
ATOM      3  N   UNL     1       2.781  -7.921   4.048  0.00  0.00    -0.307 N 
ATOM      4  H   UNL     1       2.064  -7.950   4.700  0.00  0.00    +0.149 HD
ENDROOT
BRANCH   1   6
ATOM      5  N   UNL     1       1.291  -5.596   1.619  0.00  0.00    -0.280 N 
ATOM      6  C   UNL     1       1.415  -6.358   2.724  0.00  0.00    +0.301 C 
ATOM      7  O   UNL     1       0.517  -6.394   3.540  0.00  0.00    -0.265 OA
ATOM      8  H   UNL     1       2.008  -5.567   0.967  0.00  0.00    +0.152 HD
BRANCH   5  17
ATOM      9  C   UNL     1      -0.018   1.503   0.010  0.00  0.00    +0.044 C 
ATOM     10  C   UNL     1       0.002  -0.004   0.002  0.00  0.00    -0.049 A 
ATOM     11  C   UNL     1       0.006  -0.700  -1.193  0.00  0.00    +0.005 A 
ATOM     12  C   UNL     1       0.025  -2.075  -1.215  0.00  0.00    +0.024 A 
ATOM     13  C   UNL     1       0.040  -2.822  -0.023  0.00  0.00    +0.043 A 
ATOM     14  C   UNL     1       0.035  -2.090   1.168  0.00  0.00    +0.032 A 
ATOM     15  C   UNL     1       0.023  -0.714   1.191  0.00  0.00    +0.020 A 
ATOM     16  S   UNL     1       0.057  -3.310   2.462  0.00  0.00    -0.082 S 
ATOM     17  C   UNL     1       0.072  -4.811   1.404  0.00  0.00    +0.224 C 
ATOM     18  N   UNL     1       0.059  -4.213   0.062  0.00  0.00    -0.316 N 
ATOM     19  H   UNL     1       0.062  -4.766  -0.735  0.00  0.00    +0.149 HD
ENDBRANCH   5  17
ENDBRANCH   1   6
BRANCH   3  20
ATOM     20  C   UNL     1       4.000  -8.705   4.264  0.00  0.00    +0.109 C 
BRANCH  20  21
ATOM     21  C   UNL     1       3.885  -9.474   5.581  0.00  0.00    +0.056 C 
BRANCH  21  22
ATOM     22  C   UNL     1       5.138 -10.281   5.803  0.00  0.00    -0.021 A 
ATOM     23  C   UNL     1       6.383  -9.808   6.413  0.00  0.00    +0.003 A 
ATOM     24  C   UNL     1       6.800  -8.586   6.943  0.00  0.00    +0.010 A 
ATOM     25  C   UNL     1       8.062  -8.463   7.453  0.00  0.00    +0.001 A 
ATOM     26  C   UNL     1       8.933  -9.544   7.447  0.00  0.00    +0.002 A 
ATOM     27  C   UNL     1       8.541 -10.759   6.929  0.00  0.00    +0.026 A 
ATOM     28  C   UNL     1       7.261 -10.907   6.406  0.00  0.00    +0.047 A 
ATOM     29  N   UNL     1       6.588 -11.962   5.832  0.00  0.00    -0.360 N 
ATOM     30  C   UNL     1       5.323 -11.572   5.484  0.00  0.00    +0.087 A 
ATOM     31  H   UNL     1       6.954 -12.850   5.697  0.00  0.00    +0.165 HD
ENDBRANCH  21  22
ENDBRANCH  20  21
ENDBRANCH   3  20
TORSDOF 5
