REMARK  Name = ZINC32507894
REMARK  7 active torsions:
REMARK  status: ('A' for Active; 'I' for Inactive)
REMARK    1  A    between atoms: C_1  and  C_2
REMARK    2  A    between atoms: N_13  and  C_16
REMARK    3  A    between atoms: C_16  and  C_18
REMARK    4  A    between atoms: C_16  and  C_20
REMARK    5  A    between atoms: C_18  and  O_19
REMARK    6  A    between atoms: C_20  and  C_21
REMARK    7  A    between atoms: C_20  and  C_22
REMARK                            x       y       z     vdW  Elec       q    Type
REMARK                         _______ _______ _______ _____ _____    ______ ____
ROOT
ATOM      1  C   UNL     1       1.397   3.572   0.259  0.00  0.00    +0.008 C 
ATOM      2  C   UNL     1       1.414   2.064  -0.000  0.00  0.00    -0.009 C 
ATOM      3  C   UNL     1      -0.019   1.524   0.010  0.00  0.00    +0.008 C 
ATOM      4  C   UNL     1       0.002  -0.004   0.002  0.00  0.00    +0.037 C 
ATOM      5  C   UNL     1       0.873  -0.481  -1.157  0.00  0.00    -0.023 A 
ATOM      6  C   UNL     1       1.763   0.357  -1.738  0.00  0.00    -0.004 A 
ATOM      7  S   UNL     1       2.538  -0.601  -3.016  0.00  0.00    -0.073 S 
ATOM      8  C   UNL     1       1.671  -2.118  -2.769  0.00  0.00    +0.116 A 
ATOM      9  C   UNL     1       0.801  -1.828  -1.695  0.00  0.00    +0.076 A 
ATOM     10  C   UNL     1      -0.058  -2.888  -1.248  0.00  0.00    +0.263 A 
ATOM     11  O   UNL     1      -0.846  -2.741  -0.330  0.00  0.00    -0.267 OA
ATOM     12  N   UNL     1       0.061  -4.061  -1.914  0.00  0.00    -0.293 N 
ATOM     13  C   UNL     1       0.930  -4.245  -2.938  0.00  0.00    +0.203 A 
ATOM     14  N   UNL     1       1.732  -3.299  -3.375  0.00  0.00    -0.230 NA
ATOM     15  C   UNL     1       2.034   1.785  -1.377  0.00  0.00    +0.046 C 
ENDROOT
BRANCH  12  16
ATOM     16  C   UNL     1      -0.787  -5.184  -1.508  0.00  0.00    +0.120 C 
BRANCH  16  17
ATOM     17  C   UNL     1      -1.660  -5.616  -2.688  0.00  0.00    +0.008 C 
ATOM     18  C   UNL     1      -2.546  -6.789  -2.264  0.00  0.00    +0.009 C 
ATOM     19  C   UNL     1      -2.540  -4.444  -3.128  0.00  0.00    +0.009 C 
ENDBRANCH  16  17
BRANCH  16  20
ATOM     20  C   UNL     1       0.093  -6.356  -1.069  0.00  0.00    +0.181 C 
BRANCH  20  21
ATOM     21  O   UNL     1       0.843  -6.834  -2.187  0.00  0.00    -0.393 OA
ATOM     22  H   UNL     1       1.536  -7.679  -2.064  0.00  0.00    +0.209 HD
ENDBRANCH  20  21
ENDBRANCH  16  20
ENDBRANCH  12  16
TORSDOF 4
