REMARK  Name = ZINC45221957
REMARK  7 active torsions:
REMARK  status: ('A' for Active; 'I' for Inactive)
REMARK    1  A    between atoms: C_1  and  C_2
REMARK    2  A    between atoms: C_4  and  C_26
REMARK    3  A    between atoms: C_5  and  N_22
REMARK    4  A    between atoms: C_6  and  N_8
REMARK    5  A    between atoms: C_9  and  C_11
REMARK    6  A    between atoms: C_11  and  C_12
REMARK    7  A    between atoms: C_23  and  C_25
REMARK                            x       y       z     vdW  Elec       q    Type
REMARK                         _______ _______ _______ _____ _____    ______ ____
ROOT
ATOM      1  N   UNL     1       0.674  -3.146   2.078  0.00  0.00    -0.284 N 
ATOM      2  C   UNL     1       0.908  -2.658   3.312  0.00  0.00    +0.218 C 
ATOM      3  O   UNL     1       0.890  -1.460   3.504  0.00  0.00    -0.275 OA
ATOM      4  H   UNL     1       0.746  -4.099   1.911  0.00  0.00    +0.155 HD
ENDROOT
BRANCH   1  10
ATOM      5  C   UNL     1       0.650   1.390   0.181  0.00  0.00    +0.044 C 
ATOM      6  C   UNL     1       0.303  -0.074   0.088  0.00  0.00    -0.048 A 
ATOM      7  C   UNL     1      -0.358  -0.557  -1.026  0.00  0.00    +0.008 A 
ATOM      8  C   UNL     1      -0.680  -1.898  -1.117  0.00  0.00    -0.027 A 
ATOM      9  C   UNL     1      -0.339  -2.764  -0.088  0.00  0.00    +0.058 A 
ATOM     10  C   UNL     1       0.328  -2.277   1.035  0.00  0.00    +0.055 A 
ATOM     11  C   UNL     1       0.651  -0.930   1.116  0.00  0.00    +0.028 A 
ATOM     12  C   UNL     1      -1.401  -2.419  -2.333  0.00  0.00    +0.046 C 
BRANCH   9  13
ATOM     13  N   UNL     1      -0.664  -4.123  -0.178  0.00  0.00    -0.284 N 
ATOM     14  C   UNL     1      -1.096  -4.786   0.913  0.00  0.00    +0.214 C 
ATOM     15  O   UNL     1      -1.253  -4.194   1.960  0.00  0.00    -0.276 OA
ATOM     16  C   UNL     1      -1.384  -6.263   0.832  0.00  0.00    +0.109 C 
ATOM     17  H   UNL     1      -0.579  -4.587  -1.026  0.00  0.00    +0.155 HD
ENDBRANCH   9  13
ENDBRANCH   1  10
BRANCH   2  18
ATOM     18  C   UNL     1       1.192  -3.600   4.454  0.00  0.00    +0.103 C 
BRANCH  18  19
ATOM     19  C   UNL     1       1.420  -2.795   5.734  0.00  0.00    -0.020 C 
ATOM     20  C   UNL     1       2.612  -1.856   5.541  0.00  0.00    +0.011 C 
ATOM     21  C   UNL     1       2.840  -1.051   6.822  0.00  0.00    -0.010 C 
ATOM     22  C   UNL     1       3.128  -2.007   7.981  0.00  0.00    +0.007 C 
ATOM     23  C   UNL     1       1.936  -2.947   8.174  0.00  0.00    -0.010 C 
ATOM     24  C   UNL     1       1.708  -3.752   6.893  0.00  0.00    +0.011 C 
ATOM     25  C   UNL     1       0.685  -2.125   8.490  0.00  0.00    +0.007 C 
ATOM     26  C   UNL     1       0.397  -1.169   7.331  0.00  0.00    -0.010 C 
ATOM     27  C   UNL     1       1.589  -0.229   7.138  0.00  0.00    +0.007 C 
ATOM     28  C   UNL     1       0.169  -1.973   6.050  0.00  0.00    +0.011 C 
ENDBRANCH  18  19
ENDBRANCH   2  18
TORSDOF 4
