REMARK  Name = ZINC03346028
REMARK  7 active torsions:
REMARK  status: ('A' for Active; 'I' for Inactive)
REMARK    1  A    between atoms: C_1  and  C_2
REMARK    2  A    between atoms: C_6  and  N_9
REMARK    3  A    between atoms: C_7  and  C_8
REMARK    4  A    between atoms: C_13  and  S_15
REMARK    5  A    between atoms: S_15  and  C_16
REMARK    6  A    between atoms: C_16  and  C_17
REMARK    7  A    between atoms: N_19  and  C_20
REMARK                            x       y       z     vdW  Elec       q    Type
REMARK                         _______ _______ _______ _____ _____    ______ ____
ROOT
ATOM      1  S   UNL     1      -0.353  -8.497   3.374  0.00  0.00    -0.088 S 
ENDROOT
BRANCH   1   6
ATOM      2  N   UNL     1       0.050  -2.797   2.390  0.00  0.00    -0.292 N 
ATOM      3  C   UNL     1      -0.037  -4.185   2.383  0.00  0.00    +0.187 A 
ATOM      4  N   UNL     1      -0.044  -5.016   1.359  0.00  0.00    -0.125 NA
ATOM      5  N   UNL     1      -0.139  -6.371   1.578  0.00  0.00    -0.133 NA
ATOM      6  C   UNL     1      -0.222  -6.832   2.811  0.00  0.00    +0.160 A 
ATOM      7  S   UNL     1      -0.161  -5.319   3.757  0.00  0.00    -0.024 S 
ATOM      8  H   UNL     1       0.114  -2.320   3.232  0.00  0.00    +0.154 HD
BRANCH   2  14
ATOM      9  C   UNL     1       0.501   1.465  -0.015  0.00  0.00    +0.044 C 
ATOM     10  C   UNL     1       0.262  -0.023  -0.011  0.00  0.00    -0.046 A 
ATOM     11  C   UNL     1       0.039  -0.690  -1.202  0.00  0.00    +0.004 A 
ATOM     12  C   UNL     1      -0.180  -2.055  -1.202  0.00  0.00    +0.002 A 
ATOM     13  C   UNL     1      -0.177  -2.757  -0.012  0.00  0.00    +0.023 A 
ATOM     14  C   UNL     1       0.047  -2.090   1.185  0.00  0.00    +0.036 A 
ATOM     15  C   UNL     1       0.273  -0.719   1.181  0.00  0.00    -0.026 A 
ATOM     16  C   UNL     1       0.522   0.008   2.478  0.00  0.00    +0.046 C 
ENDBRANCH   2  14
ENDBRANCH   1   6
BRANCH   1  17
ATOM     17  C   UNL     1      -0.347  -9.478   1.848  0.00  0.00    +0.172 C 
BRANCH  17  18
ATOM     18  C   UNL     1      -0.456 -10.941   2.192  0.00  0.00    +0.224 C 
ATOM     19  O   UNL     1      -0.529 -11.288   3.351  0.00  0.00    -0.275 OA
ATOM     20  N   UNL     1      -0.471 -11.864   1.210  0.00  0.00    -0.308 N 
ATOM     21  H   UNL     1      -0.412 -11.587   0.282  0.00  0.00    +0.149 HD
BRANCH  20  22
ATOM     22  C   UNL     1      -0.576 -13.287   1.544  0.00  0.00    +0.103 C 
ATOM     23  C   UNL     1      -1.194 -14.036   0.365  0.00  0.00    +0.027 C 
ATOM     24  C   UNL     1      -1.096 -15.541   0.643  0.00  0.00    +0.007 C 
ATOM     25  C   UNL     1       0.372 -15.953   0.550  0.00  0.00    +0.035 C 
ATOM     26  C   UNL     1       1.230 -15.053   1.401  0.00  0.00    -0.042 A 
ATOM     27  C   UNL     1       0.796 -13.827   1.853  0.00  0.00    -0.024 A 
ATOM     28  C   UNL     1       1.640 -13.043   2.628  0.00  0.00    +0.006 A 
ATOM     29  C   UNL     1       2.907 -13.484   2.950  0.00  0.00    +0.000 A 
ATOM     30  C   UNL     1       3.341 -14.716   2.498  0.00  0.00    +0.000 A 
ATOM     31  C   UNL     1       2.505 -15.495   1.728  0.00  0.00    +0.004 A 
ENDBRANCH  20  22
ENDBRANCH  17  18
ENDBRANCH   1  17
TORSDOF 5
