REMARK  Name = ZINC57034789
REMARK  5 active torsions:
REMARK  status: ('A' for Active; 'I' for Inactive)
REMARK    1  A    between atoms: C_9  and  C_11
REMARK    2  A    between atoms: C_11  and  C_13
REMARK    3  A    between atoms: C_11  and  N_21
REMARK    4  A    between atoms: C_13  and  C_14
REMARK    5  A    between atoms: C_17  and  O_20
REMARK                            x       y       z     vdW  Elec       q    Type
REMARK                         _______ _______ _______ _____ _____    ______ ____
ROOT
ATOM      1  C   UNL     1       3.757  -3.322  -0.052  0.00  0.00    +0.145 C 
ENDROOT
BRANCH   1   2
ATOM      2  N   UNL     1       4.525  -3.421   1.192  0.00  0.00    -0.289 N 
ATOM      3  C   UNL     1       3.958  -3.954   2.292  0.00  0.00    +0.306 C 
ATOM      4  O   UNL     1       2.810  -4.351   2.253  0.00  0.00    -0.252 OA
ATOM      5  N   UNL     1       4.665  -4.045   3.437  0.00  0.00    -0.248 N 
ATOM      6  C   UNL     1       4.080  -4.594   4.572  0.00  0.00    +0.165 A 
ATOM      7  N   UNL     1       2.865  -5.076   4.714  0.00  0.00    -0.233 NA
ATOM      8  C   UNL     1       2.456  -5.567   5.870  0.00  0.00    +0.120 A 
ATOM      9  C   UNL     1       3.343  -5.551   6.894  0.00  0.00    +0.068 A 
ATOM     10  S   UNL     1       4.758  -4.810   6.097  0.00  0.00    -0.060 S 
ATOM     11  H   UNL     1       5.441  -3.104   1.223  0.00  0.00    +0.151 HD
ATOM     12  H   UNL     1       5.581  -3.728   3.468  0.00  0.00    +0.158 HD
ENDBRANCH   1   2
BRANCH   1  21
ATOM     13  C   UNL     1      -0.017   1.374   0.010  0.00  0.00    +0.002 A 
ATOM     14  C   UNL     1       1.170   2.094   0.002  0.00  0.00    +0.002 A 
ATOM     15  C   UNL     1       2.375   1.450  -0.013  0.00  0.00    +0.030 A 
ATOM     16  C   UNL     1       2.418   0.054  -0.021  0.00  0.00    +0.089 A 
ATOM     17  C   UNL     1       1.217  -0.675  -0.013  0.00  0.00    +0.066 A 
ATOM     18  C   UNL     1       0.002  -0.004   0.002  0.00  0.00    +0.028 A 
ATOM     19  N   UNL     1       1.580  -2.007  -0.024  0.00  0.00    -0.340 N 
ATOM     20  H   UNL     1       0.977  -2.767  -0.022  0.00  0.00    +0.167 HD
ATOM     21  C   UNL     1       2.939  -2.056  -0.038  0.00  0.00    +0.129 A 
ATOM     22  N   UNL     1       3.430  -0.852  -0.036  0.00  0.00    -0.231 NA
ENDBRANCH   1  21
BRANCH   1  23
ATOM     23  C   UNL     1       4.717  -3.295  -1.243  0.00  0.00    +0.065 C 
BRANCH  23  24
ATOM     24  C   UNL     1       5.447  -4.611  -1.330  0.00  0.00    -0.045 A 
ATOM     25  C   UNL     1       6.644  -4.781  -0.658  0.00  0.00    +0.007 A 
ATOM     26  C   UNL     1       7.315  -5.986  -0.736  0.00  0.00    +0.045 A 
ATOM     27  C   UNL     1       6.788  -7.025  -1.489  0.00  0.00    +0.117 A 
ATOM     28  C   UNL     1       5.587  -6.852  -2.161  0.00  0.00    +0.045 A 
ATOM     29  C   UNL     1       4.917  -5.647  -2.076  0.00  0.00    +0.007 A 
BRANCH  27  30
ATOM     30  O   UNL     1       7.447  -8.211  -1.567  0.00  0.00    -0.507 OA
ATOM     31  H   UNL     1       7.199  -8.845  -0.881  0.00  0.00    +0.292 HD
ENDBRANCH  27  30
ENDBRANCH  23  24
ENDBRANCH   1  23
TORSDOF 5
