REMARK  Name = ZINC05901244
REMARK  5 active torsions:
REMARK  status: ('A' for Active; 'I' for Inactive)
REMARK    1  A    between atoms: C_1  and  C_2
REMARK    2  A    between atoms: C_2  and  C_4
REMARK    3  A    between atoms: C_2  and  O_16
REMARK    4  A    between atoms: O_16  and  C_17
REMARK    5  A    between atoms: C_17  and  C_19
REMARK                            x       y       z     vdW  Elec       q    Type
REMARK                         _______ _______ _______ _____ _____    ______ ____
ROOT
ATOM      1  C   UNL     1       3.603   1.804  -0.396  0.00  0.00    +0.060 C 
ATOM      2  C   UNL     1       2.449   0.874  -0.017  0.00  0.00    +0.239 C 
ENDROOT
BRANCH   2   3
ATOM      3  C   UNL     1       1.160   1.655  -0.000  0.00  0.00    +0.151 A 
ATOM      4  N   UNL     1      -0.011   0.966   0.007  0.00  0.00    -0.307 N 
ATOM      5  H   UNL     1       0.003  -0.034   0.006  0.00  0.00    +0.170 HD
ATOM      6  C   UNL     1      -1.196   1.620   0.017  0.00  0.00    +0.259 A 
ATOM      7  O   UNL     1      -2.252   1.016   0.018  0.00  0.00    -0.267 OA
ATOM      8  C   UNL     1      -1.157   3.090   0.030  0.00  0.00    +0.065 A 
ATOM      9  C   UNL     1      -2.319   3.858   0.044  0.00  0.00    +0.015 A 
ATOM     10  C   UNL     1      -2.225   5.233   0.051  0.00  0.00    +0.001 A 
ATOM     11  C   UNL     1      -0.983   5.855   0.043  0.00  0.00    +0.002 A 
ATOM     12  C   UNL     1       0.177   5.115   0.028  0.00  0.00    +0.028 A 
ATOM     13  C   UNL     1       0.107   3.720   0.021  0.00  0.00    +0.078 A 
ATOM     14  N   UNL     1       1.225   2.952   0.007  0.00  0.00    -0.230 NA
ENDBRANCH   2   3
BRANCH   2  15
ATOM     15  O   UNL     1       2.692   0.313   1.300  0.00  0.00    -0.450 OA
BRANCH  15  16
ATOM     16  C   UNL     1       3.374  -0.848   1.355  0.00  0.00    +0.341 C 
ATOM     17  O   UNL     1       3.756  -1.377   0.329  0.00  0.00    -0.245 OA
BRANCH  16  18
ATOM     18  C   UNL     1       3.657  -1.474   2.655  0.00  0.00    +0.069 A 
ATOM     19  C   UNL     1       3.240  -0.891   3.832  0.00  0.00    +0.060 A 
ATOM     20  S   UNL     1       3.804  -1.995   5.043  0.00  0.00    -0.100 S 
ATOM     21  C   UNL     1       4.581  -3.192   3.995  0.00  0.00    -0.006 A 
ATOM     22  C   UNL     1       4.389  -2.724   2.741  0.00  0.00    -0.023 A 
ATOM     23  C   UNL     1       4.920  -3.483   1.531  0.00  0.00    +0.037 C 
ATOM     24  C   UNL     1       5.998  -4.462   2.000  0.00  0.00    +0.005 C 
ATOM     25  C   UNL     1       5.458  -5.325   3.143  0.00  0.00    +0.005 C 
ATOM     26  C   UNL     1       5.295  -4.447   4.392  0.00  0.00    +0.043 C 
ENDBRANCH  16  18
ENDBRANCH  15  16
ENDBRANCH   2  15
TORSDOF 4
