REMARK  Name = ZINC39665564
REMARK  10 active torsions:
REMARK  status: ('A' for Active; 'I' for Inactive)
REMARK    1  A    between atoms: C_1  and  C_2
REMARK    2  A    between atoms: C_2  and  C_4
REMARK    3  A    between atoms: C_2  and  O_31
REMARK    4  A    between atoms: C_4  and  N_5
REMARK    5  A    between atoms: C_6  and  C_8
REMARK    6  A    between atoms: C_19  and  C_21
REMARK    7  A    between atoms: C_26  and  C_27
REMARK    8  A    between atoms: O_31  and  C_32
REMARK    9  A    between atoms: C_35  and  O_38
REMARK   10  A    between atoms: O_38  and  C_39
REMARK                            x       y       z     vdW  Elec       q    Type
REMARK                         _______ _______ _______ _____ _____    ______ ____
ROOT
ATOM      1  C   UNL     1       0.829  -4.314  -3.131  0.00  0.00    +0.100 C 
ATOM      2  C   UNL     1       1.294  -4.710  -1.711  0.00  0.00    +0.121 C 
ATOM      3  N   UNL     1       2.217  -5.849  -1.924  0.00  0.00    -0.296 N 
ATOM      4  C   UNL     1       2.981  -5.483  -3.141  0.00  0.00    +0.115 C 
ATOM      5  C   UNL     1       1.939  -4.822  -4.066  0.00  0.00    -0.004 C 
ATOM      6  C   UNL     1       2.569  -3.656  -4.821  0.00  0.00    -0.010 C 
ATOM      7  C   UNL     1       3.630  -4.192  -5.787  0.00  0.00    -0.082 C 
ATOM      8  N   UNL     1       3.007  -5.131  -6.728  0.00  0.00    +0.379 N 
ATOM      9  C   UNL     1       2.485  -6.295  -6.002  0.00  0.00    -0.082 C 
ATOM     10  C   UNL     1       1.377  -5.848  -5.045  0.00  0.00    -0.010 C 
ATOM     11  C   UNL     1       2.336  -6.966  -1.179  0.00  0.00    +0.247 C 
ATOM     12  O   UNL     1       3.214  -7.771  -1.426  0.00  0.00    -0.270 OA
ATOM     13  H   UNL     1       2.250  -4.670  -7.210  0.00  0.00    -0.086 HD
ATOM     14  H   UNL     1       3.694  -5.436  -7.401  0.00  0.00    -0.086 HD
ENDROOT
BRANCH  11  15
ATOM     15  C   UNL     1       1.399  -7.213  -0.062  0.00  0.00    +0.049 A 
ATOM     16  C   UNL     1       1.101  -6.192   0.841  0.00  0.00    +0.013 A 
ATOM     17  C   UNL     1       0.225  -6.429   1.880  0.00  0.00    +0.001 A 
ATOM     18  C   UNL     1      -0.356  -7.676   2.029  0.00  0.00    +0.001 A 
ATOM     19  C   UNL     1      -0.064  -8.693   1.137  0.00  0.00    +0.013 A 
ATOM     20  C   UNL     1       0.805  -8.467   0.089  0.00  0.00    +0.067 A 
BRANCH  20  21
ATOM     21  C   UNL     1       1.118  -9.574  -0.885  0.00  0.00    +0.418 C 
ATOM     22  F   UNL     1       0.407 -10.725  -0.526  0.00  0.00    -0.166 F 
ATOM     23  F   UNL     1       0.746  -9.179  -2.174  0.00  0.00    -0.166 F 
ATOM     24  F   UNL     1       2.490  -9.845  -0.858  0.00  0.00    -0.166 F 
ENDBRANCH  20  21
ENDBRANCH  11  15
BRANCH   1  26
ATOM     25  N   UNL     1      -0.206  -2.281  -4.088  0.00  0.00    -0.312 N 
ATOM     26  C   UNL     1       0.695  -2.817  -3.240  0.00  0.00    +0.218 C 
ATOM     27  O   UNL     1       1.398  -2.094  -2.566  0.00  0.00    -0.275 OA
ATOM     28  H   UNL     1      -0.768  -2.860  -4.627  0.00  0.00    +0.149 HD
BRANCH  25  29
ATOM     29  C   UNL     1      -0.336  -0.826  -4.194  0.00  0.00    +0.148 C 
BRANCH  29  31
ATOM     30  C   UNL     1      -1.471   1.031  -5.422  0.00  0.00    +0.053 C 
ATOM     31  C   UNL     1      -1.421  -0.485  -5.218  0.00  0.00    +0.187 C 
BRANCH  31  32
ATOM     32  O   UNL     1      -2.687  -0.944  -4.741  0.00  0.00    -0.488 OA
BRANCH  32  33
ATOM     33  C   UNL     1      -3.647  -1.186  -5.673  0.00  0.00    +0.121 A 
ATOM     34  C   UNL     1      -4.914  -1.586  -5.276  0.00  0.00    +0.049 A 
ATOM     35  C   UNL     1      -5.889  -1.832  -6.223  0.00  0.00    +0.049 A 
ATOM     36  C   UNL     1      -5.601  -1.680  -7.571  0.00  0.00    +0.120 A 
ATOM     37  C   UNL     1      -4.334  -1.279  -7.968  0.00  0.00    +0.049 A 
ATOM     38  C   UNL     1      -3.360  -1.029  -7.021  0.00  0.00    +0.049 A 
BRANCH  36  39
ATOM     39  O   UNL     1      -6.561  -1.923  -8.503  0.00  0.00    -0.495 OA
ATOM     40  C   UNL     1      -6.194  -1.746  -9.873  0.00  0.00    +0.277 C 
ENDBRANCH  36  39
ENDBRANCH  32  33
ENDBRANCH  31  32
ENDBRANCH  29  31
ENDBRANCH  25  29
ENDBRANCH   1  26
TORSDOF 8
