REMARK  Name = ZINC36610100
REMARK  13 active torsions:
REMARK  status: ('A' for Active; 'I' for Inactive)
REMARK    1  A    between atoms: C_1  and  C_2
REMARK    2  A    between atoms: C_2  and  C_3
REMARK    3  A    between atoms: C_2  and  C_4
REMARK    4  A    between atoms: C_2  and  N_5
REMARK    5  A    between atoms: C_6  and  C_8
REMARK    6  A    between atoms: C_8  and  C_10
REMARK    7  A    between atoms: C_8  and  N_22
REMARK    8  A    between atoms: C_19  and  O_20
REMARK    9  A    between atoms: O_20  and  C_21
REMARK   10  A    between atoms: N_22  and  C_23
REMARK   11  A    between atoms: C_29  and  C_31
REMARK   12  A    between atoms: C_32  and  O_38
REMARK   13  A    between atoms: C_36  and  O_37
REMARK                            x       y       z     vdW  Elec       q    Type
REMARK                         _______ _______ _______ _____ _____    ______ ____
ROOT
ATOM      1  C   UNL     1       2.509  -0.461  -2.659  0.00  0.00    +0.202 C 
ENDROOT
BRANCH   1   2
ATOM      2  C   UNL     1       1.724   0.295  -3.700  0.00  0.00    +0.031 A 
ATOM      3  C   UNL     1       0.879  -0.393  -4.585  0.00  0.00    -0.009 A 
ATOM      4  C   UNL     1       0.743  -1.791  -4.525  0.00  0.00    +0.009 A 
ATOM      5  C   UNL     1      -0.085  -2.426  -5.398  0.00  0.00    +0.001 A 
ATOM      6  C   UNL     1      -0.804  -1.710  -6.354  0.00  0.00    +0.001 A 
ATOM      7  C   UNL     1      -0.698  -0.356  -6.442  0.00  0.00    +0.008 A 
ATOM      8  C   UNL     1       0.148   0.334  -5.557  0.00  0.00    -0.017 A 
ATOM      9  C   UNL     1       0.281   1.732  -5.619  0.00  0.00    +0.012 A 
ATOM     10  C   UNL     1       1.108   2.370  -4.748  0.00  0.00    +0.046 A 
ATOM     11  C   UNL     1       1.827   1.655  -3.784  0.00  0.00    +0.126 A 
BRANCH  11  12
ATOM     12  O   UNL     1       2.641   2.320  -2.924  0.00  0.00    -0.495 OA
ATOM     13  C   UNL     1       2.613   3.748  -2.977  0.00  0.00    +0.277 C 
ENDBRANCH  11  12
ENDBRANCH   1   2
BRANCH   1  15
ATOM     14  N   UNL     1       0.795  -0.170  -0.899  0.00  0.00    -0.309 N 
ATOM     15  C   UNL     1       2.078  -0.018  -1.285  0.00  0.00    +0.239 C 
ATOM     16  O   UNL     1       2.885   0.475  -0.525  0.00  0.00    -0.273 OA
ATOM     17  H   UNL     1       0.150  -0.565  -1.507  0.00  0.00    +0.149 HD
BRANCH  14  19
ATOM     18  C   UNL     1       0.634   1.760   0.594  0.00  0.00    +0.031 C 
ATOM     19  C   UNL     1       0.376   0.261   0.437  0.00  0.00    +0.026 C 
ATOM     20  C   UNL     1       1.173  -0.507   1.493  0.00  0.00    +0.031 C 
ATOM     21  C   UNL     1      -1.117  -0.022   0.619  0.00  0.00    +0.031 C 
ENDBRANCH  14  19
ENDBRANCH   1  15
BRANCH   1  22
ATOM     22  N   UNL     1       3.938  -0.190  -2.833  0.00  0.00    -0.251 N 
ATOM     23  C   UNL     1       4.840  -0.789  -2.031  0.00  0.00    +0.259 C 
ATOM     24  O   UNL     1       4.477  -1.623  -1.224  0.00  0.00    -0.269 OA
BRANCH  22  25
ATOM     25  C   UNL     1       4.367   0.690  -3.833  0.00  0.00    +0.038 A 
ATOM     26  C   UNL     1       5.043   1.854  -3.491  0.00  0.00    +0.023 A 
ATOM     27  C   UNL     1       5.465   2.721  -4.481  0.00  0.00    +0.002 A 
ATOM     28  C   UNL     1       5.214   2.431  -5.809  0.00  0.00    +0.000 A 
ATOM     29  C   UNL     1       4.541   1.273  -6.152  0.00  0.00    +0.002 A 
ATOM     30  C   UNL     1       4.122   0.399  -5.168  0.00  0.00    +0.023 A 
ENDBRANCH  22  25
BRANCH  23  31
ATOM     31  C   UNL     1       6.265  -0.433  -2.131  0.00  0.00    +0.120 A 
ATOM     32  C   UNL     1       6.820   0.513  -1.256  0.00  0.00    +0.133 A 
ATOM     33  C   UNL     1       8.163   0.840  -1.358  0.00  0.00    +0.046 A 
ATOM     34  C   UNL     1       8.954   0.238  -2.318  0.00  0.00    +0.007 A 
ATOM     35  C   UNL     1       8.418  -0.695  -3.186  0.00  0.00    +0.046 A 
ATOM     36  C   UNL     1       7.079  -1.041  -3.097  0.00  0.00    +0.133 A 
BRANCH  36  37
ATOM     37  O   UNL     1       6.556  -1.961  -3.946  0.00  0.00    -0.506 OA
ATOM     38  H   UNL     1       6.205  -1.586  -4.765  0.00  0.00    +0.292 HD
ENDBRANCH  36  37
BRANCH  32  39
ATOM     39  O   UNL     1       6.045   1.105  -0.313  0.00  0.00    -0.506 OA
ATOM     40  H   UNL     1       6.021   0.632   0.530  0.00  0.00    +0.292 HD
ENDBRANCH  32  39
ENDBRANCH  23  31
ENDBRANCH   1  22
TORSDOF 9
