REMARK  Name = ZINC08134016
REMARK  7 active torsions:
REMARK  status: ('A' for Active; 'I' for Inactive)
REMARK    1  A    between atoms: C_1  and  C_2
REMARK    2  A    between atoms: N_10  and  N_14
REMARK    3  A    between atoms: C_15  and  C_17
REMARK    4  A    between atoms: C_17  and  O_18
REMARK    5  A    between atoms: O_18  and  C_19
REMARK    6  A    between atoms: C_22  and  N_25
REMARK    7  A    between atoms: N_25  and  C_26
REMARK                            x       y       z     vdW  Elec       q    Type
REMARK                         _______ _______ _______ _____ _____    ______ ____
ROOT
ATOM      1  N   UNL     1       8.170   7.694  -0.273  0.00  0.00    -0.221 N 
ATOM      2  C   UNL     1       8.099   6.348  -0.295  0.00  0.00    +0.267 C 
ATOM      3  O   UNL     1       9.114   5.689  -0.377  0.00  0.00    -0.271 OA
ATOM      4  H   UNL     1       7.359   8.221  -0.207  0.00  0.00    +0.174 HD
ENDROOT
BRANCH   1  14
ATOM      5  C   UNL     1      15.101  11.441  -1.227  0.00  0.00    +0.007 C 
ATOM      6  C   UNL     1      13.726  10.913  -1.642  0.00  0.00    -0.014 C 
ATOM      7  C   UNL     1      13.702   9.389  -1.503  0.00  0.00    +0.006 C 
ATOM      8  C   UNL     1      12.330   8.861  -1.930  0.00  0.00    +0.035 C 
ATOM      9  C   UNL     1      11.248   9.485  -1.056  0.00  0.00    +0.114 C 
ATOM     10  C   UNL     1      11.276  11.006  -1.165  0.00  0.00    +0.035 C 
ATOM     11  C   UNL     1      12.652  11.525  -0.741  0.00  0.00    +0.006 C 
ATOM     12  C   UNL     1       9.886   8.954  -1.444  0.00  0.00    +0.263 C 
ATOM     13  O   UNL     1       9.334   9.065  -2.517  0.00  0.00    -0.271 OA
ATOM     14  N   UNL     1       9.416   8.331  -0.344  0.00  0.00    -0.137 N 
ATOM     15  C   UNL     1      10.284   8.401   0.672  0.00  0.00    +0.326 C 
ATOM     16  O   UNL     1      10.082   7.918   1.769  0.00  0.00    -0.251 OA
ATOM     17  N   UNL     1      11.409   9.066   0.342  0.00  0.00    -0.284 N 
ATOM     18  H   UNL     1      12.172   9.237   0.916  0.00  0.00    +0.151 HD
ENDBRANCH   1  14
BRANCH   2  19
ATOM     19  C   UNL     1       6.760   5.662  -0.218  0.00  0.00    +0.326 C 
BRANCH  19  20
ATOM     20  O   UNL     1       6.946   4.246  -0.259  0.00  0.00    -0.483 OA
BRANCH  20  21
ATOM     21  C   UNL     1       5.828   3.474  -0.199  0.00  0.00    +0.121 A 
ATOM     22  C   UNL     1       5.937   2.092  -0.234  0.00  0.00    +0.047 A 
ATOM     23  C   UNL     1       4.803   1.307  -0.174  0.00  0.00    +0.027 A 
ATOM     24  C   UNL     1       3.552   1.903  -0.077  0.00  0.00    +0.032 A 
ATOM     25  C   UNL     1       3.443   3.287  -0.047  0.00  0.00    +0.027 A 
ATOM     26  C   UNL     1       4.579   4.070  -0.103  0.00  0.00    +0.047 A 
BRANCH  24  27
ATOM     27  N   UNL     1       2.401   1.108  -0.015  0.00  0.00    -0.314 N 
ATOM     28  H   UNL     1       2.380   0.249  -0.466  0.00  0.00    +0.152 HD
BRANCH  27  29
ATOM     29  C   UNL     1       1.283   1.552   0.694  0.00  0.00    +0.031 A 
ATOM     30  C   UNL     1       0.009   1.154   0.307  0.00  0.00    +0.023 A 
ATOM     31  C   UNL     1      -1.095   1.600   1.007  0.00  0.00    +0.002 A 
ATOM     32  C   UNL     1      -0.933   2.433   2.099  0.00  0.00    +0.000 A 
ATOM     33  C   UNL     1       0.334   2.832   2.487  0.00  0.00    +0.002 A 
ATOM     34  C   UNL     1       1.441   2.394   1.788  0.00  0.00    +0.023 A 
ENDBRANCH  27  29
ENDBRANCH  24  27
ENDBRANCH  20  21
ENDBRANCH  19  20
ENDBRANCH   2  19
TORSDOF 6
