REMARK  Name = ZINC17158000
REMARK  3 active torsions:
REMARK  status: ('A' for Active; 'I' for Inactive)
REMARK    1  A    between atoms: C_3  and  C_9
REMARK    2  A    between atoms: N_11  and  N_12
REMARK    3  A    between atoms: C_13  and  C_15
REMARK                            x       y       z     vdW  Elec       q    Type
REMARK                         _______ _______ _______ _____ _____    ______ ____
ROOT
ATOM      1  N   UNL     1      -3.684   2.116   0.031  0.00  0.00    -0.234 N 
ATOM      2  C   UNL     1      -4.844   1.429   0.033  0.00  0.00    +0.235 C 
ATOM      3  O   UNL     1      -4.830   0.216   0.026  0.00  0.00    -0.274 OA
ATOM      4  H   UNL     1      -3.695   3.086   0.036  0.00  0.00    +0.173 HD
ENDROOT
BRANCH   2   5
ATOM      5  C   UNL     1      -6.157   2.167   0.043  0.00  0.00    +0.049 C 
ATOM      6  C   UNL     1      -6.242   3.039   1.298  0.00  0.00    +0.019 C 
ATOM      7  C   UNL     1      -7.576   3.789   1.308  0.00  0.00    -0.009 C 
ATOM      8  C   UNL     1      -8.728   2.782   1.308  0.00  0.00    +0.007 C 
ATOM      9  C   UNL     1      -8.643   1.910   0.053  0.00  0.00    -0.009 C 
ATOM     10  C   UNL     1      -7.309   1.160   0.043  0.00  0.00    +0.019 C 
ATOM     11  C   UNL     1      -8.739   2.795  -1.190  0.00  0.00    +0.007 C 
ATOM     12  C   UNL     1      -7.588   3.803  -1.190  0.00  0.00    -0.009 C 
ATOM     13  C   UNL     1      -7.673   4.675   0.064  0.00  0.00    +0.007 C 
ATOM     14  C   UNL     1      -6.254   3.053  -1.201  0.00  0.00    +0.019 C 
ENDBRANCH   2   5
BRANCH   1  17
ATOM     15  C   UNL     1      -1.304   2.116   0.020  0.00  0.00    +0.262 C 
ATOM     16  O   UNL     1      -1.317   3.332   0.026  0.00  0.00    -0.269 OA
ATOM     17  N   UNL     1      -2.463   1.429   0.021  0.00  0.00    -0.230 N 
ATOM     18  H   UNL     1      -2.452   0.459   0.016  0.00  0.00    +0.173 HD
BRANCH  15  21
ATOM     19  C   UNL     1       1.206  -0.675  -0.013  0.00  0.00    +0.039 A 
ATOM     20  C   UNL     1       0.002  -0.004   0.002  0.00  0.00    +0.017 A 
ATOM     21  C   UNL     1      -0.017   1.392   0.010  0.00  0.00    +0.057 A 
ATOM     22  C   UNL     1       1.188   2.102   0.002  0.00  0.00    +0.056 A 
ATOM     23  C   UNL     1       2.387   1.420  -0.014  0.00  0.00    +0.059 A 
ATOM     24  C   UNL     1       2.398   0.034  -0.021  0.00  0.00    +0.125 A 
ATOM     25  F   UNL     1       3.575  -0.629  -0.036  0.00  0.00    -0.205 F 
ATOM     26 CL   UNL     1       1.174   3.838   0.011  0.00  0.00    -0.083 Cl
ENDBRANCH  15  21
ENDBRANCH   1  17
TORSDOF 3
