REMARK  Name = ZINC14383195
REMARK  7 active torsions:
REMARK  status: ('A' for Active; 'I' for Inactive)
REMARK    1  A    between atoms: C_4  and  C_7
REMARK    2  A    between atoms: C_7  and  N_8
REMARK    3  A    between atoms: C_9  and  N_34
REMARK    4  A    between atoms: C_10  and  N_17
REMARK    5  A    between atoms: N_17  and  C_18
REMARK    6  A    between atoms: C_18  and  C_19
REMARK    7  A    between atoms: C_25  and  C_27
REMARK                            x       y       z     vdW  Elec       q    Type
REMARK                         _______ _______ _______ _____ _____    ______ ____
ROOT
ATOM      1  N   UNL     1       5.630   1.690  -3.198  0.00  0.00    -0.276 N 
ATOM      2  C   UNL     1       5.245   0.738  -2.282  0.00  0.00    +0.128 A 
ATOM      3  C   UNL     1       4.071   0.043  -2.486  0.00  0.00    +0.140 A 
ATOM      4  C   UNL     1       3.295   0.338  -3.623  0.00  0.00    +0.277 A 
ATOM      5  O   UNL     1       2.250  -0.258  -3.825  0.00  0.00    -0.266 OA
ATOM      6  N   UNL     1       3.715   1.283  -4.487  0.00  0.00    -0.273 N 
ATOM      7  H   UNL     1       3.164   1.494  -5.295  0.00  0.00    +0.173 HD
ATOM      8  C   UNL     1       4.865   1.947  -4.274  0.00  0.00    +0.331 A 
ATOM      9  O   UNL     1       5.220   2.796  -5.070  0.00  0.00    -0.246 OA
ENDROOT
BRANCH   3  10
ATOM     10  N   UNL     1       3.652  -0.943  -1.568  0.00  0.00    -0.256 N 
ATOM     11  C   UNL     1       3.555  -2.229  -1.958  0.00  0.00    +0.253 C 
ATOM     12  O   UNL     1       3.270  -3.090  -1.148  0.00  0.00    -0.270 OA
BRANCH  11  13
ATOM     13  C   UNL     1       3.794  -2.593  -3.370  0.00  0.00    +0.055 A 
ATOM     14  C   UNL     1       3.161  -3.708  -3.935  0.00  0.00    +0.017 A 
ATOM     15  C   UNL     1       3.419  -4.006  -5.261  0.00  0.00    +0.041 A 
ATOM     16  C   UNL     1       4.286  -3.201  -5.981  0.00  0.00    +0.129 A 
ATOM     17  N   UNL     1       4.868  -2.156  -5.421  0.00  0.00    -0.243 NA
ATOM     18  C   UNL     1       4.650  -1.829  -4.165  0.00  0.00    +0.125 A 
ATOM     19 CL   UNL     1       4.612  -3.571  -7.645  0.00  0.00    -0.062 Cl
ENDBRANCH  11  13
BRANCH  10  20
ATOM     20  C   UNL     1       3.323  -0.568  -0.191  0.00  0.00    +0.149 C 
BRANCH  20  21
ATOM     21  C   UNL     1       1.872  -0.168  -0.112  0.00  0.00    -0.030 A 
ATOM     22  C   UNL     1       0.908  -1.115   0.177  0.00  0.00    +0.005 A 
ATOM     23  C   UNL     1      -0.423  -0.748   0.249  0.00  0.00    +0.000 A 
ATOM     24  C   UNL     1      -0.789   0.567   0.032  0.00  0.00    +0.000 A 
ATOM     25  C   UNL     1       0.175   1.515  -0.257  0.00  0.00    +0.000 A 
ATOM     26  C   UNL     1       1.506   1.148  -0.329  0.00  0.00    +0.005 A 
ENDBRANCH  20  21
ENDBRANCH  10  20
ENDBRANCH   3  10
BRANCH   2  27
ATOM     27  N   UNL     1       6.024   0.479  -1.180  0.00  0.00    -0.343 N 
ATOM     28  H   UNL     1       5.782  -0.237  -0.572  0.00  0.00    +0.144 HD
ATOM     29  H   UNL     1       6.816   1.013  -1.009  0.00  0.00    +0.144 HD
ENDBRANCH   2  27
BRANCH   1  30
ATOM     30  C   UNL     1       6.876   2.432  -2.996  0.00  0.00    +0.163 C 
BRANCH  30  34
ATOM     31  C   UNL     1       6.085   5.952  -0.708  0.00  0.00    +0.000 A 
ATOM     32  C   UNL     1       6.414   4.771  -0.069  0.00  0.00    +0.000 A 
ATOM     33  C   UNL     1       6.670   3.632  -0.809  0.00  0.00    +0.005 A 
ATOM     34  C   UNL     1       6.597   3.674  -2.189  0.00  0.00    -0.028 A 
ATOM     35  C   UNL     1       6.273   4.856  -2.829  0.00  0.00    +0.005 A 
ATOM     36  C   UNL     1       6.012   5.993  -2.088  0.00  0.00    +0.000 A 
ENDBRANCH  30  34
ENDBRANCH   1  30
TORSDOF 7
