REMARK  Name = ZINC04703514
REMARK  4 active torsions:
REMARK  status: ('A' for Active; 'I' for Inactive)
REMARK    1  A    between atoms: C_4  and  C_21
REMARK    2  A    between atoms: C_5  and  C_7
REMARK    3  A    between atoms: N_8  and  N_9
REMARK    4  A    between atoms: C_13  and  C_17
REMARK                            x       y       z     vdW  Elec       q    Type
REMARK                         _______ _______ _______ _____ _____    ______ ____
ROOT
ATOM      1  N   UNL     1       1.029   3.414  -0.003  0.00  0.00    -0.220 N 
ATOM      2  C   UNL     1       1.103   2.030  -0.000  0.00  0.00    +0.160 A 
ATOM      3  C   UNL     1       2.352   1.409  -0.023  0.00  0.00    +0.102 A 
ATOM      4  C   UNL     1       2.420   0.029  -0.020  0.00  0.00    +0.083 A 
ATOM      5  C   UNL     1       1.218  -0.698   0.005  0.00  0.00    +0.108 A 
ATOM      6  C   UNL     1       0.005  -0.003   0.026  0.00  0.00    +0.150 A 
ATOM      7  N   UNL     1      -0.013   1.315   0.023  0.00  0.00    -0.216 NA
ATOM      8 CL   UNL     1      -1.490  -0.883   0.058  0.00  0.00    -0.061 Cl
ATOM      9 CL   UNL     1       3.952  -0.786  -0.047  0.00  0.00    -0.080 Cl
ATOM     10 CL   UNL     1       3.804   2.360  -0.055  0.00  0.00    -0.078 Cl
ATOM     11  H   UNL     1       1.841   3.944  -0.020  0.00  0.00    +0.176 HD
ENDROOT
BRANCH   1  13
ATOM     12  C   UNL     1      -0.291   5.346   0.017  0.00  0.00    +0.139 C 
ATOM     13  N   UNL     1      -0.221   4.048   0.019  0.00  0.00    -0.189 NA
BRANCH  12  18
ATOM     14  C   UNL     1      -2.916   8.020   0.170  0.00  0.00    +0.001 A 
ATOM     15  C   UNL     1      -4.081   7.272   0.086  0.00  0.00    +0.001 A 
ATOM     16  C   UNL     1      -4.027   5.900  -0.021  0.00  0.00    +0.012 A 
ATOM     17  C   UNL     1      -2.789   5.250  -0.045  0.00  0.00    +0.023 A 
ATOM     18  C   UNL     1      -1.602   6.011   0.040  0.00  0.00    +0.005 A 
ATOM     19  C   UNL     1      -1.684   7.401   0.153  0.00  0.00    +0.010 A 
BRANCH  17  20
ATOM     20  C   UNL     1      -2.723   3.788  -0.159  0.00  0.00    +0.259 C 
ATOM     21  O   UNL     1      -3.738   3.147  -0.330  0.00  0.00    -0.296 OA
ENDBRANCH  17  20
ENDBRANCH  12  18
ENDBRANCH   1  13
BRANCH   5  22
ATOM     22  C   UNL     1       1.235  -2.130   0.009  0.00  0.00    +0.104 C 
ATOM     23  N   UNL     1       1.248  -3.266   0.011  0.00  0.00    -0.191 NA
ENDBRANCH   5  22
TORSDOF 4
