REMARK  Name = ZINC15398838
REMARK  8 active torsions:
REMARK  status: ('A' for Active; 'I' for Inactive)
REMARK    1  A    between atoms: C_1  and  C_2
REMARK    2  A    between atoms: C_2  and  C_20
REMARK    3  A    between atoms: N_5  and  C_9
REMARK    4  A    between atoms: C_9  and  C_10
REMARK    5  A    between atoms: C_13  and  C_16
REMARK    6  A    between atoms: C_16  and  C_17
REMARK    7  A    between atoms: C_16  and  C_18
REMARK    8  A    between atoms: C_16  and  C_19
REMARK                            x       y       z     vdW  Elec       q    Type
REMARK                         _______ _______ _______ _____ _____    ______ ____
ROOT
ATOM      1  C   UNL     1       5.310   0.749  -3.762  0.00  0.00    +0.047 C 
ATOM      2  C   UNL     1       3.832   1.024  -3.479  0.00  0.00    +0.135 C 
ATOM      3  C   UNL     1       3.661   1.670  -2.119  0.00  0.00    +0.251 C 
ATOM      4  O   UNL     1       4.111   2.735  -1.752  0.00  0.00    -0.272 OA
ATOM      5  N   UNL     1       2.903   0.817  -1.403  0.00  0.00    -0.220 N 
ATOM      6  C   UNL     1       2.579  -0.271  -2.112  0.00  0.00    +0.310 C 
ATOM      7  O   UNL     1       1.905  -1.184  -1.679  0.00  0.00    -0.252 OA
ATOM      8  N   UNL     1       3.080  -0.238  -3.360  0.00  0.00    -0.281 N 
ATOM      9  H   UNL     1       2.971  -0.914  -4.046  0.00  0.00    +0.152 HD
ENDROOT
BRANCH   2  10
ATOM     10  C   UNL     1       3.240   1.894  -4.558  0.00  0.00    -0.015 A 
ATOM     11  C   UNL     1       3.212   3.267  -4.401  0.00  0.00    +0.009 A 
ATOM     12  C   UNL     1       2.675   4.066  -5.392  0.00  0.00    +0.039 A 
ATOM     13  C   UNL     1       2.154   3.490  -6.538  0.00  0.00    +0.123 A 
ATOM     14  C   UNL     1       2.177   2.114  -6.692  0.00  0.00    +0.039 A 
ATOM     15  C   UNL     1       2.721   1.317  -5.702  0.00  0.00    +0.009 A 
ATOM     16  F   UNL     1       1.623   4.270  -7.505  0.00  0.00    -0.205 F 
ENDBRANCH   2  10
BRANCH   5  17
ATOM     17  C   UNL     1       2.490   1.048  -0.016  0.00  0.00    +0.153 C 
BRANCH  17  18
ATOM     18  C   UNL     1       1.175   1.783   0.000  0.00  0.00    -0.030 A 
ATOM     19  C   UNL     1      -0.013   1.076   0.008  0.00  0.00    +0.005 A 
ATOM     20  C   UNL     1      -1.219   1.751   0.017  0.00  0.00    +0.004 A 
ATOM     21  C   UNL     1      -1.238   3.133   0.030  0.00  0.00    -0.042 A 
ATOM     22  C   UNL     1      -0.050   3.840   0.022  0.00  0.00    +0.004 A 
ATOM     23  C   UNL     1       1.156   3.165   0.008  0.00  0.00    +0.005 A 
BRANCH  21  24
ATOM     24  C   UNL     1      -2.553   3.869   0.047  0.00  0.00    -0.013 C 
ATOM     25  C   UNL     1      -2.658   4.753  -1.197  0.00  0.00    +0.015 C 
ATOM     26  C   UNL     1      -3.702   2.858   0.053  0.00  0.00    +0.015 C 
ATOM     27  C   UNL     1      -2.634   4.740   1.302  0.00  0.00    +0.015 C 
ENDBRANCH  21  24
ENDBRANCH  17  18
ENDBRANCH   5  17
TORSDOF 4
