REMARK  Name = ZINC08665865
REMARK  4 active torsions:
REMARK  status: ('A' for Active; 'I' for Inactive)
REMARK    1  A    between atoms: C_4  and  N_7
REMARK    2  A    between atoms: C_8  and  C_21
REMARK    3  A    between atoms: N_14  and  C_15
REMARK    4  A    between atoms: C_26  and  C_27
REMARK                            x       y       z     vdW  Elec       q    Type
REMARK                         _______ _______ _______ _____ _____    ______ ____
ROOT
ATOM      1  N   UNL     1      -2.749  -0.225  -1.215  0.00  0.00    -0.222 N 
ATOM      2  C   UNL     1      -1.746  -0.914  -0.394  0.00  0.00    +0.177 C 
ATOM      3  C   UNL     1      -0.571   0.085  -0.290  0.00  0.00    +0.163 C 
ATOM      4  C   UNL     1      -1.030   1.287  -1.080  0.00  0.00    +0.096 C 
ATOM      5  N   UNL     1      -2.273   1.032  -1.579  0.00  0.00    -0.250 N 
ATOM      6  C   UNL     1      -0.506   0.434   1.179  0.00  0.00    +0.096 C 
ATOM      7  N   UNL     1      -1.485  -0.253   1.834  0.00  0.00    -0.250 N 
ATOM      8  N   UNL     1      -2.240  -1.055   0.981  0.00  0.00    -0.222 N 
ATOM      9  H   UNL     1      -0.645   3.155  -1.768  0.00  0.00    +0.157 HD
ATOM     10  H   UNL     1      -2.773   1.659  -2.125  0.00  0.00    +0.171 HD
ATOM     11  H   UNL     1       0.386   1.478   2.671  0.00  0.00    +0.157 HD
ATOM     12  H   UNL     1      -1.638  -0.190   2.790  0.00  0.00    +0.171 HD
ATOM     13  N   UNL     1      -0.294   2.367  -1.225  0.00  0.00    -0.389 N 
ATOM     14  H   UNL     1       0.635   2.416  -0.791  0.00  0.00    +0.157 HD
ATOM     15  N   UNL     1       0.379   1.272   1.672  0.00  0.00    -0.389 N 
ATOM     16  H   UNL     1       1.063   1.720   1.051  0.00  0.00    +0.157 HD
ENDROOT
BRANCH   1  20
ATOM     17  C   UNL     1      -6.447  -1.798  -2.305  0.00  0.00    +0.000 A 
ATOM     18  C   UNL     1      -6.384  -0.618  -1.586  0.00  0.00    +0.002 A 
ATOM     19  C   UNL     1      -5.159  -0.094  -1.223  0.00  0.00    +0.025 A 
ATOM     20  C   UNL     1      -3.990  -0.753  -1.581  0.00  0.00    +0.050 A 
ATOM     21  C   UNL     1      -4.057  -1.934  -2.308  0.00  0.00    +0.025 A 
ATOM     22  C   UNL     1      -5.285  -2.457  -2.663  0.00  0.00    +0.002 A 
ENDBRANCH   1  20
BRANCH   8  23
ATOM     23  C   UNL     1      -3.305  -1.868   1.375  0.00  0.00    +0.050 A 
ATOM     24  C   UNL     1      -3.826  -1.760   2.658  0.00  0.00    +0.025 A 
ATOM     25  C   UNL     1      -4.883  -2.562   3.042  0.00  0.00    +0.002 A 
ATOM     26  C   UNL     1      -5.415  -3.479   2.154  0.00  0.00    +0.000 A 
ATOM     27  C   UNL     1      -4.895  -3.593   0.878  0.00  0.00    +0.002 A 
ATOM     28  C   UNL     1      -3.842  -2.791   0.486  0.00  0.00    +0.025 A 
ENDBRANCH   8  23
BRANCH   2  29
ATOM     29  C   UNL     1      -1.325  -2.227  -1.001  0.00  0.00    +0.015 A 
ATOM     30  C   UNL     1      -1.241  -2.380  -2.374  0.00  0.00    +0.028 A 
ATOM     31  C   UNL     1      -0.850  -3.600  -2.897  0.00  0.00    +0.111 A 
ATOM     32  N   UNL     1      -0.557  -4.617  -2.109  0.00  0.00    -0.262 NA
ATOM     33  C   UNL     1      -0.621  -4.521  -0.797  0.00  0.00    +0.126 A 
ATOM     34  C   UNL     1      -1.001  -3.323  -0.191  0.00  0.00    +0.088 A 
BRANCH  34  35
ATOM     35  C   UNL     1      -1.067  -3.213   1.281  0.00  0.00    +0.388 C 
ATOM     36  O   UNL     1      -0.456  -2.333   1.852  0.00  0.00    -0.241 OA
ATOM     37  O   UNL     1      -1.804  -4.090   1.989  0.00  0.00    -0.241 OA
ENDBRANCH  34  35
ENDBRANCH   2  29
TORSDOF 4
