REMARK  Name = ZINC39686482
REMARK  10 active torsions:
REMARK  status: ('A' for Active; 'I' for Inactive)
REMARK    1  A    between atoms: C_1  and  C_2
REMARK    2  A    between atoms: C_2  and  C_4
REMARK    3  A    between atoms: C_2  and  N_13
REMARK    4  A    between atoms: C_4  and  C_5
REMARK    5  A    between atoms: C_10  and  O_11
REMARK    6  A    between atoms: O_11  and  C_12
REMARK    7  A    between atoms: C_14  and  C_16
REMARK    8  A    between atoms: C_27  and  C_29
REMARK    9  A    between atoms: C_32  and  O_35
REMARK   10  A    between atoms: O_35  and  C_36
REMARK                            x       y       z     vdW  Elec       q    Type
REMARK                         _______ _______ _______ _____ _____    ______ ____
ROOT
ATOM      1  C   UNL     1       2.652  -1.500  -1.917  0.00  0.00    +0.100 C 
ATOM      2  C   UNL     1       2.325  -2.885  -2.518  0.00  0.00    +0.121 C 
ATOM      3  N   UNL     1       3.616  -3.375  -3.056  0.00  0.00    -0.296 N 
ATOM      4  C   UNL     1       4.619  -2.954  -2.049  0.00  0.00    +0.115 C 
ATOM      5  C   UNL     1       4.159  -1.549  -1.609  0.00  0.00    -0.004 C 
ATOM      6  C   UNL     1       4.896  -0.478  -2.408  0.00  0.00    -0.010 C 
ATOM      7  C   UNL     1       6.383  -0.509  -2.043  0.00  0.00    -0.082 C 
ATOM      8  N   UNL     1       6.540  -0.270  -0.603  0.00  0.00    +0.379 N 
ATOM      9  C   UNL     1       5.907  -1.355   0.157  0.00  0.00    -0.082 C 
ATOM     10  C   UNL     1       4.400  -1.359  -0.115  0.00  0.00    -0.010 C 
ATOM     11  C   UNL     1       3.830  -4.050  -4.203  0.00  0.00    +0.247 C 
ATOM     12  O   UNL     1       2.920  -4.212  -4.993  0.00  0.00    -0.270 OA
ATOM     13  H   UNL     1       7.522  -0.230  -0.376  0.00  0.00    -0.086 HD
ATOM     14  H   UNL     1       6.105   0.608  -0.360  0.00  0.00    -0.086 HD
ENDROOT
BRANCH  11  15
ATOM     15  C   UNL     1       5.170  -4.593  -4.500  0.00  0.00    +0.037 A 
ATOM     16  C   UNL     1       6.085  -4.806  -3.465  0.00  0.00    +0.016 A 
ATOM     17  C   UNL     1       7.334  -5.313  -3.747  0.00  0.00    +0.047 A 
ATOM     18  C   UNL     1       7.685  -5.613  -5.058  0.00  0.00    +0.130 A 
ATOM     19  C   UNL     1       6.778  -5.403  -6.090  0.00  0.00    +0.047 A 
ATOM     20  C   UNL     1       5.525  -4.901  -5.816  0.00  0.00    +0.016 A 
BRANCH  18  21
ATOM     21  O   UNL     1       8.918  -6.112  -5.331  0.00  0.00    -0.406 OA
BRANCH  21  22
ATOM     22  C   UNL     1       9.213  -6.399  -6.699  0.00  0.00    +0.575 C 
ATOM     23  F   UNL     1       9.106  -5.226  -7.454  0.00  0.00    -0.133 F 
ATOM     24  F   UNL     1      10.514  -6.902  -6.800  0.00  0.00    -0.133 F 
ATOM     25  F   UNL     1       8.307  -7.348  -7.183  0.00  0.00    -0.133 F 
ENDBRANCH  21  22
ENDBRANCH  18  21
ENDBRANCH  11  15
BRANCH   1  27
ATOM     26  N   UNL     1       1.503  -0.032  -0.292  0.00  0.00    -0.312 N 
ATOM     27  C   UNL     1       1.866  -1.279  -0.650  0.00  0.00    +0.218 C 
ATOM     28  O   UNL     1       1.559  -2.224   0.046  0.00  0.00    -0.275 OA
ATOM     29  H   UNL     1       1.748   0.724  -0.849  0.00  0.00    +0.149 HD
BRANCH  26  31
ATOM     30  C   UNL     1       1.698   0.280   2.126  0.00  0.00    +0.028 C 
ATOM     31  C   UNL     1       0.738   0.184   0.939  0.00  0.00    +0.074 C 
BRANCH  31  32
ATOM     32  C   UNL     1      -0.061   1.483   0.822  0.00  0.00    +0.060 C 
BRANCH  32  33
ATOM     33  C   UNL     1      -1.091   1.344  -0.268  0.00  0.00    -0.004 A 
ATOM     34  C   UNL     1      -0.809   1.784  -1.547  0.00  0.00    +0.007 A 
ATOM     35  C   UNL     1      -1.754   1.656  -2.548  0.00  0.00    +0.000 A 
ATOM     36  C   UNL     1      -2.984   1.088  -2.272  0.00  0.00    +0.004 A 
ATOM     37  C   UNL     1      -3.272   0.646  -0.996  0.00  0.00    +0.046 A 
ATOM     38  C   UNL     1      -2.323   0.768   0.009  0.00  0.00    +0.123 A 
BRANCH  38  39
ATOM     39  O   UNL     1      -2.601   0.330   1.265  0.00  0.00    -0.495 OA
ATOM     40  C   UNL     1      -3.889  -0.252   1.479  0.00  0.00    +0.277 C 
ENDBRANCH  38  39
ENDBRANCH  32  33
ENDBRANCH  31  32
ENDBRANCH  26  31
ENDBRANCH   1  27
TORSDOF 8
