REMARK  Name = ZINC09717801
REMARK  7 active torsions:
REMARK  status: ('A' for Active; 'I' for Inactive)
REMARK    1  A    between atoms: C_1  and  C_2
REMARK    2  A    between atoms: C_3  and  C_13
REMARK    3  A    between atoms: C_5  and  C_7
REMARK    4  A    between atoms: C_13  and  O_15
REMARK    5  A    between atoms: O_15  and  C_16
REMARK    6  A    between atoms: C_16  and  C_17
REMARK    7  A    between atoms: N_22  and  C_23
REMARK                            x       y       z     vdW  Elec       q    Type
REMARK                         _______ _______ _______ _____ _____    ______ ____
ROOT
ATOM      1  C   UNL     1       0.285  -5.165  -0.028  0.00  0.00    +0.258 C 
ATOM      2  O   UNL     1      -0.863  -4.775  -0.015  0.00  0.00    -0.272 OA
ATOM      3  N   UNL     1       0.547  -6.487  -0.037  0.00  0.00    -0.237 N 
ATOM      4  C   UNL     1      -0.467  -7.375  -0.032  0.00  0.00    +0.306 C 
ATOM      5  O   UNL     1      -1.617  -6.984  -0.019  0.00  0.00    -0.252 OA
ATOM      6  N   UNL     1      -0.205  -8.697  -0.041  0.00  0.00    -0.294 N 
ATOM      7  H   UNL     1       1.465  -6.800  -0.047  0.00  0.00    +0.159 HD
ATOM      8  H   UNL     1       0.714  -9.010  -0.051  0.00  0.00    +0.151 HD
ENDROOT
BRANCH   6   9
ATOM      9  C   UNL     1      -1.307  -9.662  -0.036  0.00  0.00    +0.037 C 
ATOM     10  C   UNL     1      -2.154  -9.462   1.222  0.00  0.00    +0.029 C 
ATOM     11  C   UNL     1      -3.305 -10.470   1.227  0.00  0.00    -0.008 C 
ATOM     12  C   UNL     1      -2.738 -11.892   1.215  0.00  0.00    +0.007 C 
ATOM     13  C   UNL     1      -1.891 -12.092  -0.043  0.00  0.00    -0.008 C 
ATOM     14  C   UNL     1      -0.740 -11.084  -0.049  0.00  0.00    +0.029 C 
ATOM     15  C   UNL     1      -2.761 -11.879  -1.284  0.00  0.00    +0.007 C 
ATOM     16  C   UNL     1      -3.328 -10.458  -1.271  0.00  0.00    -0.008 C 
ATOM     17  C   UNL     1      -4.175 -10.258  -0.013  0.00  0.00    +0.007 C 
ATOM     18  C   UNL     1      -2.177  -9.450  -1.276  0.00  0.00    +0.029 C 
ENDBRANCH   6   9
BRANCH   1  19
ATOM     19  C   UNL     1       1.419  -4.172  -0.033  0.00  0.00    +0.328 C 
BRANCH  19  20
ATOM     20  O   UNL     1       0.881  -2.824  -0.021  0.00  0.00    -0.451 OA
BRANCH  20  21
ATOM     21  C   UNL     1       1.770  -1.810  -0.024  0.00  0.00    +0.362 C 
ATOM     22  O   UNL     1       2.962  -2.048  -0.036  0.00  0.00    -0.243 OA
BRANCH  21  25
ATOM     23  C   UNL     1       3.582   0.744  -0.028  0.00  0.00    +0.089 C 
ATOM     24  C   UNL     1       2.076   0.703  -0.014  0.00  0.00    +0.137 A 
ATOM     25  C   UNL     1       1.296  -0.415  -0.013  0.00  0.00    +0.189 A 
ATOM     26  N   UNL     1       0.002  -0.004   0.002  0.00  0.00    -0.202 NA
ATOM     27  C   UNL     1      -0.016   1.305   0.009  0.00  0.00    +0.228 A 
ATOM     28  O   UNL     1       1.250   1.760  -0.000  0.00  0.00    -0.440 OA
BRANCH  27  29
ATOM     29  C   UNL     1      -1.231   2.147   0.020  0.00  0.00    +0.037 A 
ATOM     30  C   UNL     1      -1.120   3.537   0.032  0.00  0.00    +0.013 A 
ATOM     31  C   UNL     1      -2.259   4.317   0.037  0.00  0.00    +0.001 A 
ATOM     32  C   UNL     1      -3.508   3.723   0.040  0.00  0.00    +0.000 A 
ATOM     33  C   UNL     1      -3.625   2.344   0.034  0.00  0.00    +0.001 A 
ATOM     34  C   UNL     1      -2.494   1.553   0.023  0.00  0.00    +0.013 A 
ENDBRANCH  27  29
ENDBRANCH  21  25
ENDBRANCH  20  21
ENDBRANCH  19  20
ENDBRANCH   1  19
TORSDOF 6
