REMARK  Name = ZINC00806505
REMARK  9 active torsions:
REMARK  status: ('A' for Active; 'I' for Inactive)
REMARK    1  A    between atoms: C_1  and  C_2
REMARK    2  A    between atoms: C_2  and  C_3
REMARK    3  A    between atoms: C_2  and  C_4
REMARK    4  A    between atoms: C_2  and  C_5
REMARK    5  A    between atoms: C_12  and  N_28
REMARK    6  A    between atoms: C_13  and  C_26
REMARK    7  A    between atoms: C_14  and  C_16
REMARK    8  A    between atoms: C_21  and  O_22
REMARK    9  A    between atoms: O_22  and  C_23
REMARK                            x       y       z     vdW  Elec       q    Type
REMARK                         _______ _______ _______ _____ _____    ______ ____
ROOT
ATOM      1  C   UNL     1       0.443   0.082  -1.181  0.00  0.00    +0.076 A 
ATOM      2  C   UNL     1       0.715  -1.081  -1.890  0.00  0.00    +0.050 A 
ATOM      3  C   UNL     1       1.382  -0.735  -3.032  0.00  0.00    +0.222 A 
ATOM      4  N   UNL     1       1.519   0.601  -3.033  0.00  0.00    -0.246 N 
ATOM      5  H   UNL     1       1.952   1.130  -3.720  0.00  0.00    +0.192 HD
ATOM      6  N   UNL     1       0.918   1.096  -1.865  0.00  0.00    -0.175 NA
ATOM      7  O   UNL     1       1.796  -1.649  -3.944  0.00  0.00    -0.423 OA
ATOM      8  C   UNL     1       1.780  -2.947  -3.578  0.00  0.00    +0.200 C 
ATOM      9  C   UNL     1       1.145  -3.412  -2.479  0.00  0.00    +0.098 C 
ATOM     10  C   UNL     1       0.377  -2.509  -1.546  0.00  0.00    +0.105 C 
ENDROOT
BRANCH  10  11
ATOM     11  C   UNL     1      -1.103  -2.737  -1.720  0.00  0.00    +0.010 A 
ATOM     12  C   UNL     1      -1.809  -3.449  -0.769  0.00  0.00    +0.028 A 
ATOM     13  C   UNL     1      -3.167  -3.659  -0.928  0.00  0.00    +0.043 A 
ATOM     14  C   UNL     1      -3.822  -3.157  -2.039  0.00  0.00    +0.043 A 
ATOM     15  C   UNL     1      -3.119  -2.444  -2.992  0.00  0.00    +0.084 A 
ATOM     16  C   UNL     1      -1.758  -2.227  -2.831  0.00  0.00    +0.142 A 
ATOM     17 CL   UNL     1      -3.941  -1.813  -4.386  0.00  0.00    -0.080 Cl
ATOM     18 CL   UNL     1      -4.051  -4.556   0.267  0.00  0.00    -0.083 Cl
BRANCH  16  19
ATOM     19  O   UNL     1      -1.066  -1.520  -3.764  0.00  0.00    -0.493 OA
ATOM     20  C   UNL     1      -0.678  -2.218  -4.950  0.00  0.00    +0.277 C 
ENDBRANCH  16  19
ENDBRANCH  10  11
BRANCH   1  22
ATOM     21  C   UNL     1      -0.198   1.596   0.675  0.00  0.00    +0.017 C 
ATOM     22  C   UNL     1      -0.278   0.165   0.140  0.00  0.00    +0.007 C 
ATOM     23  C   UNL     1       0.377  -0.791   1.139  0.00  0.00    +0.017 C 
ATOM     24  C   UNL     1      -1.744  -0.226  -0.054  0.00  0.00    +0.017 C 
ENDBRANCH   1  22
BRANCH   8  25
ATOM     25  N   UNL     1       2.449  -3.849  -4.367  0.00  0.00    -0.328 N 
ATOM     26  H   UNL     1       2.914  -3.546  -5.163  0.00  0.00    +0.145 HD
ATOM     27  H   UNL     1       2.455  -4.790  -4.130  0.00  0.00    +0.145 HD
ENDBRANCH   8  25
BRANCH   9  28
ATOM     28  C   UNL     1       1.203  -4.813  -2.189  0.00  0.00    +0.101 C 
ATOM     29  N   UNL     1       1.249  -5.925  -1.960  0.00  0.00    -0.191 NA
ENDBRANCH   9  28
TORSDOF 5
