REMARK  Name = ZINC02793792
REMARK  15 active torsions:
REMARK  status: ('A' for Active; 'I' for Inactive)
REMARK    1  A    between atoms: C_1  and  C_2
REMARK    2  A    between atoms: C_2  and  C_3
REMARK    3  A    between atoms: C_2  and  C_4
REMARK    4  A    between atoms: C_7  and  C_10
REMARK    5  A    between atoms: C_13  and  C_34
REMARK    6  A    between atoms: C_18  and  C_20
REMARK    7  A    between atoms: N_22  and  N_23
REMARK    8  A    between atoms: N_23  and  C_24
REMARK    9  A    between atoms: C_24  and  N_26
REMARK   10  A    between atoms: N_26  and  C_27
REMARK   11  A    between atoms: C_27  and  C_28
REMARK   12  A    between atoms: C_28  and  C_29
REMARK   13  A    between atoms: C_29  and  N_30
REMARK   14  A    between atoms: N_30  and  C_31
REMARK   15  A    between atoms: N_30  and  C_32
REMARK                            x       y       z     vdW  Elec       q    Type
REMARK                         _______ _______ _______ _____ _____    ______ ____
ROOT
ATOM      1  C   UNL     1      -6.715  -0.833  -0.264  0.00  0.00    +0.104 C 
ATOM      2  C   UNL     1      -6.007  -1.952   0.507  0.00  0.00    +0.063 C 
ATOM      3  C   UNL     1      -4.560  -2.088   0.018  0.00  0.00    +0.215 C 
ATOM      4  N   UNL     1      -3.933  -0.763   0.018  0.00  0.00    -0.238 N 
ATOM      5  C   UNL     1      -4.636   0.408   0.025  0.00  0.00    +0.119 A 
ATOM      6  C   UNL     1      -3.755   1.427   0.033  0.00  0.00    +0.078 A 
ATOM      7  C   UNL     1      -2.457   0.868   0.018  0.00  0.00    +0.150 A 
ATOM      8  N   UNL     1      -2.575  -0.448   0.012  0.00  0.00    -0.164 NA
ATOM      9  N   UNL     1      -6.034   0.443   0.029  0.00  0.00    -0.322 N 
ATOM     10  H   UNL     1      -6.625   1.348   0.232  0.00  0.00    +0.148 HD
ENDROOT
BRANCH   1  14
ATOM     11  C   UNL     1      -6.524  -1.634  -4.456  0.00  0.00    -0.045 A 
ATOM     12  C   UNL     1      -7.675  -1.926  -3.748  0.00  0.00    +0.004 A 
ATOM     13  C   UNL     1      -7.737  -1.667  -2.392  0.00  0.00    +0.006 A 
ATOM     14  C   UNL     1      -6.648  -1.116  -1.743  0.00  0.00    -0.027 A 
ATOM     15  C   UNL     1      -5.498  -0.819  -2.451  0.00  0.00    +0.006 A 
ATOM     16  C   UNL     1      -5.435  -1.083  -3.807  0.00  0.00    +0.004 A 
BRANCH  11  18
ATOM     17  C   UNL     1      -6.195  -0.613  -6.691  0.00  0.00    +0.012 C 
ATOM     18  C   UNL     1      -6.456  -1.917  -5.934  0.00  0.00    +0.013 C 
ATOM     19  C   UNL     1      -5.321  -2.904  -6.213  0.00  0.00    +0.012 C 
ENDBRANCH  11  18
ENDBRANCH   1  14
BRANCH   7  20
ATOM     20  C   UNL     1      -1.187   1.624   0.017  0.00  0.00    +0.280 C 
ATOM     21  O   UNL     1      -1.204   2.839   0.023  0.00  0.00    -0.267 OA
ATOM     22  N   UNL     1      -0.011   0.966   0.007  0.00  0.00    -0.230 N 
ATOM     23  H   UNL     1       0.004  -0.134   0.006  0.00  0.00    +0.173 HD
BRANCH  22  24
ATOM     24  N   UNL     1       1.193   1.683  -0.000  0.00  0.00    -0.246 N 
ATOM     25  H   UNL     1       1.178   2.783   0.006  0.00  0.00    +0.172 HD
BRANCH  24  26
ATOM     26  C   UNL     1       2.369   1.025  -0.015  0.00  0.00    +0.147 C 
ATOM     27  S   UNL     1       3.840   1.901  -0.024  0.00  0.00    -0.017 S 
BRANCH  26  28
ATOM     28  N   UNL     1       2.387  -0.323  -0.022  0.00  0.00    -0.326 N 
ATOM     29  H   UNL     1       1.442  -0.886  -0.017  0.00  0.00    +0.148 HD
BRANCH  28  30
ATOM     30  C   UNL     1       3.666  -1.038  -0.038  0.00  0.00    +0.101 C 
BRANCH  30  31
ATOM     31  C   UNL     1       3.406  -2.546  -0.044  0.00  0.00    +0.000 C 
BRANCH  31  32
ATOM     32  C   UNL     1       4.742  -3.293  -0.061  0.00  0.00    -0.078 C 
BRANCH  32  33
ATOM     33  N   UNL     1       4.493  -4.740  -0.066  0.00  0.00    +0.376 N 
ATOM     34  C   UNL     1       5.732  -5.487  -0.320  0.00  0.00    -0.097 C 
ATOM     35  C   UNL     1       3.867  -5.172   1.191  0.00  0.00    -0.097 C 
ATOM     36  H   UNL     1       3.792  -4.960  -0.885  0.00  0.00    -0.083 HD
ENDBRANCH  32  33
ENDBRANCH  31  32
ENDBRANCH  30  31
ENDBRANCH  28  30
ENDBRANCH  26  28
ENDBRANCH  24  26
ENDBRANCH  22  24
ENDBRANCH   7  20
BRANCH   3  37
ATOM     37  C   UNL     1      -3.788  -3.021   0.953  0.00  0.00    +0.412 C 
ATOM     38  F   UNL     1      -3.805  -2.498   2.251  0.00  0.00    -0.168 F 
ATOM     39  F   UNL     1      -4.388  -4.284   0.952  0.00  0.00    -0.168 F 
ATOM     40  F   UNL     1      -2.465  -3.132   0.513  0.00  0.00    -0.168 F 
ENDBRANCH   3  37
TORSDOF 11
