REMARK  Name = ZINC10985194
REMARK  7 active torsions:
REMARK  status: ('A' for Active; 'I' for Inactive)
REMARK    1  A    between atoms: C_1  and  C_2
REMARK    2  A    between atoms: C_8  and  N_10
REMARK    3  A    between atoms: C_14  and  C_16
REMARK    4  A    between atoms: C_16  and  O_17
REMARK    5  A    between atoms: O_17  and  C_18
REMARK    6  A    between atoms: C_18  and  C_20
REMARK    7  A    between atoms: C_29  and  C_32
REMARK                            x       y       z     vdW  Elec       q    Type
REMARK                         _______ _______ _______ _____ _____    ______ ____
ROOT
ATOM      1  C   UNL     1      -2.627   4.098   0.037  0.00  0.00    +0.328 C 
ENDROOT
BRANCH   1   6
ATOM      2  N   UNL     1      -4.456   8.544   0.070  0.00  0.00    -0.296 N 
ATOM      3  C   UNL     1      -3.375   7.739   0.060  0.00  0.00    +0.306 C 
ATOM      4  O   UNL     1      -2.259   8.220   0.057  0.00  0.00    -0.252 OA
ATOM      5  N   UNL     1      -3.532   6.400   0.053  0.00  0.00    -0.237 N 
ATOM      6  C   UNL     1      -2.451   5.595   0.044  0.00  0.00    +0.258 C 
ATOM      7  O   UNL     1      -1.338   6.075   0.041  0.00  0.00    -0.272 OA
ATOM      8  H   UNL     1      -5.347   8.160   0.072  0.00  0.00    +0.151 HD
ATOM      9  H   UNL     1      -4.423   6.016   0.056  0.00  0.00    +0.159 HD
BRANCH   2  16
ATOM     10  C   UNL     1      -5.699  10.155   2.131  0.00  0.00    +0.009 C 
ATOM     11  C   UNL     1      -5.521  10.655   0.696  0.00  0.00    +0.006 C 
ATOM     12  C   UNL     1      -6.758  10.290  -0.128  0.00  0.00    +0.005 C 
ATOM     13  C   UNL     1      -6.581  10.790  -1.563  0.00  0.00    +0.000 C 
ATOM     14  C   UNL     1      -5.345  10.134  -2.182  0.00  0.00    +0.002 C 
ATOM     15  C   UNL     1      -4.108  10.499  -1.359  0.00  0.00    +0.022 C 
ATOM     16  C   UNL     1      -4.285   9.999   0.077  0.00  0.00    +0.077 C 
ENDBRANCH   2  16
ENDBRANCH   1   6
BRANCH   1  17
ATOM     17  O   UNL     1      -1.323   3.458   0.027  0.00  0.00    -0.452 OA
BRANCH  17  18
ATOM     18  C   UNL     1      -1.304   2.111   0.020  0.00  0.00    +0.340 C 
ATOM     19  O   UNL     1      -2.347   1.488   0.021  0.00  0.00    -0.245 OA
BRANCH  18  20
ATOM     20  C   UNL     1      -0.017   1.393   0.010  0.00  0.00    +0.061 A 
ATOM     21  C   UNL     1       1.183   2.111   0.002  0.00  0.00    +0.016 A 
ATOM     22  C   UNL     1       2.384   1.437  -0.011  0.00  0.00    +0.017 A 
ATOM     23  C   UNL     1       2.402   0.049  -0.017  0.00  0.00    +0.030 A 
ATOM     24  C   UNL     1       1.210  -0.683  -0.013  0.00  0.00    +0.048 A 
ATOM     25  C   UNL     1       0.002  -0.004   0.002  0.00  0.00    +0.039 A 
ATOM     26  N   UNL     1       1.210  -2.076  -0.030  0.00  0.00    -0.284 N 
ATOM     27  C   UNL     1       2.210  -2.867   0.349  0.00  0.00    +0.230 C 
ATOM     28  O   UNL     1       2.047  -4.067   0.283  0.00  0.00    -0.274 OA
ATOM     29  C   UNL     1       3.531  -2.356   0.855  0.00  0.00    +0.134 C 
ATOM     30  S   UNL     1       3.940  -0.819  -0.025  0.00  0.00    -0.111 S 
ATOM     31  C   UNL     1       3.431  -2.076   2.356  0.00  0.00    +0.029 C 
ATOM     32  H   UNL     1       0.404  -2.511  -0.348  0.00  0.00    +0.155 HD
ENDBRANCH  18  20
ENDBRANCH  17  18
ENDBRANCH   1  17
TORSDOF 5
