REMARK  Name = ZINC20388056
REMARK  10 active torsions:
REMARK  status: ('A' for Active; 'I' for Inactive)
REMARK    1  A    between atoms: C_4  and  C_7
REMARK    2  A    between atoms: C_7  and  N_8
REMARK    3  A    between atoms: C_10  and  N_29
REMARK    4  A    between atoms: C_13  and  C_15
REMARK    5  A    between atoms: N_17  and  C_18
REMARK    6  A    between atoms: C_18  and  C_19
REMARK    7  A    between atoms: C_19  and  C_20
REMARK    8  A    between atoms: N_29  and  C_30
REMARK    9  A    between atoms: C_30  and  C_31
REMARK   10  A    between atoms: C_36  and  C_37
REMARK                            x       y       z     vdW  Elec       q    Type
REMARK                         _______ _______ _______ _____ _____    ______ ____
ROOT
ATOM      1  N   UNL     1      -1.960   2.365  -0.676  0.00  0.00    +0.391 N 
ATOM      2  C   UNL     1      -1.565   2.817   0.682  0.00  0.00    -0.059 C 
ATOM      3  C   UNL     1      -0.778   1.605   1.246  0.00  0.00    +0.036 C 
ATOM      4  C   UNL     1      -0.013   1.086   0.008  0.00  0.00    +0.010 C 
ATOM      5  C   UNL     1      -0.799   1.616  -1.205  0.00  0.00    +0.021 C 
ATOM      6  H   UNL     1      -2.865   1.740  -0.653  0.00  0.00    -0.080 HD
ENDROOT
BRANCH   5   7
ATOM      7  C   UNL     1      -1.273   0.464  -2.053  0.00  0.00    +0.200 C 
ATOM      8  O   UNL     1      -2.461   0.285  -2.223  0.00  0.00    -0.278 OA
ATOM      9  N   UNL     1      -0.378  -0.367  -2.622  0.00  0.00    -0.316 N 
ATOM     10  H   UNL     1       0.699  -0.205  -2.468  0.00  0.00    +0.149 HD
BRANCH   9  11
ATOM     11  C   UNL     1      -0.839  -1.487  -3.447  0.00  0.00    +0.109 C 
BRANCH  11  12
ATOM     12  C   UNL     1       0.368  -2.267  -3.969  0.00  0.00    +0.054 C 
BRANCH  12  13
ATOM     13  C   UNL     1      -0.106  -3.419  -4.816  0.00  0.00    -0.042 A 
ATOM     14  C   UNL     1      -0.351  -4.649  -4.234  0.00  0.00    +0.007 A 
ATOM     15  C   UNL     1      -0.791  -5.708  -5.007  0.00  0.00    +0.050 A 
ATOM     16  C   UNL     1      -0.978  -5.541  -6.370  0.00  0.00    +0.166 A 
ATOM     17  C   UNL     1      -0.725  -4.303  -6.957  0.00  0.00    +0.166 A 
ATOM     18  C   UNL     1      -0.290  -3.246  -6.176  0.00  0.00    +0.053 A 
ATOM     19  O   UNL     1      -0.981  -4.395  -8.295  0.00  0.00    -0.453 OA
ATOM     20  C   UNL     1      -1.780  -5.582  -8.453  0.00  0.00    +0.466 C 
ATOM     21  O   UNL     1      -1.391  -6.408  -7.340  0.00  0.00    -0.453 OA
ENDBRANCH  12  13
ENDBRANCH  11  12
ENDBRANCH   9  11
ENDBRANCH   5   7
BRANCH   3  22
ATOM     22  N   UNL     1       0.158   2.033   2.295  0.00  0.00    -0.311 NA
ATOM     23  H   UNL     1       1.042   1.379   2.286  0.00  0.00    +0.122 HD
BRANCH  22  24
ATOM     24  C   UNL     1      -0.469   1.961   3.621  0.00  0.00    +0.117 C 
BRANCH  24  25
ATOM     25  C   UNL     1       0.520   2.407   4.668  0.00  0.00    -0.022 A 
ATOM     26  C   UNL     1       1.204   1.467   5.418  0.00  0.00    +0.005 A 
ATOM     27  C   UNL     1       2.113   1.876   6.375  0.00  0.00    +0.000 A 
ATOM     28  C   UNL     1       2.332   3.224   6.589  0.00  0.00    +0.001 A 
ATOM     29  C   UNL     1       1.645   4.163   5.844  0.00  0.00    +0.013 A 
ATOM     30  C   UNL     1       0.738   3.754   4.883  0.00  0.00    +0.059 A 
BRANCH  30  31
ATOM     31  C   UNL     1      -0.012   4.778   4.070  0.00  0.00    +0.418 C 
ATOM     32  F   UNL     1       0.376   6.063   4.466  0.00  0.00    -0.166 F 
ATOM     33  F   UNL     1       0.279   4.601   2.713  0.00  0.00    -0.166 F 
ATOM     34  F   UNL     1      -1.387   4.622   4.277  0.00  0.00    -0.166 F 
ENDBRANCH  30  31
ENDBRANCH  24  25
ENDBRANCH  22  24
ENDBRANCH   3  22
BRANCH   1  35
ATOM     35  C   UNL     1      -2.285   3.509  -1.538  0.00  0.00    -0.042 C 
BRANCH  35  39
ATOM     36  C   UNL     1      -6.029   5.178  -0.336  0.00  0.00    +0.000 A 
ATOM     37  C   UNL     1      -4.854   5.639   0.227  0.00  0.00    +0.000 A 
ATOM     38  C   UNL     1      -3.643   5.099  -0.162  0.00  0.00    +0.002 A 
ATOM     39  C   UNL     1      -3.606   4.097  -1.114  0.00  0.00    -0.064 A 
ATOM     40  C   UNL     1      -4.781   3.639  -1.681  0.00  0.00    +0.002 A 
ATOM     41  C   UNL     1      -5.993   4.176  -1.289  0.00  0.00    +0.000 A 
ENDBRANCH  35  39
ENDBRANCH   1  35
TORSDOF 10
