REMARK  Name = ZINC67049838
REMARK  4 active torsions:
REMARK  status: ('A' for Active; 'I' for Inactive)
REMARK    1  A    between atoms: C_5  and  C_7
REMARK    2  A    between atoms: C_10  and  C_12
REMARK    3  A    between atoms: N_14  and  C_15
REMARK    4  A    between atoms: N_18  and  C_21
REMARK                            x       y       z     vdW  Elec       q    Type
REMARK                         _______ _______ _______ _____ _____    ______ ____
ROOT
ATOM      1  C   UNL     1      -1.344  -1.758  -4.319  0.00  0.00    +0.076 C 
ATOM      2  C   UNL     1      -2.758  -1.363  -3.888  0.00  0.00    +0.041 C 
ATOM      3  C   UNL     1      -3.384  -0.468  -4.963  0.00  0.00    +0.108 C 
ATOM      4  N   UNL     1      -3.318  -1.164  -6.255  0.00  0.00    -0.313 N 
ATOM      5  C   UNL     1      -2.019  -1.666  -6.722  0.00  0.00    +0.108 C 
ATOM      6  C   UNL     1      -1.409  -2.548  -5.628  0.00  0.00    +0.041 C 
ENDROOT
BRANCH   4   7
ATOM      7  C   UNL     1      -4.459  -1.343  -7.018  0.00  0.00    +0.152 A 
ATOM      8  C   UNL     1      -4.382  -1.896  -8.307  0.00  0.00    +0.147 A 
ATOM      9  N   UNL     1      -3.374  -2.350  -9.091  0.00  0.00    -0.231 NA
ATOM     10  C   UNL     1      -3.860  -2.767 -10.224  0.00  0.00    +0.198 A 
ATOM     11  N   UNL     1      -5.214  -2.605 -10.237  0.00  0.00    -0.329 N 
ATOM     12  C   UNL     1      -5.574  -2.054  -9.034  0.00  0.00    +0.163 A 
ATOM     13  N   UNL     1      -6.722  -1.678  -8.480  0.00  0.00    -0.216 NA
ATOM     14  C   UNL     1      -6.747  -1.165  -7.268  0.00  0.00    +0.225 A 
ATOM     15  N   UNL     1      -5.653  -1.002  -6.545  0.00  0.00    -0.218 NA
ATOM     16  H   UNL     1      -5.812  -2.836 -10.965  0.00  0.00    +0.168 HD
ENDBRANCH   4   7
BRANCH   1  19
ATOM     17  C   UNL     1      -0.112  -2.007  -2.231  0.00  0.00    +0.217 C 
ATOM     18  O   UNL     1      -0.063  -0.798  -2.150  0.00  0.00    -0.275 OA
ATOM     19  N   UNL     1      -0.731  -2.587  -3.278  0.00  0.00    -0.312 N 
ATOM     20  H   UNL     1      -0.770  -3.554  -3.343  0.00  0.00    +0.149 HD
BRANCH  17  23
ATOM     21  C   UNL     1       1.205  -2.141   0.002  0.00  0.00    +0.033 C 
ATOM     22  C   UNL     1      -0.131  -2.851   0.225  0.00  0.00    +0.022 C 
ATOM     23  C   UNL     1       0.519  -2.860  -1.161  0.00  0.00    +0.083 C 
BRANCH  21  28
ATOM     24  C   UNL     1      -0.006   1.435  -0.019  0.00  0.00    +0.000 A 
ATOM     25  C   UNL     1       1.188   2.131  -0.034  0.00  0.00    +0.001 A 
ATOM     26  C   UNL     1       2.388   1.446  -0.037  0.00  0.00    +0.020 A 
ATOM     27  C   UNL     1       2.394   0.062  -0.025  0.00  0.00    +0.044 A 
ATOM     28  C   UNL     1       1.199  -0.634  -0.010  0.00  0.00    -0.025 A 
ATOM     29  C   UNL     1      -0.001   0.052  -0.007  0.00  0.00    +0.005 A 
ATOM     30 CL   UNL     1       3.901  -0.799  -0.030  0.00  0.00    -0.083 Cl
ENDBRANCH  21  28
ENDBRANCH  17  23
ENDBRANCH   1  19
TORSDOF 4
