REMARK  Name = ZINC01142113
REMARK  8 active torsions:
REMARK  status: ('A' for Active; 'I' for Inactive)
REMARK    1  A    between atoms: C_1  and  C_2
REMARK    2  A    between atoms: C_3  and  C_24
REMARK    3  A    between atoms: C_4  and  C_10
REMARK    4  A    between atoms: C_15  and  O_16
REMARK    5  A    between atoms: O_16  and  C_17
REMARK    6  A    between atoms: C_17  and  C_18
REMARK    7  A    between atoms: N_26  and  C_27
REMARK    8  A    between atoms: C_27  and  C_28
REMARK                            x       y       z     vdW  Elec       q    Type
REMARK                         _______ _______ _______ _____ _____    ______ ____
ROOT
ATOM      1  C   UNL     1       5.219   2.309  -3.482  0.00  0.00    +0.061 C 
ATOM      2  C   UNL     1       5.043   1.993  -2.019  0.00  0.00    +0.017 C 
ATOM      3  C   UNL     1       3.979   2.494  -1.355  0.00  0.00    +0.056 C 
ATOM      4  C   UNL     1       3.840   2.152   0.114  0.00  0.00    +0.143 C 
ATOM      5  N   UNL     1       4.884   1.294   0.701  0.00  0.00    -0.315 N 
ATOM      6  C   UNL     1       5.887   0.871  -0.092  0.00  0.00    +0.135 C 
ATOM      7  S   UNL     1       7.107  -0.127   0.577  0.00  0.00    -0.019 S 
ATOM      8  N   UNL     1       5.961   1.205  -1.387  0.00  0.00    -0.300 N 
ATOM      9  H   UNL     1       4.851   1.040   1.636  0.00  0.00    +0.149 HD
ATOM     10  H   UNL     1       6.708   0.868  -1.905  0.00  0.00    +0.154 HD
ENDROOT
BRANCH   4  11
ATOM     11  C   UNL     1       2.513   1.466   0.308  0.00  0.00    +0.019 A 
ATOM     12  C   UNL     1       2.432   0.087   0.253  0.00  0.00    +0.009 A 
ATOM     13  C   UNL     1       1.214  -0.543   0.431  0.00  0.00    +0.001 A 
ATOM     14  C   UNL     1       0.074   0.204   0.664  0.00  0.00    +0.004 A 
ATOM     15  C   UNL     1       0.149   1.582   0.720  0.00  0.00    +0.046 A 
ATOM     16  C   UNL     1       1.370   2.217   0.541  0.00  0.00    +0.126 A 
BRANCH  16  17
ATOM     17  O   UNL     1       1.447   3.573   0.595  0.00  0.00    -0.487 OA
BRANCH  17  18
ATOM     18  C   UNL     1       0.254   4.277   0.948  0.00  0.00    +0.264 C 
BRANCH  18  19
ATOM     19  C   UNL     1       0.504   5.761   0.869  0.00  0.00    -0.010 A 
ATOM     20  C   UNL     1       1.058   6.426   1.947  0.00  0.00    +0.007 A 
ATOM     21  C   UNL     1       1.292   7.787   1.872  0.00  0.00    +0.000 A 
ATOM     22  C   UNL     1       0.963   8.483   0.724  0.00  0.00    +0.000 A 
ATOM     23  C   UNL     1       0.404   7.818  -0.351  0.00  0.00    +0.000 A 
ATOM     24  C   UNL     1       0.175   6.457  -0.279  0.00  0.00    +0.007 A 
ENDBRANCH  18  19
ENDBRANCH  17  18
ENDBRANCH  16  17
ENDBRANCH   4  11
BRANCH   3  25
ATOM     25  C   UNL     1       3.026   3.312  -2.010  0.00  0.00    +0.244 C 
ATOM     26  O   UNL     1       3.084   4.523  -1.899  0.00  0.00    -0.270 OA
ATOM     27  N   UNL     1       2.054   2.749  -2.756  0.00  0.00    -0.307 N 
ATOM     28  H   UNL     1       2.053   1.791  -2.908  0.00  0.00    +0.149 HD
BRANCH  27  29
ATOM     29  C   UNL     1       1.000   3.584  -3.337  0.00  0.00    +0.139 C 
BRANCH  29  30
ATOM     30  C   UNL     1      -0.018   2.706  -4.017  0.00  0.00    -0.030 A 
ATOM     31  C   UNL     1       0.184   2.296  -5.322  0.00  0.00    +0.005 A 
ATOM     32  C   UNL     1      -0.748   1.487  -5.945  0.00  0.00    +0.000 A 
ATOM     33  C   UNL     1      -1.887   1.095  -5.266  0.00  0.00    +0.000 A 
ATOM     34  C   UNL     1      -2.092   1.509  -3.963  0.00  0.00    +0.000 A 
ATOM     35  C   UNL     1      -1.157   2.314  -3.339  0.00  0.00    +0.005 A 
ENDBRANCH  29  30
ENDBRANCH  27  29
ENDBRANCH   3  25
TORSDOF 7
