REMARK  Name = ZINC12009324
REMARK  5 active torsions:
REMARK  status: ('A' for Active; 'I' for Inactive)
REMARK    1  A    between atoms: C_4  and  C_7
REMARK    2  A    between atoms: C_16  and  N_25
REMARK    3  A    between atoms: C_18  and  C_20
REMARK    4  A    between atoms: C_26  and  C_28
REMARK    5  A    between atoms: C_28  and  C_33
REMARK                            x       y       z     vdW  Elec       q    Type
REMARK                         _______ _______ _______ _____ _____    ______ ____
ROOT
ATOM      1  C   UNL     1      -3.916   2.743  -5.917  0.00  0.00    +0.080 A 
ATOM      2  C   UNL     1      -4.322   2.972  -7.223  0.00  0.00    +0.098 A 
ATOM      3  C   UNL     1      -3.364   3.387  -8.162  0.00  0.00    +0.253 A 
ATOM      4  O   UNL     1      -3.682   3.600  -9.321  0.00  0.00    -0.268 OA
ATOM      5  N   UNL     1      -2.087   3.553  -7.758  0.00  0.00    -0.291 N 
ATOM      6  H   UNL     1      -1.413   3.843  -8.392  0.00  0.00    +0.172 HD
ATOM      7  C   UNL     1      -1.742   3.309  -6.465  0.00  0.00    +0.234 A 
ATOM      8  N   UNL     1      -2.631   2.920  -5.580  0.00  0.00    -0.212 NA
ATOM      9  N   UNL     1      -0.428   3.479  -6.074  0.00  0.00    -0.184 N 
ATOM     10  C   UNL     1       0.090   3.176  -4.846  0.00  0.00    +0.132 A 
ATOM     11  C   UNL     1       1.411   3.484  -4.869  0.00  0.00    +0.077 A 
ATOM     12  C   UNL     1       1.713   3.997  -6.148  0.00  0.00    +0.130 A 
ATOM     13  N   UNL     1       0.607   3.995  -6.864  0.00  0.00    -0.159 NA
ENDROOT
BRANCH   1  17
ATOM     14  C   UNL     1      -6.735   1.485  -2.995  0.00  0.00    +0.000 A 
ATOM     15  C   UNL     1      -5.437   1.780  -2.618  0.00  0.00    +0.001 A 
ATOM     16  C   UNL     1      -4.517   2.188  -3.562  0.00  0.00    +0.010 A 
ATOM     17  C   UNL     1      -4.899   2.304  -4.898  0.00  0.00    +0.001 A 
ATOM     18  C   UNL     1      -6.210   2.010  -5.271  0.00  0.00    +0.010 A 
ATOM     19  C   UNL     1      -7.119   1.597  -4.319  0.00  0.00    +0.001 A 
ENDBRANCH   1  17
BRANCH  12  20
ATOM     20  C   UNL     1       3.041   4.458  -6.606  0.00  0.00    +0.155 A 
ATOM     21  C   UNL     1       3.333   4.947  -7.840  0.00  0.00    +0.051 A 
ATOM     22  C   UNL     1       4.707   5.263  -7.836  0.00  0.00    +0.042 A 
ATOM     23  C   UNL     1       5.181   4.946  -6.616  0.00  0.00    +0.196 A 
ATOM     24  O   UNL     1       4.172   4.460  -5.875  0.00  0.00    -0.461 OA
ENDBRANCH  12  20
BRANCH  10  25
ATOM     25  N   UNL     1      -0.611   2.642  -3.768  0.00  0.00    -0.269 N 
ATOM     26  C   UNL     1       0.048   2.272  -2.652  0.00  0.00    +0.229 C 
ATOM     27  O   UNL     1       1.238   2.484  -2.553  0.00  0.00    -0.274 OA
ATOM     28  H   UNL     1      -1.574   2.536  -3.819  0.00  0.00    +0.156 HD
BRANCH  26  29
ATOM     29  C   UNL     1      -0.693   1.597  -1.527  0.00  0.00    +0.072 C 
ATOM     30  C   UNL     1       0.280   1.250  -0.387  0.00  0.00    +0.021 C 
ATOM     31  C   UNL     1      -0.210   2.014   0.861  0.00  0.00    +0.001 C 
ATOM     32  C   UNL     1      -1.028   3.198   0.283  0.00  0.00    +0.001 C 
ATOM     33  C   UNL     1      -1.743   2.559  -0.933  0.00  0.00    +0.021 C 
BRANCH  29  34
ATOM     34  C   UNL     1      -1.366   0.346  -2.030  0.00  0.00    -0.032 A 
ATOM     35  C   UNL     1      -2.248  -0.340  -1.215  0.00  0.00    +0.006 A 
ATOM     36  C   UNL     1      -2.870  -1.484  -1.677  0.00  0.00    +0.020 A 
ATOM     37  C   UNL     1      -2.600  -1.950  -2.952  0.00  0.00    +0.041 A 
ATOM     38  C   UNL     1      -1.713  -1.268  -3.764  0.00  0.00    +0.020 A 
ATOM     39  C   UNL     1      -1.096  -0.120  -3.303  0.00  0.00    +0.006 A 
ATOM     40 CL   UNL     1      -3.376  -3.392  -3.531  0.00  0.00    -0.084 Cl
ENDBRANCH  29  34
ENDBRANCH  26  29
ENDBRANCH  10  25
TORSDOF 5
