REMARK  Name = ZINC39587570
REMARK  7 active torsions:
REMARK  status: ('A' for Active; 'I' for Inactive)
REMARK    1  A    between atoms: C_4  and  N_10
REMARK    2  A    between atoms: C_6  and  N_7
REMARK    3  A    between atoms: C_11  and  C_13
REMARK    4  A    between atoms: C_13  and  O_14
REMARK    5  A    between atoms: O_14  and  C_15
REMARK    6  A    between atoms: C_15  and  C_17
REMARK    7  A    between atoms: C_22  and  O_23
REMARK                            x       y       z     vdW  Elec       q    Type
REMARK                         _______ _______ _______ _____ _____    ______ ____
ROOT
ATOM      1  N   UNL     1       3.622  -0.653  -0.037  0.00  0.00    -0.281 N 
ATOM      2  C   UNL     1       3.644  -1.998   0.058  0.00  0.00    +0.255 C 
ATOM      3  O   UNL     1       2.605  -2.622   0.065  0.00  0.00    -0.272 OA
ATOM      4  H   UNL     1       4.452  -0.159  -0.123  0.00  0.00    +0.155 HD
ENDROOT
BRANCH   1   8
ATOM      5  C   UNL     1      -0.015   1.380   0.043  0.00  0.00    +0.034 A 
ATOM      6  C   UNL     1       1.083   1.955  -0.572  0.00  0.00    +0.024 A 
ATOM      7  C   UNL     1       2.290   1.284  -0.600  0.00  0.00    +0.062 A 
ATOM      8  C   UNL     1       2.400   0.030  -0.010  0.00  0.00    +0.054 A 
ATOM      9  C   UNL     1       1.296  -0.543   0.606  0.00  0.00    +0.057 A 
ATOM     10  C   UNL     1       0.092   0.134   0.631  0.00  0.00    +0.128 A 
ATOM     11 CL   UNL     1       3.668   2.005  -1.372  0.00  0.00    -0.082 Cl
BRANCH  10  12
ATOM     12  N   UNL     1      -1.086  -0.477   1.287  0.00  0.00    +0.056 N 
ATOM     13  O   UNL     1      -2.140   0.114   1.310  0.00  0.00    -0.126 OA
ATOM     14  O   UNL     1      -0.993  -1.567   1.802  0.00  0.00    -0.126 OA
ENDBRANCH  10  12
ENDBRANCH   1   8
BRANCH   2  15
ATOM     15  C   UNL     1       4.961  -2.724   0.154  0.00  0.00    +0.328 C 
BRANCH  15  16
ATOM     16  O   UNL     1       4.723  -4.130   0.244  0.00  0.00    -0.452 OA
BRANCH  16  17
ATOM     17  C   UNL     1       5.805  -4.929   0.337  0.00  0.00    +0.343 C 
ATOM     18  O   UNL     1       6.919  -4.444   0.342  0.00  0.00    -0.245 OA
BRANCH  17  19
ATOM     19  C   UNL     1       5.636  -6.390   0.433  0.00  0.00    +0.101 A 
ATOM     20  C   UNL     1       4.356  -6.952   0.421  0.00  0.00    +0.034 A 
ATOM     21  C   UNL     1       4.206  -8.319   0.511  0.00  0.00    +0.019 A 
ATOM     22  C   UNL     1       5.319  -9.140   0.612  0.00  0.00    +0.019 A 
ATOM     23  C   UNL     1       6.588  -8.598   0.625  0.00  0.00    +0.047 A 
ATOM     24  C   UNL     1       6.758  -7.224   0.530  0.00  0.00    +0.131 A 
ATOM     25 BR   UNL     1       2.474  -9.079   0.496  0.00  0.00    -0.050 Br
BRANCH  24  26
ATOM     26  O   UNL     1       8.005  -6.691   0.536  0.00  0.00    -0.506 OA
ATOM     27  H   UNL     1       8.336  -6.475   1.419  0.00  0.00    +0.292 HD
ENDBRANCH  24  26
ENDBRANCH  17  19
ENDBRANCH  16  17
ENDBRANCH  15  16
ENDBRANCH   2  15
TORSDOF 7
