REMARK  Name = ZINC36657735
REMARK  8 active torsions:
REMARK  status: ('A' for Active; 'I' for Inactive)
REMARK    1  A    between atoms: C_1  and  C_2
REMARK    2  A    between atoms: C_2  and  C_3
REMARK    3  A    between atoms: C_2  and  C_4
REMARK    4  A    between atoms: C_7  and  C_10
REMARK    5  A    between atoms: C_10  and  C_11
REMARK    6  A    between atoms: C_17  and  C_19
REMARK    7  A    between atoms: N_22  and  S_25
REMARK    8  A    between atoms: S_25  and  C_28
REMARK                            x       y       z     vdW  Elec       q    Type
REMARK                         _______ _______ _______ _____ _____    ______ ____
ROOT
ATOM      1  C   UNL     1      -6.323  -1.024  -0.658  0.00  0.00    +0.223 A 
ATOM      2  N   UNL     1      -6.614  -1.017  -1.926  0.00  0.00    -0.111 NA
ATOM      3  N   UNL     1      -7.414  -0.042  -2.179  0.00  0.00    -0.092 NA
ATOM      4  C   UNL     1      -7.661   0.613  -1.072  0.00  0.00    +0.314 A 
ATOM      5  O   UNL     1      -6.980   0.002  -0.085  0.00  0.00    -0.409 OA
ATOM      6  N   UNL     1      -8.478   1.727  -0.941  0.00  0.00    -0.238 N 
ATOM      7  C   UNL     1      -9.107   2.233  -2.020  0.00  0.00    +0.224 C 
ATOM      8  O   UNL     1      -8.958   1.715  -3.107  0.00  0.00    -0.275 OA
ATOM      9  H   UNL     1      -8.597   2.142  -0.072  0.00  0.00    +0.159 HD
ENDROOT
BRANCH   7  10
ATOM     10  C   UNL     1      -9.993   3.443  -1.877  0.00  0.00    +0.078 C 
ATOM     11  C   UNL     1      -9.171   4.617  -1.342  0.00  0.00    +0.030 C 
ATOM     12  C   UNL     1     -10.084   5.836  -1.165  0.00  0.00    +0.110 C 
ATOM     13  N   UNL     1     -10.763   6.106  -2.439  0.00  0.00    -0.176 NA
ATOM     14  C   UNL     1     -11.508   5.018  -3.087  0.00  0.00    +0.110 C 
ATOM     15  C   UNL     1     -10.580   3.809  -3.243  0.00  0.00    +0.030 C 
BRANCH  13  16
ATOM     16  S   UNL     1     -10.692   7.609  -3.132  0.00  0.00    +0.067 S 
ATOM     17  O   UNL     1     -11.830   7.722  -3.974  0.00  0.00    -0.152 OA
ATOM     18  O   UNL     1     -10.427   8.528  -2.081  0.00  0.00    -0.152 OA
BRANCH  16  19
ATOM     19  C   UNL     1      -9.281   7.630  -4.186  0.00  0.00    +0.144 A 
ATOM     20  C   UNL     1      -9.191   7.304  -5.499  0.00  0.00    +0.038 A 
ATOM     21  C   UNL     1      -7.965   7.397  -6.131  0.00  0.00    +0.030 A 
ATOM     22  C   UNL     1      -6.888   7.811  -5.418  0.00  0.00    +0.080 A 
ATOM     23  S   UNL     1      -7.599   8.092  -3.805  0.00  0.00    -0.057 S 
ATOM     24 CL   UNL     1      -5.246   8.020  -5.941  0.00  0.00    -0.076 Cl
ENDBRANCH  16  19
ENDBRANCH  13  16
ENDBRANCH   7  10
BRANCH   1  25
ATOM     25  C   UNL     1      -5.419  -2.005   0.043  0.00  0.00    +0.132 C 
BRANCH  25  29
ATOM     26  C   UNL     1      -1.412  -0.526   0.013  0.00  0.00    -0.045 A 
ATOM     27  C   UNL     1      -2.259  -0.204   1.056  0.00  0.00    +0.004 A 
ATOM     28  C   UNL     1      -3.556  -0.683   1.066  0.00  0.00    +0.004 A 
ATOM     29  C   UNL     1      -4.006  -1.482   0.032  0.00  0.00    -0.038 A 
ATOM     30  C   UNL     1      -3.159  -1.803  -1.012  0.00  0.00    +0.004 A 
ATOM     31  C   UNL     1      -1.863  -1.321  -1.024  0.00  0.00    +0.004 A 
BRANCH  26  33
ATOM     32  C   UNL     1      -0.019   1.526   0.010  0.00  0.00    +0.012 C 
ATOM     33  C   UNL     1       0.002  -0.004   0.002  0.00  0.00    +0.013 C 
ATOM     34  C   UNL     1       0.742  -0.511   1.242  0.00  0.00    +0.012 C 
ENDBRANCH  26  33
ENDBRANCH  25  29
ENDBRANCH   1  25
TORSDOF 6
