REMARK  Name = ZINC28849318
REMARK  6 active torsions:
REMARK  status: ('A' for Active; 'I' for Inactive)
REMARK    1  A    between atoms: C_7  and  C_11
REMARK    2  A    between atoms: C_11  and  C_12
REMARK    3  A    between atoms: N_16  and  N_20
REMARK    4  A    between atoms: C_21  and  C_23
REMARK    5  A    between atoms: C_27  and  S_29
REMARK    6  A    between atoms: S_29  and  N_32
REMARK                            x       y       z     vdW  Elec       q    Type
REMARK                         _______ _______ _______ _____ _____    ______ ____
ROOT
ATOM      1  C   UNL     1      -2.063   3.721  -1.387  0.00  0.00    +0.167 C 
ATOM      2  C   UNL     1      -2.723   5.085  -1.413  0.00  0.00    +0.260 C 
ATOM      3  O   UNL     1      -3.848   5.362  -1.056  0.00  0.00    -0.272 OA
ATOM      4  N   UNL     1      -1.799   5.928  -1.915  0.00  0.00    -0.137 N 
ATOM      5  C   UNL     1      -0.658   5.292  -2.206  0.00  0.00    +0.326 C 
ATOM      6  O   UNL     1       0.322   5.841  -2.671  0.00  0.00    -0.251 OA
ATOM      7  N   UNL     1      -0.717   3.977  -1.928  0.00  0.00    -0.286 N 
ATOM      8  H   UNL     1       0.002   3.151  -2.028  0.00  0.00    +0.151 HD
ENDROOT
BRANCH   4   9
ATOM      9  N   UNL     1      -2.006   7.300  -2.107  0.00  0.00    -0.220 N 
ATOM     10  C   UNL     1      -1.444   8.191  -1.265  0.00  0.00    +0.261 C 
ATOM     11  O   UNL     1      -0.758   7.803  -0.339  0.00  0.00    -0.269 OA
ATOM     12  H   UNL     1      -2.627   7.651  -2.944  0.00  0.00    +0.174 HD
BRANCH  10  13
ATOM     13  C   UNL     1      -1.663   9.639  -1.467  0.00  0.00    +0.040 A 
ATOM     14  C   UNL     1      -2.450  10.087  -2.529  0.00  0.00    +0.013 A 
ATOM     15  C   UNL     1      -2.651  11.440  -2.712  0.00  0.00    +0.003 A 
ATOM     16  C   UNL     1      -2.073  12.351  -1.846  0.00  0.00    +0.028 A 
ATOM     17  C   UNL     1      -1.292  11.913  -0.792  0.00  0.00    +0.106 A 
ATOM     18  C   UNL     1      -1.088  10.563  -0.594  0.00  0.00    +0.041 A 
BRANCH  17  19
ATOM     19  S   UNL     1      -0.560  13.082   0.305  0.00  0.00    +0.061 S 
ATOM     20  O   UNL     1       0.569  12.444   0.885  0.00  0.00    -0.153 OA
ATOM     21  O   UNL     1      -0.459  14.305  -0.413  0.00  0.00    -0.153 OA
BRANCH  19  22
ATOM     22  N   UNL     1      -1.640  13.343   1.534  0.00  0.00    -0.177 NA
ATOM     23  C   UNL     1      -2.646  14.409   1.433  0.00  0.00    +0.109 C 
ATOM     24  C   UNL     1      -4.033  13.797   1.681  0.00  0.00    +0.017 C 
ATOM     25  C   UNL     1      -4.027  13.063   3.024  0.00  0.00    +0.003 C 
ATOM     26  C   UNL     1      -3.001  11.929   2.984  0.00  0.00    +0.017 C 
ATOM     27  C   UNL     1      -1.605  12.516   2.748  0.00  0.00    +0.109 C 
ENDBRANCH  19  22
ENDBRANCH  17  19
ENDBRANCH  10  13
ENDBRANCH   4   9
BRANCH   1  28
ATOM     28  C   UNL     1      -1.976   3.193   0.046  0.00  0.00    +0.069 C 
BRANCH  28  35
ATOM     29  C   UNL     1       2.372   1.442  -0.011  0.00  0.00    +0.001 A 
ATOM     30  C   UNL     1       2.396   0.054  -0.019  0.00  0.00    +0.002 A 
ATOM     31  C   UNL     1       1.224  -0.669  -0.013  0.00  0.00    +0.026 A 
ATOM     32  C   UNL     1       0.002  -0.004   0.002  0.00  0.00    +0.047 A 
ATOM     33  C   UNL     1      -0.017   1.403   0.010  0.00  0.00    +0.003 A 
ATOM     34  C   UNL     1       1.183   2.115   0.002  0.00  0.00    +0.010 A 
ATOM     35  C   UNL     1      -1.430   1.788   0.031  0.00  0.00    -0.020 A 
ATOM     36  C   UNL     1      -2.147   0.653   0.026  0.00  0.00    +0.087 A 
ATOM     37  N   UNL     1      -1.308  -0.428   0.012  0.00  0.00    -0.360 N 
ATOM     38  H   UNL     1      -1.538  -1.504   0.009  0.00  0.00    +0.165 HD
ENDBRANCH  28  35
ENDBRANCH   1  28
TORSDOF 6
