REMARK  Name = ZINC37142020
REMARK  7 active torsions:
REMARK  status: ('A' for Active; 'I' for Inactive)
REMARK    1  A    between atoms: C_1  and  C_2
REMARK    2  A    between atoms: C_2  and  C_4
REMARK    3  A    between atoms: C_2  and  N_12
REMARK    4  A    between atoms: C_7  and  O_11
REMARK    5  A    between atoms: C_9  and  O_10
REMARK    6  A    between atoms: N_12  and  C_13
REMARK    7  A    between atoms: C_18  and  C_21
REMARK                            x       y       z     vdW  Elec       q    Type
REMARK                         _______ _______ _______ _____ _____    ______ ____
ROOT
ATOM      1  N   UNL     1       0.713  -0.491   1.192  0.00  0.00    +0.385 N 
ATOM      2  H   UNL     1       0.798  -1.495   1.145  0.00  0.00    -0.085 HD
ATOM      3  H   UNL     1       1.632  -0.076   1.228  0.00  0.00    -0.085 HD
ENDROOT
BRANCH   1   4
ATOM      4  C   UNL     1      -0.040  -0.119   2.398  0.00  0.00    -0.071 C 
ATOM      5  C   UNL     1      -1.385  -0.847   2.404  0.00  0.00    -0.016 C 
ATOM      6  C   UNL     1      -1.148  -2.358   2.397  0.00  0.00    -0.001 C 
ATOM      7  C   UNL     1      -0.348  -2.754   3.640  0.00  0.00    +0.012 C 
ATOM      8  C   UNL     1       0.998  -2.026   3.634  0.00  0.00    +0.092 C 
ATOM      9  C   UNL     1       0.760  -0.515   3.640  0.00  0.00    -0.004 C 
BRANCH   8  10
ATOM     10  C   UNL     1       1.798  -2.423   4.876  0.00  0.00    +0.393 C 
ATOM     11  F   UNL     1       2.015  -3.805   4.870  0.00  0.00    -0.170 F 
ATOM     12  F   UNL     1       3.028  -1.757   4.871  0.00  0.00    -0.170 F 
ATOM     13  F   UNL     1       1.081  -2.068   6.024  0.00  0.00    -0.170 F 
ENDBRANCH   8  10
ENDBRANCH   1   4
BRANCH   1  15
ATOM     14  C   UNL     1      -0.019   1.526   0.010  0.00  0.00    -0.009 C 
ATOM     15  C   UNL     1       0.002  -0.004   0.002  0.00  0.00    -0.040 C 
BRANCH  15  16
ATOM     16  C   UNL     1       0.707  -0.490  -1.238  0.00  0.00    -0.020 A 
ATOM     17  C   UNL     1       2.024  -0.904  -1.166  0.00  0.00    +0.009 A 
ATOM     18  C   UNL     1       2.673  -1.350  -2.301  0.00  0.00    +0.046 A 
ATOM     19  C   UNL     1       2.005  -1.383  -3.516  0.00  0.00    +0.120 A 
ATOM     20  C   UNL     1       0.684  -0.969  -3.591  0.00  0.00    +0.091 A 
ATOM     21  C   UNL     1       0.033  -0.527  -2.450  0.00  0.00    +0.122 A 
BRANCH  21  22
ATOM     22  O   UNL     1      -1.264  -0.125  -2.519  0.00  0.00    -0.506 OA
ATOM     23  H   UNL     1      -1.374   0.816  -2.711  0.00  0.00    +0.292 HD
ENDBRANCH  21  22
BRANCH  19  24
ATOM     24  O   UNL     1       2.644  -1.822  -4.633  0.00  0.00    -0.507 OA
ATOM     25  H   UNL     1       2.561  -2.773  -4.785  0.00  0.00    +0.292 HD
ENDBRANCH  19  24
ENDBRANCH  15  16
ENDBRANCH   1  15
TORSDOF 6
