REMARK  Name = ZINC09282237
REMARK  5 active torsions:
REMARK  status: ('A' for Active; 'I' for Inactive)
REMARK    1  A    between atoms: C_4  and  C_7
REMARK    2  A    between atoms: C_7  and  N_8
REMARK    3  A    between atoms: C_19  and  C_30
REMARK    4  A    between atoms: C_25  and  N_29
REMARK    5  A    between atoms: C_26  and  C_27
REMARK                            x       y       z     vdW  Elec       q    Type
REMARK                         _______ _______ _______ _____ _____    ______ ____
ROOT
ATOM      1  N   UNL     1       3.734  -1.676   0.988  0.00  0.00    -0.265 N 
ATOM      2  C   UNL     1       4.216  -0.599   1.711  0.00  0.00    +0.041 A 
ATOM      3  C   UNL     1       4.459   0.711   1.295  0.00  0.00    +0.024 A 
ATOM      4  C   UNL     1       4.949   1.596   2.242  0.00  0.00    +0.002 A 
ATOM      5  C   UNL     1       5.191   1.212   3.545  0.00  0.00    +0.000 A 
ATOM      6  C   UNL     1       4.953  -0.089   3.973  0.00  0.00    +0.007 A 
ATOM      7  C   UNL     1       4.464  -0.976   3.037  0.00  0.00    -0.001 A 
ATOM      8  C   UNL     1       4.098  -2.422   3.135  0.00  0.00    +0.145 C 
ATOM      9  C   UNL     1       3.627  -2.788   1.745  0.00  0.00    +0.241 C 
ATOM     10  O   UNL     1       3.232  -3.875   1.380  0.00  0.00    -0.274 OA
ATOM     11  C   UNL     1       5.279  -3.261   3.531  0.00  0.00    +0.066 A 
ATOM     12  C   UNL     1       6.442  -3.560   2.816  0.00  0.00    +0.101 A 
ATOM     13  N   UNL     1       7.196  -4.336   3.571  0.00  0.00    -0.171 NA
ATOM     14  N   UNL     1       6.531  -4.551   4.787  0.00  0.00    -0.246 N 
ATOM     15  H   UNL     1       6.857  -5.084   5.529  0.00  0.00    +0.192 HD
ATOM     16  C   UNL     1       5.358  -3.885   4.745  0.00  0.00    +0.224 A 
ATOM     17  O   UNL     1       4.380  -3.792   5.679  0.00  0.00    -0.423 OA
ATOM     18  C   UNL     1       3.189  -3.285   5.300  0.00  0.00    +0.201 C 
ATOM     19  C   UNL     1       2.988  -2.637   4.128  0.00  0.00    +0.110 C 
ENDROOT
BRANCH  12  20
ATOM     20  C   UNL     1       6.770  -3.087   1.448  0.00  0.00    +0.003 A 
ATOM     21  C   UNL     1       6.678  -1.733   1.135  0.00  0.00    +0.010 A 
ATOM     22  C   UNL     1       6.985  -1.298  -0.139  0.00  0.00    +0.001 A 
ATOM     23  C   UNL     1       7.383  -2.205  -1.104  0.00  0.00    +0.000 A 
ATOM     24  C   UNL     1       7.476  -3.551  -0.799  0.00  0.00    +0.001 A 
ATOM     25  C   UNL     1       7.178  -3.996   0.473  0.00  0.00    +0.010 A 
ENDBRANCH  12  20
BRANCH  18  26
ATOM     26  N   UNL     1       2.121  -3.435   6.149  0.00  0.00    -0.328 N 
ATOM     27  H   UNL     1       2.235  -3.896   6.995  0.00  0.00    +0.145 HD
ATOM     28  H   UNL     1       1.252  -3.080   5.902  0.00  0.00    +0.145 HD
ENDBRANCH  18  26
BRANCH  19  29
ATOM     29  C   UNL     1       1.680  -2.140   3.825  0.00  0.00    +0.102 C 
ATOM     30  N   UNL     1       0.642  -1.746   3.585  0.00  0.00    -0.191 NA
ENDBRANCH  19  29
BRANCH   1  31
ATOM     31  C   UNL     1       3.375  -1.614  -0.432  0.00  0.00    +0.148 C 
BRANCH  31  35
ATOM     32  C   UNL     1      -0.735  -0.518  -0.818  0.00  0.00    +0.000 A 
ATOM     33  C   UNL     1       0.241   0.461  -0.783  0.00  0.00    +0.000 A 
ATOM     34  C   UNL     1       1.571   0.106  -0.658  0.00  0.00    +0.005 A 
ATOM     35  C   UNL     1       1.925  -1.227  -0.567  0.00  0.00    -0.030 A 
ATOM     36  C   UNL     1       0.949  -2.205  -0.602  0.00  0.00    +0.005 A 
ATOM     37  C   UNL     1      -0.381  -1.851  -0.728  0.00  0.00    +0.000 A 
ENDBRANCH  31  35
ENDBRANCH   1  31
TORSDOF 5
