REMARK  Name = ZINC63253366
REMARK  11 active torsions:
REMARK  status: ('A' for Active; 'I' for Inactive)
REMARK    1  A    between atoms: C_1  and  C_2
REMARK    2  A    between atoms: C_2  and  O_3
REMARK    3  A    between atoms: O_3  and  C_4
REMARK    4  A    between atoms: C_4  and  C_6
REMARK    5  A    between atoms: C_11  and  N_12
REMARK    6  A    between atoms: C_13  and  C_15
REMARK    7  A    between atoms: C_15  and  S_16
REMARK    8  A    between atoms: S_16  and  C_17
REMARK    9  A    between atoms: C_20  and  C_29
REMARK   10  A    between atoms: N_21  and  C_22
REMARK   11  A    between atoms: C_27  and  C_28
REMARK                            x       y       z     vdW  Elec       q    Type
REMARK                         _______ _______ _______ _____ _____    ______ ____
ROOT
ATOM      1  C   UNL     1       0.832  -9.674  -0.040  0.00  0.00    +0.197 A 
ATOM      2  N   UNL     1       0.036  -9.281   0.943  0.00  0.00    -0.122 NA
ATOM      3  N   UNL     1      -0.319 -10.290   1.656  0.00  0.00    -0.128 NA
ATOM      4  C   UNL     1       0.229 -11.396   1.173  0.00  0.00    +0.168 A 
ATOM      5  N   UNL     1       0.978 -11.025   0.067  0.00  0.00    -0.270 N 
ENDROOT
BRANCH   4   6
ATOM      6  C   UNL     1       0.076 -12.695   1.681  0.00  0.00    +0.025 C 
ATOM      7  C   UNL     1      -0.683 -13.085   2.785  0.00  0.00    +0.006 A 
ATOM      8  C   UNL     1      -1.489 -12.362   3.691  0.00  0.00    +0.010 A 
ATOM      9  C   UNL     1      -2.126 -13.017   4.695  0.00  0.00    +0.001 A 
ATOM     10  C   UNL     1      -2.007 -14.399   4.859  0.00  0.00    +0.002 A 
ATOM     11  C   UNL     1      -1.250 -15.155   4.026  0.00  0.00    +0.026 A 
ATOM     12  C   UNL     1      -0.553 -14.541   2.953  0.00  0.00    +0.043 A 
ATOM     13  N   UNL     1       0.233 -15.045   2.022  0.00  0.00    -0.380 N 
ATOM     14  C   UNL     1       0.694 -13.966   1.143  0.00  0.00    +0.152 C 
ATOM     15  H   UNL     1       0.466 -15.982   1.931  0.00  0.00    +0.160 HD
ENDBRANCH   4   6
BRANCH   5  16
ATOM     16  C   UNL     1       1.730 -11.864  -0.765  0.00  0.00    +0.053 A 
ATOM     17  C   UNL     1       3.061 -12.127  -0.468  0.00  0.00    +0.026 A 
ATOM     18  C   UNL     1       3.800 -12.954  -1.290  0.00  0.00    +0.002 A 
ATOM     19  C   UNL     1       3.216 -13.522  -2.408  0.00  0.00    +0.000 A 
ATOM     20  C   UNL     1       1.891 -13.263  -2.706  0.00  0.00    +0.005 A 
ATOM     21  C   UNL     1       1.145 -12.440  -1.885  0.00  0.00    -0.026 A 
ATOM     22  C   UNL     1      -0.301 -12.163  -2.207  0.00  0.00    +0.046 C 
ENDBRANCH   5  16
BRANCH   1  23
ATOM     23  S   UNL     1       1.563  -8.641  -1.266  0.00  0.00    -0.076 S 
BRANCH  23  24
ATOM     24  C   UNL     1       0.976  -6.977  -0.845  0.00  0.00    +0.173 C 
BRANCH  24  26
ATOM     25  N   UNL     1       1.232  -4.675  -1.712  0.00  0.00    -0.284 N 
ATOM     26  C   UNL     1       1.536  -5.982  -1.829  0.00  0.00    +0.228 C 
ATOM     27  O   UNL     1       2.260  -6.359  -2.727  0.00  0.00    -0.275 OA
ATOM     28  H   UNL     1       0.717  -4.362  -0.952  0.00  0.00    +0.155 HD
BRANCH  25  34
ATOM     29  C   UNL     1       2.022  -2.466  -2.320  0.00  0.00    +0.080 A 
ATOM     30  C   UNL     1       2.453  -1.571  -3.303  0.00  0.00    +0.017 A 
ATOM     31  C   UNL     1       2.513  -1.973  -4.620  0.00  0.00    +0.001 A 
ATOM     32  C   UNL     1       2.148  -3.262  -4.975  0.00  0.00    +0.002 A 
ATOM     33  C   UNL     1       1.719  -4.157  -4.016  0.00  0.00    +0.024 A 
ATOM     34  C   UNL     1       1.658  -3.772  -2.683  0.00  0.00    +0.047 A 
BRANCH  29  35
ATOM     35  C   UNL     1       1.956  -2.042  -0.910  0.00  0.00    +0.341 C 
ATOM     36  O   UNL     1       1.501  -2.794  -0.071  0.00  0.00    -0.245 OA
BRANCH  35  37
ATOM     37  O   UNL     1       2.401  -0.822  -0.551  0.00  0.00    -0.461 OA
BRANCH  37  39
ATOM     38  C   UNL     1       2.855   0.934   1.045  0.00  0.00    +0.048 C 
ATOM     39  C   UNL     1       2.307  -0.478   0.832  0.00  0.00    +0.229 C 
ENDBRANCH  37  39
ENDBRANCH  35  37
ENDBRANCH  29  35
ENDBRANCH  25  34
ENDBRANCH  24  26
ENDBRANCH  23  24
ENDBRANCH   1  23
TORSDOF 9
