REMARK  Name = ZINC58913202
REMARK  8 active torsions:
REMARK  status: ('A' for Active; 'I' for Inactive)
REMARK    1  A    between atoms: C_1  and  C_2
REMARK    2  A    between atoms: C_7  and  N_8
REMARK    3  A    between atoms: C_9  and  C_11
REMARK    4  A    between atoms: N_13  and  N_14
REMARK    5  A    between atoms: C_15  and  C_16
REMARK    6  A    between atoms: C_18  and  C_29
REMARK    7  A    between atoms: N_19  and  C_22
REMARK    8  A    between atoms: C_20  and  C_21
REMARK                            x       y       z     vdW  Elec       q    Type
REMARK                         _______ _______ _______ _____ _____    ______ ____
ROOT
ATOM      1  C   UNL     1      -0.167   0.044   4.867  0.00  0.00    +0.318 C 
ATOM      2  O   UNL     1      -0.183   1.259   4.871  0.00  0.00    -0.263 OA
ATOM      3  N   UNL     1      -0.248  -0.636   6.028  0.00  0.00    -0.199 N 
ATOM      4  H   UNL     1      -0.235  -1.605   6.024  0.00  0.00    +0.178 HD
ENDROOT
BRANCH   1   6
ATOM      5  N   UNL     1       0.025  -0.015   2.416  0.00  0.00    -0.277 N 
ATOM      6  C   UNL     1      -0.056  -0.695   3.577  0.00  0.00    +0.305 C 
ATOM      7  O   UNL     1      -0.040  -1.909   3.572  0.00  0.00    -0.265 OA
ATOM      8  H   UNL     1       0.078   0.953   2.423  0.00  0.00    +0.155 HD
BRANCH   5  15
ATOM      9  C   UNL     1      -1.266   1.183   0.182  0.00  0.00    +0.045 C 
ATOM     10  C   UNL     1      -0.585  -0.158   0.085  0.00  0.00    -0.029 A 
ATOM     11  C   UNL     1      -0.570  -0.840  -1.116  0.00  0.00    +0.006 A 
ATOM     12  C   UNL     1       0.054  -2.070  -1.207  0.00  0.00    +0.020 A 
ATOM     13  C   UNL     1       0.667  -2.622  -0.095  0.00  0.00    +0.043 A 
ATOM     14  C   UNL     1       0.655  -1.945   1.109  0.00  0.00    +0.043 A 
ATOM     15  C   UNL     1       0.033  -0.706   1.201  0.00  0.00    +0.038 A 
ATOM     16 CL   UNL     1       1.450  -4.167  -0.214  0.00  0.00    -0.083 Cl
ENDBRANCH   5  15
ENDBRANCH   1   6
BRANCH   3  17
ATOM     17  N   UNL     1      -0.352   0.059   7.240  0.00  0.00    -0.187 NA
ATOM     18  C   UNL     1      -0.430  -0.596   8.360  0.00  0.00    +0.140 C 
BRANCH  18  19
ATOM     19  C   UNL     1      -0.539   0.134   9.634  0.00  0.00    +0.016 A 
ATOM     20  C   UNL     1      -0.629  -0.449  10.977  0.00  0.00    +0.032 A 
ATOM     21  C   UNL     1      -0.713   0.582  11.838  0.00  0.00    +0.022 A 
ATOM     22  N   UNL     1      -0.681   1.751  11.132  0.00  0.00    -0.317 N 
ATOM     23  C   UNL     1      -0.570   1.490   9.803  0.00  0.00    +0.030 A 
ATOM     24  C   UNL     1      -0.497   2.518   8.703  0.00  0.00    +0.064 C 
ATOM     25  C   UNL     1      -0.824   0.465  13.336  0.00  0.00    +0.064 C 
BRANCH  22  26
ATOM     26  C   UNL     1      -0.747   3.033  11.697  0.00  0.00    +0.047 A 
ATOM     27  C   UNL     1      -1.837   3.852  11.436  0.00  0.00    +0.027 A 
ATOM     28  C   UNL     1      -1.900   5.114  11.993  0.00  0.00    +0.022 A 
ATOM     29  C   UNL     1      -0.877   5.562  12.811  0.00  0.00    +0.041 A 
ATOM     30  C   UNL     1       0.211   4.748  13.072  0.00  0.00    +0.022 A 
ATOM     31  C   UNL     1       0.275   3.482  12.522  0.00  0.00    +0.027 A 
ATOM     32 CL   UNL     1      -0.959   7.149  13.510  0.00  0.00    -0.084 Cl
ENDBRANCH  22  26
ENDBRANCH  18  19
ENDBRANCH   3  17
TORSDOF 5
