REMARK  Name = ZINC35226696
REMARK  10 active torsions:
REMARK  status: ('A' for Active; 'I' for Inactive)
REMARK    1  A    between atoms: C_1  and  C_2
REMARK    2  A    between atoms: C_2  and  C_3
REMARK    3  A    between atoms: C_2  and  C_4
REMARK    4  A    between atoms: C_2  and  N_5
REMARK    5  A    between atoms: N_5  and  C_6
REMARK    6  A    between atoms: N_5  and  C_14
REMARK    7  A    between atoms: C_6  and  C_7
REMARK    8  A    between atoms: C_14  and  C_15
REMARK    9  A    between atoms: C_18  and  C_20
REMARK   10  A    between atoms: N_25  and  C_28
REMARK                            x       y       z     vdW  Elec       q    Type
REMARK                         _______ _______ _______ _____ _____    ______ ____
ROOT
ATOM      1  C   UNL     1       0.467  -1.335  -6.035  0.00  0.00    +0.090 A 
ATOM      2  C   UNL     1       1.225  -1.095  -7.128  0.00  0.00    +0.043 A 
ATOM      3  C   UNL     1       0.401  -1.273  -8.250  0.00  0.00    +0.055 A 
ATOM      4  C   UNL     1      -0.834  -1.617  -7.779  0.00  0.00    +0.190 A 
ATOM      5  O   UNL     1      -0.772  -1.654  -6.432  0.00  0.00    -0.457 OA
ENDROOT
BRANCH   4   6
ATOM      6  C   UNL     1      -2.019  -1.900  -8.595  0.00  0.00    +0.282 C 
ATOM      7  O   UNL     1      -1.924  -1.961  -9.807  0.00  0.00    -0.267 OA
ATOM      8  N   UNL     1      -3.215  -2.093  -8.003  0.00  0.00    -0.292 N 
ATOM      9  C   UNL     1      -4.377  -2.530  -8.789  0.00  0.00    +0.127 C 
ATOM     10  C   UNL     1      -4.943  -3.808  -8.157  0.00  0.00    +0.124 C 
ATOM     11  N   UNL     1      -5.108  -3.585  -6.714  0.00  0.00    -0.325 N 
ATOM     12  C   UNL     1      -3.946  -3.147  -5.928  0.00  0.00    +0.124 C 
ATOM     13  C   UNL     1      -3.378  -1.875  -6.559  0.00  0.00    +0.127 C 
BRANCH  11  14
ATOM     14  C   UNL     1      -6.348  -3.785  -6.099  0.00  0.00    +0.065 A 
ATOM     15  C   UNL     1      -6.673  -5.029  -5.578  0.00  0.00    +0.026 A 
ATOM     16  C   UNL     1      -7.899  -5.224  -4.971  0.00  0.00    +0.002 A 
ATOM     17  C   UNL     1      -8.803  -4.181  -4.883  0.00  0.00    +0.003 A 
ATOM     18  C   UNL     1      -8.483  -2.939  -5.401  0.00  0.00    +0.040 A 
ATOM     19  C   UNL     1      -7.256  -2.736  -6.004  0.00  0.00    +0.144 A 
ATOM     20  F   UNL     1      -6.941  -1.521  -6.505  0.00  0.00    -0.204 F 
ENDBRANCH  11  14
ENDBRANCH   4   6
BRANCH   1  21
ATOM     21  C   UNL     1       0.940  -1.263  -4.606  0.00  0.00    -0.002 C 
BRANCH  21  22
ATOM     22  N   UNL     1       0.923   0.135  -4.155  0.00  0.00    +0.390 N 
ATOM     23  H   UNL     1       0.923   0.748  -4.957  0.00  0.00    -0.080 HD
BRANCH  22  25
ATOM     24  C   UNL     1      -0.818   1.782  -3.647  0.00  0.00    -0.010 C 
ATOM     25  C   UNL     1      -0.285   0.377  -3.355  0.00  0.00    -0.073 C 
ATOM     26  C   UNL     1       0.056   0.260  -1.868  0.00  0.00    -0.010 C 
ATOM     27  C   UNL     1      -1.352  -0.658  -3.717  0.00  0.00    -0.010 C 
ENDBRANCH  22  25
BRANCH  22  28
ATOM     28  C   UNL     1       2.113   0.400  -3.336  0.00  0.00    -0.039 C 
BRANCH  28  29
ATOM     29  C   UNL     1       2.279   1.887  -3.157  0.00  0.00    -0.029 A 
ATOM     30  C   UNL     1       1.654   2.762  -4.025  0.00  0.00    +0.004 A 
ATOM     31  C   UNL     1       1.805   4.126  -3.860  0.00  0.00    +0.000 A 
ATOM     32  C   UNL     1       2.582   4.617  -2.827  0.00  0.00    +0.003 A 
ATOM     33  C   UNL     1       3.207   3.744  -1.957  0.00  0.00    +0.038 A 
ATOM     34  C   UNL     1       3.052   2.377  -2.118  0.00  0.00    +0.125 A 
ATOM     35  F   UNL     1       3.659   1.523  -1.266  0.00  0.00    -0.205 F 
ENDBRANCH  28  29
ENDBRANCH  22  28
ENDBRANCH  21  22
ENDBRANCH   1  21
TORSDOF 7
