REMARK  Name = ZINC14697653
REMARK  9 active torsions:
REMARK  status: ('A' for Active; 'I' for Inactive)
REMARK    1  A    between atoms: C_4  and  C_7
REMARK    2  A    between atoms: C_7  and  N_8
REMARK    3  A    between atoms: C_9  and  N_36
REMARK    4  A    between atoms: C_10  and  N_17
REMARK    5  A    between atoms: N_17  and  C_18
REMARK    6  A    between atoms: C_18  and  C_19
REMARK    7  A    between atoms: C_19  and  C_20
REMARK    8  A    between atoms: C_26  and  C_28
REMARK    9  A    between atoms: C_28  and  C_29
REMARK                            x       y       z     vdW  Elec       q    Type
REMARK                         _______ _______ _______ _____ _____    ______ ____
ROOT
ATOM      1  N   UNL     1       3.001   1.439  -0.834  0.00  0.00    -0.276 N 
ATOM      2  C   UNL     1       3.697   1.645   0.334  0.00  0.00    +0.128 A 
ATOM      3  C   UNL     1       3.357   2.711   1.142  0.00  0.00    +0.140 A 
ATOM      4  C   UNL     1       2.299   3.551   0.749  0.00  0.00    +0.277 A 
ATOM      5  O   UNL     1       1.975   4.497   1.446  0.00  0.00    -0.266 OA
ATOM      6  N   UNL     1       1.646   3.302  -0.404  0.00  0.00    -0.273 N 
ATOM      7  H   UNL     1       0.894   3.898  -0.684  0.00  0.00    +0.173 HD
ATOM      8  C   UNL     1       1.994   2.261  -1.181  0.00  0.00    +0.331 A 
ATOM      9  O   UNL     1       1.388   2.060  -2.215  0.00  0.00    -0.246 OA
ENDROOT
BRANCH   3  10
ATOM     10  N   UNL     1       4.056   2.951   2.344  0.00  0.00    -0.264 N 
ATOM     11  C   UNL     1       3.424   2.821   3.529  0.00  0.00    +0.224 C 
ATOM     12  O   UNL     1       2.234   2.587   3.559  0.00  0.00    -0.275 OA
BRANCH  10  13
ATOM     13  C   UNL     1       5.467   3.342   2.306  0.00  0.00    +0.118 C 
BRANCH  13  14
ATOM     14  C   UNL     1       5.576   4.867   2.372  0.00  0.00    +0.050 C 
BRANCH  14  15
ATOM     15  C   UNL     1       7.028   5.269   2.332  0.00  0.00    -0.072 C 
ATOM     16  C   UNL     1       7.541   5.580   1.185  0.00  0.00    -0.028 C 
ATOM     17  C   UNL     1       8.971   5.989   0.987  0.00  0.00    +0.027 C 
ATOM     18  C   UNL     1       9.594   6.394   2.324  0.00  0.00    +0.004 C 
ATOM     19  C   UNL     1       9.294   5.294   3.351  0.00  0.00    +0.005 C 
ATOM     20  C   UNL     1       7.788   5.290   3.626  0.00  0.00    +0.030 C 
ENDBRANCH  14  15
ENDBRANCH  13  14
ENDBRANCH  10  13
BRANCH  11  21
ATOM     21  C   UNL     1       4.196   2.967   4.815  0.00  0.00    +0.131 C 
BRANCH  21  22
ATOM     22  C   UNL     1       3.264   2.779   5.984  0.00  0.00    -0.039 A 
ATOM     23  C   UNL     1       2.611   3.868   6.530  0.00  0.00    +0.005 A 
ATOM     24  C   UNL     1       1.752   3.695   7.599  0.00  0.00    +0.020 A 
ATOM     25  C   UNL     1       1.555   2.432   8.130  0.00  0.00    +0.041 A 
ATOM     26  C   UNL     1       2.214   1.344   7.588  0.00  0.00    +0.020 A 
ATOM     27  C   UNL     1       3.068   1.517   6.515  0.00  0.00    +0.005 A 
ATOM     28 CL   UNL     1       0.482   2.215   9.477  0.00  0.00    -0.084 Cl
ENDBRANCH  21  22
ENDBRANCH  11  21
ENDBRANCH   3  10
BRANCH   2  29
ATOM     29  N   UNL     1       4.722   0.801   0.691  0.00  0.00    -0.343 N 
ATOM     30  H   UNL     1       5.015   0.109   0.078  0.00  0.00    +0.144 HD
ATOM     31  H   UNL     1       5.152   0.899   1.554  0.00  0.00    +0.144 HD
ENDBRANCH   2  29
BRANCH   1  32
ATOM     32  C   UNL     1       3.354   0.314  -1.704  0.00  0.00    +0.163 C 
BRANCH  32  36
ATOM     33  C   UNL     1       6.298   1.569  -4.533  0.00  0.00    +0.000 A 
ATOM     34  C   UNL     1       6.689   1.049  -3.313  0.00  0.00    +0.000 A 
ATOM     35  C   UNL     1       5.736   0.643  -2.397  0.00  0.00    +0.005 A 
ATOM     36  C   UNL     1       4.393   0.757  -2.702  0.00  0.00    -0.028 A 
ATOM     37  C   UNL     1       4.002   1.271  -3.924  0.00  0.00    +0.005 A 
ATOM     38  C   UNL     1       4.954   1.682  -4.837  0.00  0.00    +0.000 A 
ENDBRANCH  32  36
ENDBRANCH   1  32
TORSDOF 9
