REMARK  Name = ZINC09263058
REMARK  10 active torsions:
REMARK  status: ('A' for Active; 'I' for Inactive)
REMARK    1  A    between atoms: C_1  and  O_2
REMARK    2  A    between atoms: O_2  and  C_3
REMARK    3  A    between atoms: C_3  and  C_5
REMARK    4  A    between atoms: C_10  and  C_11
REMARK    5  A    between atoms: C_14  and  C_16
REMARK    6  A    between atoms: C_17  and  C_18
REMARK    7  A    between atoms: C_17  and  C_20
REMARK    8  A    between atoms: N_22  and  C_23
REMARK    9  A    between atoms: C_23  and  C_24
REMARK   10  A    between atoms: C_24  and  C_25
REMARK                            x       y       z     vdW  Elec       q    Type
REMARK                         _______ _______ _______ _____ _____    ______ ____
ROOT
ATOM      1  C   UNL     1       2.305  -5.324  -1.256  0.00  0.00    +0.070 C 
ATOM      2  C   UNL     1       3.176  -5.114  -2.314  0.00  0.00    +0.117 C 
ENDROOT
BRANCH   1   6
ATOM      3  C   UNL     1       1.247  -2.158  -0.022  0.00  0.00    +0.136 A 
ATOM      4  C   UNL     1       0.554  -2.981   0.842  0.00  0.00    +0.050 A 
ATOM      5  C   UNL     1       0.857  -4.295   0.485  0.00  0.00    +0.050 A 
ATOM      6  C   UNL     1       1.737  -4.227  -0.584  0.00  0.00    +0.130 A 
ATOM      7  O   UNL     1       1.955  -2.925  -0.869  0.00  0.00    -0.455 OA
BRANCH   3  13
ATOM      8  C   UNL     1       2.426   0.047  -0.021  0.00  0.00    +0.070 A 
ATOM      9  C   UNL     1       2.383   1.441  -0.013  0.00  0.00    +0.016 A 
ATOM     10  C   UNL     1       1.168   2.094   0.002  0.00  0.00    +0.001 A 
ATOM     11  C   UNL     1      -0.017   1.375   0.010  0.00  0.00    +0.001 A 
ATOM     12  C   UNL     1       0.002  -0.004   0.002  0.00  0.00    +0.012 A 
ATOM     13  C   UNL     1       1.220  -0.685  -0.013  0.00  0.00    +0.031 A 
BRANCH   8  14
ATOM     14  C   UNL     1       3.722  -0.657  -0.036  0.00  0.00    +0.340 C 
ATOM     15  O   UNL     1       3.753  -1.871  -0.043  0.00  0.00    -0.245 OA
BRANCH  14  17
ATOM     16  C   UNL     1       6.109  -0.711  -0.059  0.00  0.00    +0.280 C 
ATOM     17  O   UNL     1       4.871   0.047  -0.044  0.00  0.00    -0.464 OA
ENDBRANCH  14  17
ENDBRANCH   8  14
ENDBRANCH   3  13
ENDBRANCH   1   6
BRANCH   2  18
ATOM     18  C   UNL     1       3.769  -6.260  -3.016  0.00  0.00    +0.254 C 
ATOM     19  O   UNL     1       3.496  -7.394  -2.668  0.00  0.00    -0.269 OA
ATOM     20  N   UNL     1       4.615  -6.056  -4.045  0.00  0.00    -0.310 N 
ATOM     21  H   UNL     1       4.832  -5.152  -4.322  0.00  0.00    +0.149 HD
BRANCH  20  22
ATOM     22  C   UNL     1       5.207  -7.199  -4.744  0.00  0.00    +0.109 C 
BRANCH  22  23
ATOM     23  C   UNL     1       6.122  -6.695  -5.862  0.00  0.00    +0.056 C 
BRANCH  23  24
ATOM     24  C   UNL     1       6.731  -7.871  -6.582  0.00  0.00    -0.021 A 
ATOM     25  C   UNL     1       7.931  -8.421  -6.340  0.00  0.00    +0.087 A 
ATOM     26  N   UNL     1       8.142  -9.472  -7.190  0.00  0.00    -0.360 N 
ATOM     27  H   UNL     1       8.938 -10.026  -7.204  0.00  0.00    +0.165 HD
ATOM     28  C   UNL     1       7.059  -9.623  -8.026  0.00  0.00    +0.047 A 
ATOM     29  C   UNL     1       6.127  -8.627  -7.682  0.00  0.00    +0.003 A 
ATOM     30  C   UNL     1       4.917  -8.537  -8.371  0.00  0.00    +0.010 A 
ATOM     31  C   UNL     1       4.643  -9.418  -9.379  0.00  0.00    +0.001 A 
ATOM     32  C   UNL     1       5.559 -10.403  -9.723  0.00  0.00    +0.002 A 
ATOM     33  C   UNL     1       6.760 -10.510  -9.055  0.00  0.00    +0.026 A 
ENDBRANCH  23  24
ENDBRANCH  22  23
ENDBRANCH  20  22
ENDBRANCH   2  18
BRANCH   2  34
ATOM     34  C   UNL     1       3.497  -3.780  -2.724  0.00  0.00    +0.104 C 
ATOM     35  N   UNL     1       3.751  -2.721  -3.049  0.00  0.00    -0.191 NA
ENDBRANCH   2  34
TORSDOF 9
