REMARK  Name = ZINC06224152
REMARK  4 active torsions:
REMARK  status: ('A' for Active; 'I' for Inactive)
REMARK    1  A    between atoms: C_5  and  O_18
REMARK    2  A    between atoms: C_6  and  C_7
REMARK    3  A    between atoms: N_8  and  N_9
REMARK    4  A    between atoms: C_10  and  C_11
REMARK                            x       y       z     vdW  Elec       q    Type
REMARK                         _______ _______ _______ _____ _____    ______ ____
ROOT
ATOM      1  N   UNL     1      -2.176  -3.454   1.048  0.00  0.00    -0.263 N 
ATOM      2  C   UNL     1      -2.324  -4.529   0.305  0.00  0.00    +0.143 C 
ATOM      3  N   UNL     1      -1.222  -5.280  -0.048  0.00  0.00    -0.342 N 
ATOM      4  H   UNL     1      -0.329  -4.952   0.143  0.00  0.00    +0.144 HD
ATOM      5  H   UNL     1      -1.339  -6.137  -0.487  0.00  0.00    +0.144 HD
ATOM      6  H   UNL     1      -2.951  -2.926   1.296  0.00  0.00    +0.190 HD
ENDROOT
BRANCH   2   7
ATOM      7  C   UNL     1      -3.669  -4.931  -0.153  0.00  0.00    +0.187 A 
ATOM      8  C   UNL     1      -3.964  -5.810  -1.292  0.00  0.00    +0.191 A 
ATOM      9  N   UNL     1      -5.258  -5.936  -1.388  0.00  0.00    -0.033 NA
ATOM     10  O   UNL     1      -5.850  -5.171  -0.353  0.00  0.00    -0.240 OA
ATOM     11  N   UNL     1      -4.805  -4.570   0.390  0.00  0.00    -0.044 NA
ATOM     12  N   UNL     1      -3.025  -6.405  -2.124  0.00  0.00    -0.339 N 
ATOM     13  H   UNL     1      -2.089  -6.164  -2.050  0.00  0.00    +0.144 HD
ATOM     14  H   UNL     1      -3.306  -7.062  -2.780  0.00  0.00    +0.144 HD
ENDBRANCH   2   7
BRANCH   1  16
ATOM     15  C   UNL     1      -0.855  -2.035   2.188  0.00  0.00    +0.144 C 
ATOM     16  N   UNL     1      -1.001  -3.103   1.448  0.00  0.00    -0.180 NA
BRANCH  15  22
ATOM     17  C   UNL     1       0.645  -0.493   3.435  0.00  0.00    +0.028 A 
ATOM     18  C   UNL     1       1.905  -0.123   3.859  0.00  0.00    +0.020 A 
ATOM     19  C   UNL     1       3.011  -0.878   3.505  0.00  0.00    +0.034 A 
ATOM     20  C   UNL     1       2.865  -2.010   2.723  0.00  0.00    +0.061 A 
ATOM     21  C   UNL     1       1.608  -2.397   2.288  0.00  0.00    +0.139 A 
ATOM     22  C   UNL     1       0.484  -1.635   2.644  0.00  0.00    +0.038 A 
ATOM     23 BR   UNL     1       4.384  -3.031   2.247  0.00  0.00    -0.046 Br
ATOM     24 BR   UNL     1       2.122   1.421   4.929  0.00  0.00    -0.050 Br
BRANCH  21  25
ATOM     25  O   UNL     1       1.464  -3.507   1.520  0.00  0.00    -0.505 OA
ATOM     26  H   UNL     1       1.321  -4.319   2.025  0.00  0.00    +0.292 HD
ENDBRANCH  21  25
ENDBRANCH  15  22
ENDBRANCH   1  16
TORSDOF 4
