REMARK  Name = ZINC43554268
REMARK  12 active torsions:
REMARK  status: ('A' for Active; 'I' for Inactive)
REMARK    1  A    between atoms: C_1  and  C_2
REMARK    2  A    between atoms: C_5  and  O_38
REMARK    3  A    between atoms: C_7  and  C_35
REMARK    4  A    between atoms: C_7  and  C_36
REMARK    5  A    between atoms: N_16  and  C_17
REMARK    6  A    between atoms: C_17  and  O_19
REMARK    7  A    between atoms: O_19  and  C_20
REMARK    8  A    between atoms: C_20  and  C_21
REMARK    9  A    between atoms: C_23  and  C_25
REMARK   10  A    between atoms: C_25  and  C_26
REMARK   11  A    between atoms: N_28  and  C_29
REMARK   12  A    between atoms: C_36  and  O_37
REMARK                            x       y       z     vdW  Elec       q    Type
REMARK                         _______ _______ _______ _____ _____    ______ ____
ROOT
ATOM      1  C   UNL     1       0.377   1.296   0.046  0.00  0.00    +0.012 C 
ATOM      2  C   UNL     1      -0.058  -0.175  -0.044  0.00  0.00    -0.020 C 
ATOM      3  C   UNL     1      -1.581  -0.235  -0.045  0.00  0.00    +0.010 C 
ATOM      4  C   UNL     1      -2.109   0.415   1.234  0.00  0.00    +0.032 C 
ATOM      5  C   UNL     1      -1.575  -0.268   2.479  0.00  0.00    +0.123 C 
ATOM      6  C   UNL     1      -0.076  -0.515   2.481  0.00  0.00    +0.021 C 
ATOM      7  C   UNL     1       0.471  -0.985   1.134  0.00  0.00    +0.011 C 
ATOM      8  C   UNL     1       0.076  -2.466   0.981  0.00  0.00    +0.049 C 
ATOM      9  C   UNL     1       0.101  -2.907  -0.442  0.00  0.00    +0.013 A 
ATOM     10  C   UNL     1       0.280  -2.153  -1.534  0.00  0.00    +0.032 A 
ATOM     11  N   UNL     1       0.240  -2.826  -2.726  0.00  0.00    -0.339 N 
ATOM     12  C   UNL     1       0.031  -4.171  -2.731  0.00  0.00    +0.167 A 
ATOM     13  S   UNL     1      -0.101  -4.543  -1.095  0.00  0.00    -0.057 S 
ATOM     14  N   UNL     1      -0.048  -4.991  -3.777  0.00  0.00    -0.119 NA
ATOM     15  C   UNL     1       0.535  -0.669  -1.367  0.00  0.00    +0.051 C 
ATOM     16  C   UNL     1       0.666   0.722   3.003  0.00  0.00    +0.016 C 
ATOM     17  H   UNL     1       0.367  -2.363  -3.568  0.00  0.00    +0.167 HD
ENDROOT
BRANCH  14  18
ATOM     18  C   UNL     1      -0.260  -6.294  -3.588  0.00  0.00    +0.427 C 
ATOM     19  O   UNL     1      -0.380  -6.734  -2.458  0.00  0.00    -0.224 OA
BRANCH  18  20
ATOM     20  O   UNL     1      -0.341  -7.126  -4.649  0.00  0.00    -0.445 OA
BRANCH  20  21
ATOM     21  C   UNL     1      -0.569  -8.509  -4.372  0.00  0.00    +0.261 C 
BRANCH  21  22
ATOM     22  C   UNL     1      -0.629  -9.277  -5.668  0.00  0.00    +0.006 C 
ATOM     23  C   UNL     1       0.013 -10.413  -5.786  0.00  0.00    +0.007 C 
ENDBRANCH  21  22
ENDBRANCH  20  21
ENDBRANCH  18  20
ENDBRANCH  14  18
BRANCH   5  24
ATOM     24  O   UNL     1      -2.277  -1.498   2.695  0.00  0.00    -0.391 OA
ATOM     25  H   UNL     1      -3.230  -1.390   2.818  0.00  0.00    +0.210 HD
ENDBRANCH   5  24
BRANCH  15  26
ATOM     26  C   UNL     1      -0.042   0.120  -2.538  0.00  0.00    +0.106 C 
BRANCH  26  27
ATOM     27  C   UNL     1       0.711  -0.225  -3.797  0.00  0.00    +0.218 C 
ATOM     28  O   UNL     1       1.711  -0.909  -3.736  0.00  0.00    -0.275 OA
ATOM     29  N   UNL     1       0.274   0.227  -4.989  0.00  0.00    -0.285 N 
ATOM     30  H   UNL     1      -0.486   0.827  -5.031  0.00  0.00    +0.155 HD
BRANCH  29  31
ATOM     31  C   UNL     1       0.918  -0.171  -6.166  0.00  0.00    +0.033 A 
ATOM     32  C   UNL     1       0.183  -0.377  -7.326  0.00  0.00    +0.023 A 
ATOM     33  C   UNL     1       0.821  -0.769  -8.486  0.00  0.00    +0.002 A 
ATOM     34  C   UNL     1       2.191  -0.957  -8.494  0.00  0.00    +0.000 A 
ATOM     35  C   UNL     1       2.926  -0.753  -7.340  0.00  0.00    +0.002 A 
ATOM     36  C   UNL     1       2.295  -0.355  -6.178  0.00  0.00    +0.023 A 
ENDBRANCH  29  31
ENDBRANCH  26  27
ENDBRANCH  15  26
BRANCH   6  37
ATOM     37  C   UNL     1       0.198  -1.626   3.530  0.00  0.00    +0.165 C 
BRANCH  37  38
ATOM     38  O   UNL     1      -0.243  -1.187   4.816  0.00  0.00    -0.394 OA
ATOM     39  H   UNL     1      -0.103  -1.833   5.521  0.00  0.00    +0.209 HD
ENDBRANCH  37  38
ENDBRANCH   6  37
TORSDOF 10
