REMARK  Name = ZINC41585443
REMARK  11 active torsions:
REMARK  status: ('A' for Active; 'I' for Inactive)
REMARK    1  A    between atoms: C_1  and  O_2
REMARK    2  A    between atoms: O_2  and  C_3
REMARK    3  A    between atoms: C_5  and  C_13
REMARK    4  A    between atoms: C_6  and  O_11
REMARK    5  A    between atoms: C_8  and  O_9
REMARK    6  A    between atoms: O_9  and  C_10
REMARK    7  A    between atoms: O_11  and  C_12
REMARK    8  A    between atoms: C_20  and  O_38
REMARK    9  A    between atoms: C_21  and  C_24
REMARK   10  A    between atoms: C_24  and  N_25
REMARK   11  A    between atoms: N_28  and  C_31
REMARK                            x       y       z     vdW  Elec       q    Type
REMARK                         _______ _______ _______ _____ _____    ______ ____
ROOT
ATOM      1  C   UNL     1      -4.849   0.222   0.038  0.00  0.00    +0.062 C 
ATOM      2  C   UNL     1      -4.802   1.576   0.142  0.00  0.00    +0.176 C 
ATOM      3  C   UNL     1      -5.955   2.476   0.275  0.00  0.00    +0.231 C 
ATOM      4  O   UNL     1      -7.136   2.174   0.314  0.00  0.00    -0.283 OA
ATOM      5  C   UNL     1      -5.365   3.825   0.351  0.00  0.00    +0.068 A 
ATOM      6  C   UNL     1      -5.915   5.101   0.481  0.00  0.00    +0.019 A 
ATOM      7  C   UNL     1      -5.096   6.193   0.524  0.00  0.00    +0.046 A 
ATOM      8  C   UNL     1      -3.715   6.037   0.438  0.00  0.00    +0.125 A 
ATOM      9  C   UNL     1      -3.155   4.776   0.308  0.00  0.00    +0.051 A 
ATOM     10  C   UNL     1      -3.974   3.654   0.263  0.00  0.00    +0.147 A 
ATOM     11  O   UNL     1      -3.684   2.340   0.149  0.00  0.00    -0.451 OA
ENDROOT
BRANCH   1  14
ATOM     12  C   UNL     1      -1.330  -0.600  -0.956  0.00  0.00    +0.162 A 
ATOM     13  C   UNL     1      -2.482   0.118  -0.712  0.00  0.00    +0.061 A 
ATOM     14  C   UNL     1      -3.622  -0.535  -0.225  0.00  0.00    +0.024 A 
ATOM     15  C   UNL     1      -3.583  -1.921   0.011  0.00  0.00    +0.131 A 
ATOM     16  C   UNL     1      -2.422  -2.629  -0.238  0.00  0.00    +0.095 A 
ATOM     17  C   UNL     1      -1.299  -1.976  -0.725  0.00  0.00    +0.165 A 
BRANCH  12  19
ATOM     18  C   UNL     1      -0.324   1.443  -1.643  0.00  0.00    +0.277 C 
ATOM     19  O   UNL     1      -0.223   0.034  -1.429  0.00  0.00    -0.491 OA
ENDBRANCH  12  19
BRANCH  17  20
ATOM     20  O   UNL     1      -0.163  -2.677  -0.973  0.00  0.00    -0.491 OA
ATOM     21  C   UNL     1      -0.199  -4.082  -0.715  0.00  0.00    +0.277 C 
ENDBRANCH  17  20
BRANCH  15  22
ATOM     22  O   UNL     1      -4.683  -2.562   0.483  0.00  0.00    -0.494 OA
ATOM     23  C   UNL     1      -4.570  -3.970   0.699  0.00  0.00    +0.277 C 
ENDBRANCH  15  22
ENDBRANCH   1  14
BRANCH   8  24
ATOM     24  O   UNL     1      -2.910   7.129   0.481  0.00  0.00    -0.506 OA
ATOM     25  H   UNL     1      -2.630   7.375   1.373  0.00  0.00    +0.292 HD
ENDBRANCH   8  24
BRANCH   9  26
ATOM     26  C   UNL     1      -1.659   4.622   0.215  0.00  0.00    +0.127 C 
BRANCH  26  27
ATOM     27  N   UNL     1      -1.099   4.462   1.564  0.00  0.00    -0.295 NA
ATOM     28  C   UNL     1      -1.282   5.684   2.358  0.00  0.00    +0.103 C 
ATOM     29  C   UNL     1      -0.852   5.419   3.804  0.00  0.00    +0.120 C 
ATOM     30  N   UNL     1       0.518   4.884   3.793  0.00  0.00    -0.325 N 
ATOM     31  C   UNL     1       0.813   3.742   2.914  0.00  0.00    +0.120 C 
ATOM     32  C   UNL     1       0.317   4.074   1.503  0.00  0.00    +0.103 C 
BRANCH  30  33
ATOM     33  C   UNL     1       1.515   5.447   4.597  0.00  0.00    +0.065 A 
ATOM     34  C   UNL     1       1.726   4.966   5.882  0.00  0.00    +0.026 A 
ATOM     35  C   UNL     1       2.712   5.523   6.674  0.00  0.00    +0.002 A 
ATOM     36  C   UNL     1       3.487   6.560   6.189  0.00  0.00    +0.003 A 
ATOM     37  C   UNL     1       3.281   7.043   4.910  0.00  0.00    +0.040 A 
ATOM     38  C   UNL     1       2.300   6.486   4.109  0.00  0.00    +0.144 A 
ATOM     39  F   UNL     1       2.102   6.954   2.858  0.00  0.00    -0.204 F 
ENDBRANCH  30  33
ENDBRANCH  26  27
ENDBRANCH   9  26
TORSDOF 8
