REMARK  Name = ZINC10217120
REMARK  8 active torsions:
REMARK  status: ('A' for Active; 'I' for Inactive)
REMARK    1  A    between atoms: C_1  and  C_2
REMARK    2  A    between atoms: C_2  and  C_3
REMARK    3  A    between atoms: C_2  and  C_4
REMARK    4  A    between atoms: C_2  and  N_5
REMARK    5  A    between atoms: N_5  and  S_6
REMARK    6  A    between atoms: S_6  and  C_9
REMARK    7  A    between atoms: N_17  and  S_20
REMARK    8  A    between atoms: S_20  and  C_23
REMARK                            x       y       z     vdW  Elec       q    Type
REMARK                         _______ _______ _______ _____ _____    ______ ____
ROOT
ATOM      1  C   UNL     1       5.993   2.717   1.242  0.00  0.00    +0.121 A 
ATOM      2  C   UNL     1       4.819   3.106   0.610  0.00  0.00    +0.033 A 
ATOM      3  C   UNL     1       3.783   2.195   0.525  0.00  0.00    +0.043 A 
ATOM      4  C   UNL     1       3.945   0.931   1.082  0.00  0.00    +0.099 A 
ATOM      5  C   UNL     1       6.088   1.444   1.768  0.00  0.00    +0.112 A 
ATOM      6  N   UNL     1       2.909   0.007   1.009  0.00  0.00    -0.314 N 
ATOM      7  C   UNL     1       2.489  -0.204  -0.383  0.00  0.00    +0.123 C 
ATOM      8  C   UNL     1       1.234  -1.083  -0.406  0.00  0.00    +0.128 C 
ATOM      9  N   UNL     1       1.511  -2.312   0.353  0.00  0.00    -0.174 NA
ATOM     10  C   UNL     1       2.065  -2.183   1.709  0.00  0.00    +0.128 C 
ATOM     11  C   UNL     1       3.287  -1.260   1.650  0.00  0.00    +0.123 C 
ATOM     12  N   UNL     1       5.088   0.525   1.708  0.00  0.00    -0.348 N 
ATOM     13  H   UNL     1       5.186  -0.415   2.108  0.00  0.00    +0.167 HD
ENDROOT
BRANCH   1  14
ATOM     14  S   UNL     1       7.347   3.837   1.372  0.00  0.00    +0.060 S 
ATOM     15  O   UNL     1       6.790   5.124   1.598  0.00  0.00    -0.153 OA
ATOM     16  O   UNL     1       8.281   3.244   2.264  0.00  0.00    -0.153 OA
BRANCH  14  17
ATOM     17  N   UNL     1       8.081   3.893  -0.112  0.00  0.00    -0.185 NA
ATOM     18  H   UNL     1       8.053   4.708  -0.636  0.00  0.00    +0.149 HD
BRANCH  17  20
ATOM     19  C   UNL     1       7.793   1.536  -0.698  0.00  0.00    +0.029 C 
ATOM     20  C   UNL     1       8.772   2.710  -0.632  0.00  0.00    +0.032 C 
ATOM     21  C   UNL     1       9.306   3.008  -2.035  0.00  0.00    +0.029 C 
ATOM     22  C   UNL     1       9.937   2.352   0.292  0.00  0.00    +0.029 C 
ENDBRANCH  17  20
ENDBRANCH  14  17
ENDBRANCH   1  14
BRANCH   9  23
ATOM     23  S   UNL     1       1.206  -3.803  -0.301  0.00  0.00    +0.061 S 
ATOM     24  O   UNL     1       1.031  -4.697   0.789  0.00  0.00    -0.153 OA
ATOM     25  O   UNL     1       0.211  -3.612  -1.298  0.00  0.00    -0.153 OA
BRANCH  23  26
ATOM     26  C   UNL     1       2.669  -4.312  -1.141  0.00  0.00    +0.106 A 
ATOM     27  C   UNL     1       2.837  -3.987  -2.486  0.00  0.00    +0.029 A 
ATOM     28  C   UNL     1       3.957  -4.361  -3.162  0.00  0.00    +0.010 A 
ATOM     29  C   UNL     1       4.956  -5.095  -2.501  0.00  0.00    -0.018 A 
ATOM     30  C   UNL     1       6.124  -5.504  -3.168  0.00  0.00    +0.008 A 
ATOM     31  C   UNL     1       7.070  -6.214  -2.495  0.00  0.00    +0.001 A 
ATOM     32  C   UNL     1       6.900  -6.543  -1.151  0.00  0.00    +0.001 A 
ATOM     33  C   UNL     1       5.782  -6.165  -0.473  0.00  0.00    +0.008 A 
ATOM     34  C   UNL     1       4.783  -5.430  -1.135  0.00  0.00    -0.016 A 
ATOM     35  C   UNL     1       3.615  -5.022  -0.468  0.00  0.00    +0.037 A 
ENDBRANCH  23  26
ENDBRANCH   9  23
TORSDOF 5
