REMARK  Name = ZINC63619728
REMARK  7 active torsions:
REMARK  status: ('A' for Active; 'I' for Inactive)
REMARK    1  A    between atoms: C_1  and  O_2
REMARK    2  A    between atoms: O_2  and  C_3
REMARK    3  A    between atoms: C_6  and  C_9
REMARK    4  A    between atoms: C_13  and  S_23
REMARK    5  A    between atoms: N_15  and  C_16
REMARK    6  A    between atoms: S_23  and  C_24
REMARK    7  A    between atoms: C_24  and  C_25
REMARK                            x       y       z     vdW  Elec       q    Type
REMARK                         _______ _______ _______ _____ _____    ______ ____
ROOT
ATOM      1  C   UNL     1      -4.816  -2.567   0.180  0.00  0.00    +0.188 C 
ATOM      2  N   UNL     1      -5.847  -1.849   0.965  0.00  0.00    -0.230 NA
ATOM      3  N   UNL     1      -6.784  -2.903   1.386  0.00  0.00    -0.226 NA
ATOM      4  C   UNL     1      -5.887  -4.052   1.675  0.00  0.00    +0.217 C 
ATOM      5  N   UNL     1      -4.842  -3.969   0.633  0.00  0.00    -0.284 N 
ATOM      6  H   UNL     1      -5.438  -1.388   1.763  0.00  0.00    +0.143 HD
ATOM      7  H   UNL     1      -7.293  -2.625   2.212  0.00  0.00    +0.143 HD
ENDROOT
BRANCH   5   8
ATOM      8  C   UNL     1      -4.037  -5.013   0.168  0.00  0.00    +0.033 A 
ATOM      9  C   UNL     1      -3.179  -4.805  -0.904  0.00  0.00    +0.024 A 
ATOM     10  C   UNL     1      -2.385  -5.839  -1.361  0.00  0.00    +0.022 A 
ATOM     11  C   UNL     1      -2.444  -7.080  -0.751  0.00  0.00    +0.041 A 
ATOM     12  C   UNL     1      -3.298  -7.289   0.317  0.00  0.00    +0.022 A 
ATOM     13  C   UNL     1      -4.090  -6.258   0.782  0.00  0.00    +0.024 A 
ATOM     14 CL   UNL     1      -1.444  -8.377  -1.329  0.00  0.00    -0.084 Cl
ENDBRANCH   5   8
BRANCH   1  18
ATOM     15  C   UNL     1      -0.967  -0.862   0.917  0.00  0.00    +0.120 A 
ATOM     16  C   UNL     1      -1.668  -1.467   1.950  0.00  0.00    +0.046 A 
ATOM     17  C   UNL     1      -2.912  -2.017   1.709  0.00  0.00    +0.010 A 
ATOM     18  C   UNL     1      -3.459  -1.965   0.440  0.00  0.00    -0.011 A 
ATOM     19  C   UNL     1      -2.762  -1.363  -0.591  0.00  0.00    +0.010 A 
ATOM     20  C   UNL     1      -1.520  -0.806  -0.354  0.00  0.00    +0.046 A 
BRANCH  15  22
ATOM     21  C   UNL     1       0.764  -0.414   2.483  0.00  0.00    +0.277 C 
ATOM     22  O   UNL     1       0.257  -0.320   1.151  0.00  0.00    -0.495 OA
ENDBRANCH  15  22
ENDBRANCH   1  18
BRANCH   4  23
ATOM     23  S   UNL     1      -6.796  -5.616   1.542  0.00  0.00    -0.118 S 
BRANCH  23  24
ATOM     24  C   UNL     1      -7.421  -5.617  -0.161  0.00  0.00    +0.119 C 
BRANCH  24  25
ATOM     25  C   UNL     1      -8.218  -6.899  -0.411  0.00  0.00    +0.184 C 
ATOM     26  N   UNL     1      -9.308  -7.013   0.566  0.00  0.00    -0.363 N 
ATOM     27  C   UNL     1      -9.113  -8.107   1.244  0.00  0.00    +0.060 A 
ATOM     28  C   UNL     1      -9.852  -8.749   2.339  0.00  0.00    +0.027 A 
ATOM     29  C   UNL     1      -9.399  -9.908   2.858  0.00  0.00    +0.002 A 
ATOM     30  C   UNL     1      -8.233 -10.542   2.394  0.00  0.00    +0.002 A 
ATOM     31  C   UNL     1      -7.481 -10.038   1.395  0.00  0.00    +0.027 A 
ATOM     32  C   UNL     1      -7.878  -8.778   0.752  0.00  0.00    +0.060 A 
ATOM     33  N   UNL     1      -7.359  -8.073  -0.211  0.00  0.00    -0.363 N 
ATOM     34  H   UNL     1     -10.040  -6.388   0.684  0.00  0.00    +0.162 HD
ATOM     35  H   UNL     1      -6.552  -8.286  -0.707  0.00  0.00    +0.162 HD
ENDBRANCH  24  25
ENDBRANCH  23  24
ENDBRANCH   4  23
TORSDOF 6
