REMARK  Name = ZINC01936592
REMARK  6 active torsions:
REMARK  status: ('A' for Active; 'I' for Inactive)
REMARK    1  A    between atoms: C_1  and  C_2
REMARK    2  A    between atoms: C_5  and  C_8
REMARK    3  A    between atoms: C_8  and  O_9
REMARK    4  A    between atoms: O_9  and  C_10
REMARK    5  A    between atoms: C_13  and  C_16
REMARK    6  A    between atoms: C_21  and  O_22
REMARK                            x       y       z     vdW  Elec       q    Type
REMARK                         _______ _______ _______ _____ _____    ______ ____
ROOT
ATOM      1  C   UNL     1       2.379   1.420  -0.015  0.00  0.00    +0.121 A 
ATOM      2  C   UNL     1       1.167   2.096   0.000  0.00  0.00    +0.046 A 
ATOM      3  C   UNL     1      -0.018   1.391   0.009  0.00  0.00    +0.012 A 
ATOM      4  C   UNL     1       0.001  -0.003   0.001  0.00  0.00    -0.016 A 
ATOM      5  C   UNL     1       1.220  -0.679  -0.016  0.00  0.00    +0.012 A 
ATOM      6  C   UNL     1       2.402   0.032  -0.024  0.00  0.00    +0.046 A 
ENDROOT
BRANCH   4   7
ATOM      7  C   UNL     1      -1.271  -0.764   0.010  0.00  0.00    +0.003 A 
ATOM      8  C   UNL     1      -2.236  -0.484   0.919  0.00  0.00    +0.056 A 
ATOM      9  S   UNL     1      -3.530  -1.642   0.516  0.00  0.00    -0.076 S 
ATOM     10  C   UNL     1      -2.748  -2.475  -0.841  0.00  0.00    +0.116 A 
ATOM     11  C   UNL     1      -1.505  -1.832  -0.955  0.00  0.00    +0.077 A 
ATOM     12  C   UNL     1      -0.650  -2.315  -1.996  0.00  0.00    +0.224 A 
ATOM     13  N   UNL     1      -1.078  -3.324  -2.776  0.00  0.00    -0.201 NA
ATOM     14  C   UNL     1      -2.300  -3.888  -2.593  0.00  0.00    +0.226 A 
ATOM     15  N   UNL     1      -3.103  -3.468  -1.652  0.00  0.00    -0.228 NA
BRANCH  12  16
ATOM     16  O   UNL     1       0.450  -1.820  -2.173  0.00  0.00    -0.492 OA
ATOM     17  H   UNL     1       0.598  -1.089  -1.507  0.00  0.00    +0.294 HD
ENDBRANCH  12  16
ENDBRANCH   4   7
BRANCH   1  18
ATOM     18  O   UNL     1       3.545   2.117  -0.023  0.00  0.00    -0.487 OA
BRANCH  18  19
ATOM     19  C   UNL     1       3.448   3.543  -0.013  0.00  0.00    +0.264 C 
BRANCH  19  24
ATOM     20  C   UNL     1       8.753   5.835  -0.053  0.00  0.00    +0.044 C 
ATOM     21  C   UNL     1       7.369   5.237  -0.043  0.00  0.00    -0.050 A 
ATOM     22  C   UNL     1       6.723   4.970  -1.235  0.00  0.00    +0.004 A 
ATOM     23  C   UNL     1       5.454   4.422  -1.226  0.00  0.00    +0.007 A 
ATOM     24  C   UNL     1       4.832   4.141  -0.024  0.00  0.00    -0.010 A 
ATOM     25  C   UNL     1       5.476   4.413   1.168  0.00  0.00    +0.007 A 
ATOM     26  C   UNL     1       6.747   4.957   1.159  0.00  0.00    +0.004 A 
ENDBRANCH  19  24
ENDBRANCH  18  19
ENDBRANCH   1  18
TORSDOF 5
