REMARK  Name = ZINC66345388
REMARK  5 active torsions:
REMARK  status: ('A' for Active; 'I' for Inactive)
REMARK    1  A    between atoms: C_6  and  N_7
REMARK    2  A    between atoms: C_10  and  C_13
REMARK    3  A    between atoms: C_13  and  N_14
REMARK    4  A    between atoms: N_17  and  C_18
REMARK    5  A    between atoms: C_18  and  C_19
REMARK                            x       y       z     vdW  Elec       q    Type
REMARK                         _______ _______ _______ _____ _____    ______ ____
ROOT
ATOM      1  N   UNL     1      -4.549  -4.005  -0.911  0.00  0.00    -0.299 N 
ATOM      2  C   UNL     1      -5.034  -5.025  -1.646  0.00  0.00    +0.300 C 
ATOM      3  O   UNL     1      -4.280  -5.705  -2.315  0.00  0.00    -0.253 OA
ATOM      4  N   UNL     1      -6.355  -5.292  -1.639  0.00  0.00    -0.295 N 
ATOM      5  H   UNL     1      -5.150  -3.462  -0.377  0.00  0.00    +0.150 HD
ATOM      6  H   UNL     1      -6.957  -4.749  -1.105  0.00  0.00    +0.151 HD
ENDROOT
BRANCH   1   7
ATOM      7  C   UNL     1      -3.112  -3.715  -0.918  0.00  0.00    +0.110 C 
BRANCH   7  11
ATOM      8  N   UNL     1      -1.198  -0.721   0.010  0.00  0.00    -0.330 N 
ATOM      9  C   UNL     1      -2.550  -0.132   0.020  0.00  0.00    +0.105 C 
ATOM     10  C   UNL     1      -3.463  -1.226  -0.587  0.00  0.00    +0.025 C 
ATOM     11  C   UNL     1      -2.829  -2.518  -0.008  0.00  0.00    +0.025 C 
ATOM     12  C   UNL     1      -1.322  -2.186   0.004  0.00  0.00    +0.110 C 
BRANCH   8  18
ATOM     13  C   UNL     1      -0.017   1.385   0.010  0.00  0.00    +0.026 A 
ATOM     14  C   UNL     1       1.171   2.090   0.002  0.00  0.00    +0.040 A 
ATOM     15  C   UNL     1       2.379   1.414  -0.013  0.00  0.00    +0.124 A 
ATOM     16  C   UNL     1       2.400   0.030  -0.021  0.00  0.00    +0.040 A 
ATOM     17  C   UNL     1       1.215  -0.680  -0.014  0.00  0.00    +0.026 A 
ATOM     18  C   UNL     1       0.002  -0.004   0.002  0.00  0.00    +0.030 A 
ATOM     19  F   UNL     1       3.539   2.107  -0.020  0.00  0.00    -0.205 F 
ENDBRANCH   8  18
ENDBRANCH   7  11
ENDBRANCH   1   7
BRANCH   4  20
ATOM     20  C   UNL     1      -6.883  -6.400  -2.438  0.00  0.00    +0.142 C 
BRANCH  20  21
ATOM     21  C   UNL     1      -8.377  -6.484  -2.256  0.00  0.00    -0.014 A 
ATOM     22  C   UNL     1      -8.917  -7.261  -1.240  0.00  0.00    +0.010 A 
ATOM     23  C   UNL     1     -10.293  -7.311  -1.107  0.00  0.00    +0.042 A 
ATOM     24  C   UNL     1     -11.084  -6.585  -1.992  0.00  0.00    +0.099 A 
ATOM     25  N   UNL     1     -10.531  -5.855  -2.948  0.00  0.00    -0.349 N 
ATOM     26  C   UNL     1      -9.221  -5.785  -3.095  0.00  0.00    +0.089 A 
ATOM     27  N   UNL     1     -12.468  -6.626  -1.871  0.00  0.00    -0.317 N 
ATOM     28  C   UNL     1     -13.218  -7.384  -0.858  0.00  0.00    +0.106 C 
ATOM     29  C   UNL     1     -14.719  -7.150  -1.128  0.00  0.00    +0.020 C 
ATOM     30  C   UNL     1     -14.742  -6.729  -2.622  0.00  0.00    +0.020 C 
ATOM     31  C   UNL     1     -13.428  -5.912  -2.732  0.00  0.00    +0.106 C 
ATOM     32  H   UNL     1     -11.102  -5.358  -3.554  0.00  0.00    +0.167 HD
ENDBRANCH  20  21
ENDBRANCH   4  20
TORSDOF 5
