REMARK  Name = ZINC01012088
REMARK  8 active torsions:
REMARK  status: ('A' for Active; 'I' for Inactive)
REMARK    1  A    between atoms: C_1  and  C_2
REMARK    2  A    between atoms: C_2  and  C_3
REMARK    3  A    between atoms: C_2  and  C_4
REMARK    4  A    between atoms: C_6  and  C_26
REMARK    5  A    between atoms: C_7  and  N_9
REMARK    6  A    between atoms: C_10  and  C_12
REMARK    7  A    between atoms: C_12  and  C_20
REMARK    8  A    between atoms: C_13  and  C_14
REMARK                            x       y       z     vdW  Elec       q    Type
REMARK                         _______ _______ _______ _____ _____    ______ ____
ROOT
ATOM      1  N   UNL     1       2.529   3.941   0.500  0.00  0.00    -0.275 N 
ATOM      2  C   UNL     1       1.289   3.438   0.335  0.00  0.00    +0.249 C 
ATOM      3  O   UNL     1       0.318   4.160   0.462  0.00  0.00    -0.270 OA
ATOM      4  H   UNL     1       3.303   3.365   0.398  0.00  0.00    +0.156 HD
ENDROOT
BRANCH   1   8
ATOM      5  C   UNL     1       2.523   7.889   1.412  0.00  0.00    -0.005 A 
ATOM      6  C   UNL     1       3.765   7.377   1.343  0.00  0.00    +0.026 A 
ATOM      7  C   UNL     1       3.883   5.973   1.030  0.00  0.00    +0.065 A 
ATOM      8  C   UNL     1       2.697   5.279   0.816  0.00  0.00    +0.084 A 
ATOM      9  S   UNL     1       1.482   6.491   1.048  0.00  0.00    -0.077 S 
BRANCH   7  10
ATOM     10  C   UNL     1       5.189   5.313   0.937  0.00  0.00    +0.244 C 
ATOM     11  O   UNL     1       5.253   4.128   0.667  0.00  0.00    -0.270 OA
ATOM     12  N   UNL     1       6.317   6.018   1.150  0.00  0.00    -0.325 N 
ATOM     13  H   UNL     1       6.266   6.963   1.365  0.00  0.00    +0.145 HD
ATOM     14  H   UNL     1       7.181   5.581   1.089  0.00  0.00    +0.145 HD
ENDBRANCH   7  10
BRANCH   5  16
ATOM     15  C   UNL     1       1.326   9.879   0.542  0.00  0.00    +0.013 C 
ATOM     16  C   UNL     1       2.111   9.305   1.723  0.00  0.00    +0.020 C 
ATOM     17  C   UNL     1       1.231   9.317   2.974  0.00  0.00    +0.013 C 
ENDBRANCH   5  16
ENDBRANCH   1   8
BRANCH   2  18
ATOM     18  C   UNL     1       1.110   2.017  -0.001  0.00  0.00    +0.045 C 
ATOM     19  C   UNL     1      -0.141   1.510  -0.168  0.00  0.00    +0.021 C 
BRANCH  19  20
ATOM     20  C   UNL     1      -0.317   0.136  -0.657  0.00  0.00    -0.024 A 
ATOM     21  C   UNL     1       0.563  -0.390  -1.610  0.00  0.00    +0.008 A 
ATOM     22  C   UNL     1       0.393  -1.682  -2.060  0.00  0.00    +0.001 A 
ATOM     23  C   UNL     1      -0.650  -2.455  -1.580  0.00  0.00    +0.000 A 
ATOM     24  C   UNL     1      -1.528  -1.940  -0.642  0.00  0.00    +0.001 A 
ATOM     25  C   UNL     1      -1.370  -0.652  -0.177  0.00  0.00    +0.008 A 
ENDBRANCH  19  20
BRANCH  18  26
ATOM     26  C   UNL     1       2.292   1.139  -0.157  0.00  0.00    -0.013 A 
ATOM     27  C   UNL     1       2.543   0.131   0.775  0.00  0.00    +0.008 A 
ATOM     28  C   UNL     1       3.644  -0.687   0.622  0.00  0.00    +0.001 A 
ATOM     29  C   UNL     1       4.503  -0.503  -0.447  0.00  0.00    +0.000 A 
ATOM     30  C   UNL     1       4.262   0.497  -1.371  0.00  0.00    +0.001 A 
ATOM     31  C   UNL     1       3.162   1.319  -1.232  0.00  0.00    +0.008 A 
ENDBRANCH  18  26
ENDBRANCH   2  18
TORSDOF 6
