REMARK  Name = ZINC34710654
REMARK  12 active torsions:
REMARK  status: ('A' for Active; 'I' for Inactive)
REMARK    1  A    between atoms: C_1  and  C_2
REMARK    2  A    between atoms: C_2  and  C_4
REMARK    3  A    between atoms: C_2  and  N_10
REMARK    4  A    between atoms: C_11  and  C_13
REMARK    5  A    between atoms: C_16  and  C_27
REMARK    6  A    between atoms: N_23  and  C_24
REMARK    7  A    between atoms: C_24  and  C_25
REMARK    8  A    between atoms: C_24  and  C_26
REMARK    9  A    between atoms: C_30  and  O_35
REMARK   10  A    between atoms: C_31  and  O_33
REMARK   11  A    between atoms: O_33  and  C_34
REMARK   12  A    between atoms: O_35  and  C_36
REMARK                            x       y       z     vdW  Elec       q    Type
REMARK                         _______ _______ _______ _____ _____    ______ ____
ROOT
ATOM      1  C   UNL     1       0.782  -1.130   3.577  0.00  0.00    +0.093 C 
ATOM      2  C   UNL     1      -0.189  -1.202   4.758  0.00  0.00    +0.024 C 
ATOM      3  C   UNL     1       0.557  -1.679   6.006  0.00  0.00    +0.037 C 
ATOM      4  C   UNL     1       1.119  -3.082   5.755  0.00  0.00    +0.117 C 
ATOM      5  N   UNL     1       1.939  -3.052   4.537  0.00  0.00    -0.284 N 
ATOM      6  C   UNL     1       1.347  -2.527   3.299  0.00  0.00    +0.122 C 
ATOM      7  C   UNL     1       3.211  -3.499   4.554  0.00  0.00    +0.302 C 
ATOM      8  O   UNL     1       3.849  -3.555   3.520  0.00  0.00    -0.253 OA
ATOM      9  N   UNL     1       3.775  -3.883   5.716  0.00  0.00    -0.297 N 
ATOM     10  H   UNL     1       3.244  -3.908   6.527  0.00  0.00    +0.150 HD
ENDROOT
BRANCH   3  11
ATOM     11  C   UNL     1      -0.392  -1.718   7.175  0.00  0.00    -0.039 A 
ATOM     12  C   UNL     1      -1.510  -2.530   7.129  0.00  0.00    +0.008 A 
ATOM     13  C   UNL     1      -2.384  -2.569   8.200  0.00  0.00    +0.049 A 
ATOM     14  C   UNL     1      -2.140  -1.794   9.322  0.00  0.00    +0.161 A 
ATOM     15  C   UNL     1      -1.015  -0.976   9.368  0.00  0.00    +0.162 A 
ATOM     16  C   UNL     1      -0.140  -0.946   8.294  0.00  0.00    +0.053 A 
BRANCH  15  17
ATOM     17  O   UNL     1      -0.772  -0.214  10.467  0.00  0.00    -0.491 OA
ATOM     18  C   UNL     1       0.403   0.601  10.445  0.00  0.00    +0.277 C 
ENDBRANCH  15  17
BRANCH  14  19
ATOM     19  O   UNL     1      -3.000  -1.831  10.375  0.00  0.00    -0.491 OA
ATOM     20  C   UNL     1      -4.134  -2.692  10.258  0.00  0.00    +0.277 C 
ENDBRANCH  14  19
ENDBRANCH   3  11
BRANCH   1  22
ATOM     21  N   UNL     1       0.713  -0.486   1.190  0.00  0.00    -0.308 N 
ATOM     22  C   UNL     1       0.054  -0.630   2.356  0.00  0.00    +0.218 C 
ATOM     23  O   UNL     1      -1.126  -0.357   2.424  0.00  0.00    -0.275 OA
ATOM     24  H   UNL     1       1.657  -0.705   1.136  0.00  0.00    +0.149 HD
BRANCH  21  26
ATOM     25  C   UNL     1      -0.014   1.529   0.011  0.00  0.00    +0.033 C 
ATOM     26  C   UNL     1       0.005  -0.000   0.003  0.00  0.00    +0.100 C 
BRANCH  26  27
ATOM     27  C   UNL     1       0.710  -0.487  -1.237  0.00  0.00    -0.027 A 
ATOM     28  C   UNL     1       2.091  -0.509  -1.284  0.00  0.00    +0.005 A 
ATOM     29  C   UNL     1       2.738  -0.956  -2.421  0.00  0.00    +0.000 A 
ATOM     30  C   UNL     1       2.003  -1.380  -3.512  0.00  0.00    +0.000 A 
ATOM     31  C   UNL     1       0.621  -1.359  -3.465  0.00  0.00    +0.000 A 
ATOM     32  C   UNL     1      -0.025  -0.917  -2.326  0.00  0.00    +0.005 A 
ENDBRANCH  26  27
ENDBRANCH  21  26
ENDBRANCH   1  22
BRANCH   9  33
ATOM     33  C   UNL     1       5.189  -4.263   5.753  0.00  0.00    +0.068 C 
ATOM     34  C   UNL     1       5.737  -4.051   7.166  0.00  0.00    +0.027 C 
ATOM     35  C   UNL     1       5.332  -5.736   5.366  0.00  0.00    +0.027 C 
ENDBRANCH   9  33
TORSDOF 7
