REMARK  Name = ZINC07257401
REMARK  8 active torsions:
REMARK  status: ('A' for Active; 'I' for Inactive)
REMARK    1  A    between atoms: C_1  and  C_2
REMARK    2  A    between atoms: C_2  and  N_3
REMARK    3  A    between atoms: C_5  and  C_14
REMARK    4  A    between atoms: C_14  and  N_15
REMARK    5  A    between atoms: N_15  and  C_16
REMARK    6  A    between atoms: C_17  and  C_19
REMARK    7  A    between atoms: C_22  and  N_25
REMARK    8  A    between atoms: C_26  and  C_28
REMARK                            x       y       z     vdW  Elec       q    Type
REMARK                         _______ _______ _______ _____ _____    ______ ____
ROOT
ATOM      1  N   UNL     1       5.896  -2.445  -0.623  0.00  0.00    -0.297 N 
ATOM      2  C   UNL     1       4.625  -3.174  -0.622  0.00  0.00    +0.132 C 
ATOM      3  C   UNL     1       5.910  -1.115  -0.404  0.00  0.00    +0.246 C 
ATOM      4  O   UNL     1       6.970  -0.525  -0.312  0.00  0.00    -0.270 OA
ENDROOT
BRANCH   3   5
ATOM      5  C   UNL     1       4.640  -0.374  -0.275  0.00  0.00    +0.037 A 
ATOM      6  C   UNL     1       4.599   0.827   0.438  0.00  0.00    +0.015 A 
ATOM      7  C   UNL     1       3.413   1.515   0.557  0.00  0.00    +0.024 A 
ATOM      8  C   UNL     1       2.255   1.015  -0.033  0.00  0.00    +0.034 A 
ATOM      9  C   UNL     1       2.292  -0.183  -0.739  0.00  0.00    +0.024 A 
ATOM     10  C   UNL     1       3.476  -0.873  -0.866  0.00  0.00    +0.015 A 
BRANCH   8  11
ATOM     11  N   UNL     1       1.056   1.714   0.089  0.00  0.00    -0.279 N 
ATOM     12  C   UNL     1       1.058   3.062   0.092  0.00  0.00    +0.284 C 
ATOM     13  O   UNL     1       2.113   3.668   0.074  0.00  0.00    -0.266 OA
ATOM     14  H   UNL     1       0.219   1.230   0.172  0.00  0.00    +0.155 HD
BRANCH  12  15
ATOM     15  C   UNL     1      -0.209   3.797   0.123  0.00  0.00    +0.189 A 
ATOM     16  C   UNL     1      -0.349   5.155   0.134  0.00  0.00    +0.054 A 
ATOM     17  C   UNL     1      -1.728   5.419   0.164  0.00  0.00    +0.042 A 
ATOM     18  C   UNL     1      -2.361   4.225   0.169  0.00  0.00    +0.196 A 
ATOM     19  O   UNL     1      -1.443   3.250   0.139  0.00  0.00    -0.458 OA
ENDBRANCH  12  15
ENDBRANCH   8  11
ENDBRANCH   3   5
BRANCH   1  20
ATOM     20  C   UNL     1       7.151  -3.162  -0.861  0.00  0.00    +0.153 C 
BRANCH  20  23
ATOM     21  N   UNL     1       9.549  -4.877   1.520  0.00  0.00    -0.324 N 
ATOM     22  C   UNL     1       9.058  -4.364   0.235  0.00  0.00    +0.151 C 
ATOM     23  C   UNL     1       7.723  -3.646   0.473  0.00  0.00    +0.208 C 
ATOM     24  O   UNL     1       7.973  -2.525   1.328  0.00  0.00    -0.484 OA
ATOM     25  C   UNL     1       8.765  -2.748   2.413  0.00  0.00    +0.142 A 
ATOM     26  C   UNL     1       9.546  -3.894   2.514  0.00  0.00    +0.072 A 
ATOM     27  C   UNL     1      10.347  -4.080   3.636  0.00  0.00    +0.027 A 
ATOM     28  C   UNL     1      10.363  -3.136   4.644  0.00  0.00    +0.002 A 
ATOM     29  C   UNL     1       9.583  -2.000   4.542  0.00  0.00    +0.004 A 
ATOM     30  C   UNL     1       8.786  -1.805   3.430  0.00  0.00    +0.047 A 
BRANCH  21  32
ATOM     31  C   UNL     1      10.821  -6.620   0.362  0.00  0.00    +0.024 C 
ATOM     32  C   UNL     1      10.883  -5.473   1.373  0.00  0.00    +0.102 C 
ENDBRANCH  21  32
ENDBRANCH  20  23
ENDBRANCH   1  20
TORSDOF 6
