REMARK  Name = ZINC12885645
REMARK  5 active torsions:
REMARK  status: ('A' for Active; 'I' for Inactive)
REMARK    1  A    between atoms: N_7  and  C_12
REMARK    2  A    between atoms: C_12  and  C_13
REMARK    3  A    between atoms: N_15  and  N_16
REMARK    4  A    between atoms: C_17  and  C_19
REMARK    5  A    between atoms: C_19  and  C_20
REMARK                            x       y       z     vdW  Elec       q    Type
REMARK                         _______ _______ _______ _____ _____    ______ ____
ROOT
ATOM      1  N   UNL     1       2.098   2.855   3.668  0.00  0.00    -0.234 N 
ATOM      2  C   UNL     1       1.722   2.887   2.373  0.00  0.00    +0.231 C 
ATOM      3  O   UNL     1       0.883   3.681   2.005  0.00  0.00    -0.274 OA
ATOM      4  H   UNL     1       2.769   2.220   3.962  0.00  0.00    +0.173 HD
ENDROOT
BRANCH   1   7
ATOM      5  C   UNL     1       1.893   3.707   5.881  0.00  0.00    +0.247 C 
ATOM      6  O   UNL     1       2.732   2.913   6.250  0.00  0.00    -0.273 OA
ATOM      7  N   UNL     1       1.518   3.739   4.587  0.00  0.00    -0.233 N 
ATOM      8  H   UNL     1       0.847   4.374   4.292  0.00  0.00    +0.173 HD
BRANCH   5   9
ATOM      9  C   UNL     1       1.270   4.658   6.870  0.00  0.00    +0.211 C 
BRANCH   9  16
ATOM     10  C   UNL     1      -0.238   1.676   9.497  0.00  0.00    +0.002 A 
ATOM     11  C   UNL     1       0.108   1.700  10.835  0.00  0.00    +0.004 A 
ATOM     12  C   UNL     1       1.026   2.624  11.302  0.00  0.00    +0.047 A 
ATOM     13  C   UNL     1       1.600   3.527  10.425  0.00  0.00    +0.143 A 
ATOM     14  C   UNL     1       1.249   3.507   9.078  0.00  0.00    +0.079 A 
ATOM     15  C   UNL     1       0.332   2.576   8.615  0.00  0.00    +0.027 A 
ATOM     16  N   UNL     1       1.841   4.425   8.199  0.00  0.00    -0.256 N 
ATOM     17  C   UNL     1       2.944   5.095   8.598  0.00  0.00    +0.258 C 
ATOM     18  O   UNL     1       3.453   5.920   7.868  0.00  0.00    -0.271 OA
ATOM     19  C   UNL     1       3.540   4.814   9.954  0.00  0.00    +0.325 C 
ATOM     20  O   UNL     1       2.504   4.442  10.866  0.00  0.00    -0.481 OA
ENDBRANCH   9  16
ENDBRANCH   5   9
ENDBRANCH   1   7
BRANCH   2  21
ATOM     21  C   UNL     1       2.346   1.936   1.385  0.00  0.00    +0.121 C 
BRANCH  21  22
ATOM     22  C   UNL     1       1.749   2.179  -0.003  0.00  0.00    +0.146 C 
ATOM     23  C   UNL     1       2.438   1.298  -1.012  0.00  0.00    +0.231 C 
ATOM     24  O   UNL     1       3.324   1.777  -1.688  0.00  0.00    -0.274 OA
ATOM     25  N   UNL     1       2.121   0.021  -1.199  0.00  0.00    -0.284 N 
ATOM     26  C   UNL     1       1.066  -0.668  -0.607  0.00  0.00    +0.048 A 
ATOM     27  C   UNL     1       1.074  -2.059  -0.618  0.00  0.00    +0.044 A 
ATOM     28  C   UNL     1       0.043  -2.766  -0.028  0.00  0.00    +0.043 A 
ATOM     29  C   UNL     1      -1.006  -2.099   0.580  0.00  0.00    +0.021 A 
ATOM     30  C   UNL     1      -1.028  -0.717   0.594  0.00  0.00    +0.018 A 
ATOM     31  C   UNL     1       0.002  -0.004   0.002  0.00  0.00    +0.030 A 
ATOM     32  S   UNL     1      -0.022   1.762   0.012  0.00  0.00    -0.110 S 
ATOM     33 CL   UNL     1       0.066  -4.502  -0.048  0.00  0.00    -0.083 Cl
ATOM     34  H   UNL     1       2.682  -0.483  -1.810  0.00  0.00    +0.155 HD
ENDBRANCH  21  22
ENDBRANCH   2  21
TORSDOF 5
