REMARK  Name = ZINC03066285
REMARK  6 active torsions:
REMARK  status: ('A' for Active; 'I' for Inactive)
REMARK    1  A    between atoms: C_6  and  C_7
REMARK    2  A    between atoms: N_9  and  C_10
REMARK    3  A    between atoms: C_10  and  C_12
REMARK    4  A    between atoms: C_10  and  N_16
REMARK    5  A    between atoms: N_16  and  C_17
REMARK    6  A    between atoms: C_17  and  N_19
REMARK                            x       y       z     vdW  Elec       q    Type
REMARK                         _______ _______ _______ _____ _____    ______ ____
ROOT
ATOM      1  C   UNL     1       1.248   1.716  -0.001  0.00  0.00    +0.211 C 
ENDROOT
BRANCH   1   4
ATOM      2  C   UNL     1       1.822   2.724   2.142  0.00  0.00    +0.246 C 
ATOM      3  O   UNL     1       1.274   3.745   1.774  0.00  0.00    -0.270 OA
ATOM      4  N   UNL     1       1.863   1.651   1.327  0.00  0.00    -0.290 N 
ATOM      5  H   UNL     1       2.300   0.836   1.621  0.00  0.00    +0.151 HD
BRANCH   2  11
ATOM      6  C   UNL     1       3.067   1.486   3.909  0.00  0.00    +0.014 A 
ATOM      7  C   UNL     1       3.649   1.433   5.157  0.00  0.00    +0.016 A 
ATOM      8  C   UNL     1       3.605   2.538   5.992  0.00  0.00    +0.018 A 
ATOM      9  C   UNL     1       2.982   3.702   5.576  0.00  0.00    +0.016 A 
ATOM     10  C   UNL     1       2.401   3.769   4.327  0.00  0.00    +0.014 A 
ATOM     11  C   UNL     1       2.442   2.659   3.482  0.00  0.00    +0.037 A 
ATOM     12 BR   UNL     1       4.400   2.455   7.706  0.00  0.00    -0.050 Br
ENDBRANCH   2  11
ENDBRANCH   1   4
BRANCH   1  13
ATOM     13  C   UNL     1       2.198   1.106  -1.033  0.00  0.00    +0.225 C 
ATOM     14 CL   UNL     1       1.441   1.185  -2.667  0.00  0.00    -0.080 Cl
ATOM     15 CL   UNL     1       3.747   2.028  -1.043  0.00  0.00    -0.080 Cl
ATOM     16 CL   UNL     1       2.526  -0.615  -0.605  0.00  0.00    -0.080 Cl
ENDBRANCH   1  13
BRANCH   1  17
ATOM     17  N   UNL     1      -0.011   0.966   0.007  0.00  0.00    -0.305 N 
ATOM     18  H   UNL     1       0.002  -0.004   0.002  0.00  0.00    +0.150 HD
BRANCH  17  19
ATOM     19  C   UNL     1      -1.187   1.624   0.017  0.00  0.00    +0.138 C 
ATOM     20  S   UNL     1      -1.210   3.336   0.026  0.00  0.00    -0.018 S 
BRANCH  19  21
ATOM     21  N   UNL     1      -2.345   0.934   0.018  0.00  0.00    -0.265 N 
ATOM     22  C   UNL     1      -3.566   1.617   0.028  0.00  0.00    +0.240 A 
ATOM     23  N   UNL     1      -4.775   1.048   0.030  0.00  0.00    -0.202 NA
ATOM     24  C   UNL     1      -5.699   1.974   0.040  0.00  0.00    +0.217 A 
ATOM     25  N   UNL     1      -5.093   3.173   0.044  0.00  0.00    -0.264 N 
ATOM     26  H   UNL     1      -5.524   4.042   0.052  0.00  0.00    +0.190 HD
ATOM     27  N   UNL     1      -3.711   2.920   0.041  0.00  0.00    -0.136 NA
ATOM     28  H   UNL     1      -2.332  -0.036   0.013  0.00  0.00    +0.157 HD
ENDBRANCH  19  21
ENDBRANCH  17  19
ENDBRANCH   1  17
TORSDOF 6
