REMARK  Name = ZINC44607945
REMARK  9 active torsions:
REMARK  status: ('A' for Active; 'I' for Inactive)
REMARK    1  A    between atoms: C_1  and  C_2
REMARK    2  A    between atoms: C_2  and  C_4
REMARK    3  A    between atoms: C_2  and  C_8
REMARK    4  A    between atoms: C_4  and  O_6
REMARK    5  A    between atoms: O_6  and  C_7
REMARK    6  A    between atoms: C_8  and  O_32
REMARK    7  A    between atoms: C_13  and  C_31
REMARK    8  A    between atoms: C_23  and  C_30
REMARK    9  A    between atoms: C_26  and  O_29
REMARK                            x       y       z     vdW  Elec       q    Type
REMARK                         _______ _______ _______ _____ _____    ______ ____
ROOT
ATOM      1  C   UNL     1      -1.801   0.547  -0.428  0.00  0.00    +0.084 C 
ATOM      2  C   UNL     1      -2.059   0.882  -1.911  0.00  0.00    +0.036 C 
ATOM      3  C   UNL     1      -1.861  -0.433  -2.697  0.00  0.00    +0.007 C 
ATOM      4  C   UNL     1      -2.122  -1.544  -1.637  0.00  0.00    +0.001 C 
ATOM      5  C   UNL     1      -1.451  -0.946  -0.390  0.00  0.00    +0.001 C 
ATOM      6  C   UNL     1      -1.892  -1.616   0.891  0.00  0.00    +0.010 C 
ATOM      7  C   UNL     1      -3.413  -1.601   1.014  0.00  0.00    +0.005 C 
ATOM      8  C   UNL     1      -4.015  -2.360  -0.176  0.00  0.00    +0.003 C 
ATOM      9  C   UNL     1      -3.643  -1.643  -1.479  0.00  0.00    +0.000 C 
ATOM     10  C   UNL     1      -4.184  -2.452  -2.666  0.00  0.00    +0.031 C 
ATOM     11  C   UNL     1      -5.646  -2.724  -2.479  0.00  0.00    -0.027 C 
ATOM     12  C   UNL     1      -6.238  -2.700  -1.328  0.00  0.00    -0.065 C 
ATOM     13  C   UNL     1      -5.530  -2.382  -0.010  0.00  0.00    -0.008 C 
ATOM     14  C   UNL     1      -6.038  -1.059   0.558  0.00  0.00    +0.014 C 
ATOM     15  C   UNL     1      -7.476  -0.811   0.102  0.00  0.00    +0.032 C 
ATOM     16  C   UNL     1      -8.253  -2.122  -0.004  0.00  0.00    +0.119 C 
ATOM     17  C   UNL     1      -7.732  -2.964  -1.244  0.00  0.00    +0.062 C 
ATOM     18  C   UNL     1      -5.886  -3.484   0.991  0.00  0.00    +0.016 C 
ATOM     19  C   UNL     1       0.066  -1.105  -0.518  0.00  0.00    +0.014 C 
ENDROOT
BRANCH   1  21
ATOM     20  C   UNL     1      -0.450   1.104   1.599  0.00  0.00    +0.022 C 
ATOM     21  C   UNL     1      -0.631   1.377   0.104  0.00  0.00    +0.127 C 
BRANCH  21  22
ATOM     22  C   UNL     1      -0.916   2.842  -0.107  0.00  0.00    +0.312 C 
ATOM     23  O   UNL     1      -2.058   3.227  -0.201  0.00  0.00    -0.250 OA
BRANCH  22  24
ATOM     24  O   UNL     1       0.097   3.718  -0.192  0.00  0.00    -0.468 OA
ATOM     25  C   UNL     1      -0.246   5.090  -0.393  0.00  0.00    +0.280 C 
ENDBRANCH  22  24
ENDBRANCH  21  22
ENDBRANCH   1  21
BRANCH  16  26
ATOM     26  O   UNL     1      -8.069  -2.883   1.191  0.00  0.00    -0.391 OA
ATOM     27  H   UNL     1      -8.611  -3.683   1.235  0.00  0.00    +0.210 HD
ENDBRANCH  16  26
BRANCH   1  28
ATOM     28  O   UNL     1      -2.975   0.798   0.347  0.00  0.00    -0.387 OA
ATOM     29  H   UNL     1      -3.255   1.724   0.348  0.00  0.00    +0.210 HD
ENDBRANCH   1  28
TORSDOF 5
