REMARK  Name = ZINC08799277
REMARK  8 active torsions:
REMARK  status: ('A' for Active; 'I' for Inactive)
REMARK    1  A    between atoms: C_1  and  N_2
REMARK    2  A    between atoms: C_10  and  C_12
REMARK    3  A    between atoms: C_12  and  C_14
REMARK    4  A    between atoms: C_12  and  N_60
REMARK    5  A    between atoms: C_14  and  N_15
REMARK    6  A    between atoms: N_15  and  S_16
REMARK    7  A    between atoms: S_16  and  C_19
REMARK    8  A    between atoms: C_19  and  C_20
REMARK                            x       y       z     vdW  Elec       q    Type
REMARK                         _______ _______ _______ _____ _____    ______ ____
ROOT
ATOM      1  C   UNL     1       3.405  -2.918   3.860  0.00  0.00    -0.022 C 
ENDROOT
BRANCH   1  11
ATOM      2  C   UNL     1      -0.459  -1.611  -0.964  0.00  0.00    +0.129 C 
ATOM      3  N   UNL     1       0.830  -0.927  -0.790  0.00  0.00    -0.333 N 
ATOM      4  C   UNL     1       0.663   0.526  -0.836  0.00  0.00    +0.105 C 
ATOM      5  C   UNL     1       2.032   1.185  -0.621  0.00  0.00    +0.024 C 
ATOM      6  C   UNL     1       2.462   0.917   0.823  0.00  0.00    +0.038 C 
ATOM      7  C   UNL     1       2.260  -0.541   1.151  0.00  0.00    -0.026 A 
ATOM      8  C   UNL     1       1.478  -1.368   0.363  0.00  0.00    +0.033 A 
ATOM      9  C   UNL     1       1.320  -2.708   0.723  0.00  0.00    +0.023 A 
ATOM     10  C   UNL     1       1.940  -3.205   1.849  0.00  0.00    +0.004 A 
ATOM     11  C   UNL     1       2.724  -2.376   2.629  0.00  0.00    -0.059 A 
ATOM     12  C   UNL     1       2.882  -1.049   2.280  0.00  0.00    +0.007 A 
ENDBRANCH   1  11
BRANCH   1  17
ATOM     13  C   UNL     1       3.145  -4.415   5.762  0.00  0.00    -0.078 C 
ATOM     14  C   UNL     1       1.944  -4.894   6.616  0.00  0.00    -0.020 C 
ATOM     15  C   UNL     1       0.888  -3.791   6.375  0.00  0.00    -0.020 C 
ATOM     16  C   UNL     1       1.296  -3.126   5.048  0.00  0.00    -0.078 C 
ATOM     17  N   UNL     1       2.481  -3.846   4.579  0.00  0.00    +0.385 N 
ATOM     18  H   UNL     1       2.199  -4.601   3.942  0.00  0.00    -0.081 HD
ENDBRANCH   1  17
BRANCH   1  19
ATOM     19  C   UNL     1       4.675  -3.668   3.451  0.00  0.00    +0.095 C 
BRANCH  19  20
ATOM     20  N   UNL     1       5.622  -2.730   2.845  0.00  0.00    -0.195 NA
ATOM     21  H   UNL     1       5.321  -1.853   2.558  0.00  0.00    +0.148 HD
BRANCH  20  22
ATOM     22  S   UNL     1       7.208  -3.165   2.649  0.00  0.00    +0.033 S 
ATOM     23  O   UNL     1       7.827  -2.026   2.066  0.00  0.00    -0.158 OA
ATOM     24  O   UNL     1       7.615  -3.636   3.927  0.00  0.00    -0.158 OA
BRANCH  22  25
ATOM     25  C   UNL     1       7.173  -4.534   1.460  0.00  0.00    +0.220 C 
BRANCH  25  26
ATOM     26  C   UNL     1       8.578  -5.015   1.205  0.00  0.00    -0.024 A 
ATOM     27  C   UNL     1       9.323  -4.459   0.182  0.00  0.00    +0.005 A 
ATOM     28  C   UNL     1      10.614  -4.895  -0.049  0.00  0.00    +0.002 A 
ATOM     29  C   UNL     1      11.157  -5.896   0.735  0.00  0.00    +0.020 A 
ATOM     30  C   UNL     1      10.409  -6.457   1.755  0.00  0.00    +0.041 A 
ATOM     31  C   UNL     1       9.119  -6.015   1.990  0.00  0.00    +0.025 A 
ATOM     32 CL   UNL     1      11.090  -7.713   2.741  0.00  0.00    -0.084 Cl
ENDBRANCH  25  26
ENDBRANCH  22  25
ENDBRANCH  20  22
ENDBRANCH  19  20
ENDBRANCH   1  19
TORSDOF 7
