REMARK  Name = ZINC39483530
REMARK  7 active torsions:
REMARK  status: ('A' for Active; 'I' for Inactive)
REMARK    1  A    between atoms: C_1  and  S_2
REMARK    2  A    between atoms: S_2  and  C_3
REMARK    3  A    between atoms: C_5  and  C_10
REMARK    4  A    between atoms: C_7  and  O_9
REMARK    5  A    between atoms: C_25  and  S_26
REMARK    6  A    between atoms: S_26  and  O_29
REMARK    7  A    between atoms: O_29  and  C_30
REMARK                            x       y       z     vdW  Elec       q    Type
REMARK                         _______ _______ _______ _____ _____    ______ ____
ROOT
ATOM      1  C   UNL     1       1.748  -3.389  -3.328  0.00  0.00    +0.015 C 
ATOM      2  C   UNL     1       2.243  -3.645  -4.555  0.00  0.00    -0.004 C 
ATOM      3  C   UNL     1       2.667  -2.513  -5.445  0.00  0.00    +0.040 C 
ATOM      4  C   UNL     1       3.836  -2.935  -6.319  0.00  0.00    +0.026 C 
ATOM      5  C   UNL     1       3.587  -4.245  -7.032  0.00  0.00    +0.127 C 
ATOM      6  N   UNL     1       3.066  -5.300  -6.174  0.00  0.00    -0.293 N 
ATOM      7  C   UNL     1       2.374  -5.033  -5.020  0.00  0.00    +0.140 A 
ATOM      8  N   UNL     1       1.812  -5.981  -4.298  0.00  0.00    -0.227 NA
ATOM      9  C   UNL     1       1.915  -7.283  -4.614  0.00  0.00    +0.107 A 
ATOM     10  C   UNL     1       2.673  -7.654  -5.749  0.00  0.00    +0.067 A 
ATOM     11  C   UNL     1       3.280  -6.589  -6.550  0.00  0.00    +0.262 A 
ATOM     12  O   UNL     1       3.967  -6.852  -7.520  0.00  0.00    -0.267 OA
ATOM     13  C   UNL     1       2.810  -8.999  -6.085  0.00  0.00    +0.015 A 
ATOM     14  C   UNL     1       2.194  -9.960  -5.312  0.00  0.00    +0.003 A 
ATOM     15  C   UNL     1       1.442  -9.598  -4.202  0.00  0.00    +0.033 A 
ATOM     16  C   UNL     1       1.298  -8.276  -3.847  0.00  0.00    +0.154 A 
ENDROOT
BRANCH   1  19
ATOM     17  C   UNL     1       1.389  -0.307  -1.208  0.00  0.00    +0.012 A 
ATOM     18  C   UNL     1       1.648  -1.616  -1.588  0.00  0.00    +0.023 A 
ATOM     19  C   UNL     1       1.475  -2.001  -2.919  0.00  0.00    -0.020 A 
ATOM     20  C   UNL     1       1.042  -1.065  -3.863  0.00  0.00    +0.053 A 
ATOM     21  C   UNL     1       0.786   0.240  -3.474  0.00  0.00    +0.118 A 
ATOM     22  C   UNL     1       0.954   0.618  -2.150  0.00  0.00    +0.060 A 
BRANCH  17  24
ATOM     23  C   UNL     1       1.149   1.937   0.479  0.00  0.00    +0.090 C 
ATOM     24  S   UNL     1       1.606   0.182   0.470  0.00  0.00    -0.128 S 
ENDBRANCH  17  24
BRANCH  21  25
ATOM     25  O   UNL     1       0.366   1.150  -4.392  0.00  0.00    -0.507 OA
ATOM     26  H   UNL     1      -0.595   1.198  -4.486  0.00  0.00    +0.292 HD
ENDBRANCH  21  25
ENDBRANCH   1  19
BRANCH  16  27
ATOM     27  S   UNL     1       0.341  -7.838  -2.435  0.00  0.00    +0.153 S 
ATOM     28  O   UNL     1       1.214  -7.905  -1.315  0.00  0.00    -0.131 OA
ATOM     29  O   UNL     1      -0.370  -6.656  -2.777  0.00  0.00    -0.131 OA
BRANCH  27  30
ATOM     30  O   UNL     1      -0.701  -8.931  -2.240  0.00  0.00    -0.342 OA
BRANCH  30  31
ATOM     31  C   UNL     1      -1.740  -8.866  -3.114  0.00  0.00    +0.157 A 
ATOM     32  C   UNL     1      -2.817  -8.031  -2.852  0.00  0.00    +0.048 A 
ATOM     33  C   UNL     1      -3.872  -7.967  -3.742  0.00  0.00    +0.004 A 
ATOM     34  C   UNL     1      -3.855  -8.734  -4.892  0.00  0.00    +0.000 A 
ATOM     35  C   UNL     1      -2.783  -9.567  -5.155  0.00  0.00    +0.004 A 
ATOM     36  C   UNL     1      -1.723  -9.630  -4.271  0.00  0.00    +0.048 A 
ENDBRANCH  30  31
ENDBRANCH  27  30
ENDBRANCH  16  27
TORSDOF 6
