REMARK  Name = ZINC21360321
REMARK  6 active torsions:
REMARK  status: ('A' for Active; 'I' for Inactive)
REMARK    1  A    between atoms: C_1  and  C_2
REMARK    2  A    between atoms: C_2  and  O_3
REMARK    3  A    between atoms: O_3  and  C_4
REMARK    4  A    between atoms: C_8  and  C_11
REMARK    5  A    between atoms: C_9  and  O_10
REMARK    6  A    between atoms: N_22  and  C_23
REMARK                            x       y       z     vdW  Elec       q    Type
REMARK                         _______ _______ _______ _____ _____    ______ ____
ROOT
ATOM      1  C   UNL     1      -0.813   1.633   6.030  0.00  0.00    +0.201 C 
ATOM      2  N   UNL     1      -2.265   1.710   5.836  0.00  0.00    -0.321 N 
ATOM      3  C   UNL     1      -3.013   0.543   5.883  0.00  0.00    +0.041 A 
ATOM      4  C   UNL     1      -4.201   0.408   5.184  0.00  0.00    +0.024 A 
ATOM      5  C   UNL     1      -4.923  -0.766   5.283  0.00  0.00    +0.002 A 
ATOM      6  C   UNL     1      -4.468  -1.808   6.075  0.00  0.00    +0.001 A 
ATOM      7  C   UNL     1      -3.285  -1.691   6.775  0.00  0.00    +0.015 A 
ATOM      8  C   UNL     1      -2.545  -0.515   6.681  0.00  0.00    +0.058 A 
ATOM      9  C   UNL     1      -1.270  -0.345   7.400  0.00  0.00    +0.254 C 
ATOM     10  O   UNL     1      -0.916  -1.167   8.224  0.00  0.00    -0.270 OA
ATOM     11  N   UNL     1      -0.499   0.729   7.137  0.00  0.00    -0.244 N 
ATOM     12  H   UNL     1      -2.745   2.684   5.656  0.00  0.00    +0.148 HD
ENDROOT
BRANCH   1  17
ATOM     13  C   UNL     1      -0.096   0.983   2.370  0.00  0.00    +0.162 A 
ATOM     14  C   UNL     1       1.020   0.165   2.453  0.00  0.00    +0.049 A 
ATOM     15  C   UNL     1       1.543  -0.166   3.689  0.00  0.00    +0.004 A 
ATOM     16  C   UNL     1       0.949   0.307   4.844  0.00  0.00    +0.011 A 
ATOM     17  C   UNL     1      -0.168   1.119   4.768  0.00  0.00    +0.036 A 
ATOM     18  C   UNL     1      -0.694   1.460   3.533  0.00  0.00    +0.165 A 
BRANCH  18  19
ATOM     19  O   UNL     1      -1.791   2.259   3.456  0.00  0.00    -0.503 OA
ATOM     20  H   UNL     1      -2.263   2.635   4.376  0.00  0.00    +0.292 HD
ENDBRANCH  18  19
BRANCH  13  21
ATOM     21  O   UNL     1      -0.608   1.315   1.155  0.00  0.00    -0.489 OA
BRANCH  21  23
ATOM     22  C   UNL     1      -0.658   1.268  -1.261  0.00  0.00    +0.048 C 
ATOM     23  C   UNL     1       0.057   0.790   0.004  0.00  0.00    +0.226 C 
ENDBRANCH  21  23
ENDBRANCH  13  21
ENDBRANCH   1  17
BRANCH  11  24
ATOM     24  C   UNL     1       0.620   0.984   7.936  0.00  0.00    +0.039 A 
ATOM     25  C   UNL     1       1.616   0.025   8.065  0.00  0.00    +0.023 A 
ATOM     26  C   UNL     1       2.723   0.282   8.850  0.00  0.00    +0.002 A 
ATOM     27  C   UNL     1       2.834   1.488   9.517  0.00  0.00    +0.000 A 
ATOM     28  C   UNL     1       1.842   2.443   9.395  0.00  0.00    +0.002 A 
ATOM     29  C   UNL     1       0.735   2.195   8.606  0.00  0.00    +0.023 A 
ENDBRANCH  11  24
TORSDOF 5
