REMARK  Name = ZINC08590232
REMARK  15 active torsions:
REMARK  status: ('A' for Active; 'I' for Inactive)
REMARK    1  A    between atoms: C_1  and  C_2
REMARK    2  A    between atoms: C_2  and  O_3
REMARK    3  A    between atoms: O_3  and  C_4
REMARK    4  A    between atoms: C_4  and  C_5
REMARK    5  A    between atoms: C_5  and  C_6
REMARK    6  A    between atoms: C_6  and  N_7
REMARK    7  A    between atoms: N_10  and  C_11
REMARK    8  A    between atoms: C_11  and  C_13
REMARK    9  A    between atoms: C_11  and  C_18
REMARK   10  A    between atoms: C_13  and  C_14
REMARK   11  A    between atoms: C_14  and  C_15
REMARK   12  A    between atoms: C_15  and  C_16
REMARK   13  A    between atoms: C_15  and  C_17
REMARK   14  A    between atoms: C_22  and  N_23
REMARK   15  A    between atoms: N_29  and  C_32
REMARK                            x       y       z     vdW  Elec       q    Type
REMARK                         _______ _______ _______ _____ _____    ______ ____
ROOT
ATOM      1  C   UNL     1       3.591  -6.940   5.541  0.00  0.00    +0.108 C 
ENDROOT
BRANCH   1   2
ATOM      2  C   UNL     1       3.827  -7.057   7.024  0.00  0.00    +0.007 A 
ATOM      3  C   UNL     1       4.971  -7.690   7.502  0.00  0.00    -0.034 A 
ATOM      4  C   UNL     1       5.115  -7.758   8.855  0.00  0.00    -0.021 A 
ATOM      5  S   UNL     1       3.671  -6.943   9.476  0.00  0.00    -0.077 S 
ATOM      6  C   UNL     1       2.927  -6.539   7.902  0.00  0.00    +0.090 A 
ATOM      7  C   UNL     1       6.244  -8.387   9.603  0.00  0.00    -0.036 C 
ATOM      8  N   UNL     1       6.996  -9.248   8.671  0.00  0.00    +0.381 N 
ATOM      9  C   UNL     1       7.312  -8.490   7.453  0.00  0.00    -0.074 C 
ATOM     10  C   UNL     1       6.051  -8.295   6.607  0.00  0.00    +0.018 C 
ATOM     11  C   UNL     1       8.243  -9.690   9.310  0.00  0.00    -0.096 C 
ATOM     12  H   UNL     1       6.438 -10.053   8.431  0.00  0.00    -0.082 HD
BRANCH   6  13
ATOM     13  N   UNL     1       1.728  -5.865   7.641  0.00  0.00    -0.317 N 
ATOM     14  C   UNL     1       0.748  -6.287   6.789  0.00  0.00    +0.092 A 
ATOM     15  C   UNL     1      -0.246  -5.374   6.805  0.00  0.00    +0.019 A 
ATOM     16  C   UNL     1       0.133  -4.353   7.699  0.00  0.00    +0.019 A 
ATOM     17  C   UNL     1       1.341  -4.681   8.200  0.00  0.00    +0.092 A 
ENDBRANCH   6  13
ENDBRANCH   1   2
BRANCH   1  21
ATOM     18  N   UNL     1       1.680  -4.239   3.938  0.00  0.00    -0.299 N 
ATOM     19  C   UNL     1       2.178  -5.459   4.219  0.00  0.00    +0.300 C 
ATOM     20  O   UNL     1       1.840  -6.421   3.556  0.00  0.00    -0.253 OA
ATOM     21  N   UNL     1       3.049  -5.614   5.235  0.00  0.00    -0.292 N 
ATOM     22  H   UNL     1       1.949  -3.471   4.467  0.00  0.00    +0.150 HD
ATOM     23  H   UNL     1       3.319  -4.847   5.764  0.00  0.00    +0.151 HD
BRANCH  18  24
ATOM     24  C   UNL     1       0.732  -4.071   2.834  0.00  0.00    +0.108 C 
BRANCH  24  25
ATOM     25  C   UNL     1       0.326  -2.599   2.730  0.00  0.00    +0.047 C 
BRANCH  25  26
ATOM     26  C   UNL     1      -0.664  -2.424   1.576  0.00  0.00    +0.161 C 
BRANCH  26  27
ATOM     27  O   UNL     1      -1.044  -1.050   1.479  0.00  0.00    -0.380 OA
BRANCH  27  29
ATOM     28  C   UNL     1      -2.305   0.718   0.417  0.00  0.00    +0.034 C 
ATOM     29  C   UNL     1      -1.971  -0.776   0.427  0.00  0.00    +0.156 C 
ENDBRANCH  27  29
ENDBRANCH  26  27
ENDBRANCH  25  26
ENDBRANCH  24  25
ENDBRANCH  18  24
ENDBRANCH   1  21
BRANCH   1  30
ATOM     30  C   UNL     1       4.913  -7.136   4.796  0.00  0.00    +0.027 C 
BRANCH  30  31
ATOM     31  C   UNL     1       4.706  -6.853   3.307  0.00  0.00    +0.005 C 
BRANCH  31  32
ATOM     32  C   UNL     1       6.029  -7.048   2.563  0.00  0.00    -0.017 C 
ATOM     33  C   UNL     1       5.796  -6.887   1.059  0.00  0.00    +0.007 C 
ATOM     34  C   UNL     1       7.040  -6.003   3.037  0.00  0.00    +0.007 C 
ENDBRANCH  31  32
ENDBRANCH  30  31
ENDBRANCH   1  30
TORSDOF 11
