REMARK  Name = ZINC41124551
REMARK  6 active torsions:
REMARK  status: ('A' for Active; 'I' for Inactive)
REMARK    1  A    between atoms: C_1  and  C_2
REMARK    2  A    between atoms: C_5  and  S_8
REMARK    3  A    between atoms: S_8  and  C_11
REMARK    4  A    between atoms: C_14  and  N_17
REMARK    5  A    between atoms: C_18  and  N_23
REMARK    6  A    between atoms: C_20  and  C_22
REMARK                            x       y       z     vdW  Elec       q    Type
REMARK                         _______ _______ _______ _____ _____    ______ ____
ROOT
ATOM      1  N   UNL     1       5.750  -6.211  -0.064  0.00  0.00    -0.241 N 
ATOM      2  C   UNL     1       6.301  -7.195   0.698  0.00  0.00    +0.126 A 
ATOM      3  C   UNL     1       7.624  -7.261   0.385  0.00  0.00    +0.066 A 
ATOM      4  C   UNL     1       7.883  -6.294  -0.591  0.00  0.00    +0.033 A 
ATOM      5  N   UNL     1       6.765  -5.670  -0.863  0.00  0.00    -0.296 N 
ATOM      6  C   UNL     1       9.222  -6.019  -1.226  0.00  0.00    +0.065 C 
ATOM      7  H   UNL     1       6.658  -4.953  -1.508  0.00  0.00    +0.187 HD
ENDROOT
BRANCH   2   8
ATOM      8  N   UNL     1       5.633  -7.989   1.627  0.00  0.00    -0.282 N 
ATOM      9  C   UNL     1       6.327  -8.960   2.336  0.00  0.00    +0.162 A 
ATOM     10  C   UNL     1       5.646  -9.764   3.270  0.00  0.00    +0.170 A 
ATOM     11  N   UNL     1       6.286 -10.686   3.948  0.00  0.00    -0.230 NA
ATOM     12  C   UNL     1       7.599 -10.868   3.752  0.00  0.00    +0.091 A 
ATOM     13  C   UNL     1       8.307 -11.849   4.465  0.00  0.00    +0.030 A 
ATOM     14  C   UNL     1       9.641 -12.013   4.247  0.00  0.00    +0.002 A 
ATOM     15  C   UNL     1      10.318 -11.219   3.324  0.00  0.00    +0.002 A 
ATOM     16  C   UNL     1       9.664 -10.258   2.615  0.00  0.00    +0.030 A 
ATOM     17  C   UNL     1       8.287 -10.061   2.813  0.00  0.00    +0.091 A 
ATOM     18  N   UNL     1       7.619  -9.126   2.125  0.00  0.00    -0.227 NA
ATOM     19 CL   UNL     1       3.945  -9.531   3.527  0.00  0.00    -0.058 Cl
ATOM     20  H   UNL     1       4.684  -7.864   1.779  0.00  0.00    +0.155 HD
ENDBRANCH   2   8
BRANCH   1  24
ATOM     21  C   UNL     1       1.752  -5.029  -0.035  0.00  0.00    +0.094 A 
ATOM     22  C   UNL     1       2.409  -5.213  -1.238  0.00  0.00    +0.029 A 
ATOM     23  C   UNL     1       3.734  -5.604  -1.251  0.00  0.00    +0.029 A 
ATOM     24  C   UNL     1       4.406  -5.813  -0.054  0.00  0.00    +0.065 A 
ATOM     25  C   UNL     1       3.744  -5.628   1.152  0.00  0.00    +0.029 A 
ATOM     26  C   UNL     1       2.421  -5.231   1.159  0.00  0.00    +0.029 A 
BRANCH  21  27
ATOM     27  S   UNL     1       0.063  -4.530  -0.023  0.00  0.00    +0.025 S 
ATOM     28  O   UNL     1      -0.476  -4.950   1.223  0.00  0.00    -0.164 OA
ATOM     29  O   UNL     1      -0.490  -4.937  -1.267  0.00  0.00    -0.164 OA
BRANCH  27  34
ATOM     30  C   UNL     1      -0.018   1.503   0.010  0.00  0.00    +0.044 C 
ATOM     31  C   UNL     1       0.002  -0.004   0.002  0.00  0.00    -0.050 A 
ATOM     32  C   UNL     1       0.006  -0.689  -1.199  0.00  0.00    +0.005 A 
ATOM     33  C   UNL     1       0.025  -2.071  -1.206  0.00  0.00    +0.027 A 
ATOM     34  C   UNL     1       0.040  -2.768  -0.013  0.00  0.00    +0.094 A 
ATOM     35  C   UNL     1       0.037  -2.084   1.188  0.00  0.00    +0.027 A 
ATOM     36  C   UNL     1       0.023  -0.702   1.195  0.00  0.00    +0.005 A 
ENDBRANCH  27  34
ENDBRANCH  21  27
ENDBRANCH   1  24
TORSDOF 4
