REMARK  Name = ZINC13583185
REMARK  14 active torsions:
REMARK  status: ('A' for Active; 'I' for Inactive)
REMARK    1  A    between atoms: C_1  and  C_2
REMARK    2  A    between atoms: C_2  and  C_3
REMARK    3  A    between atoms: C_3  and  C_4
REMARK    4  A    between atoms: C_4  and  N_5
REMARK    5  A    between atoms: N_5  and  C_6
REMARK    6  A    between atoms: N_5  and  C_13
REMARK    7  A    between atoms: C_6  and  C_7
REMARK    8  A    between atoms: C_15  and  C_32
REMARK    9  A    between atoms: C_20  and  C_31
REMARK   10  A    between atoms: C_21  and  C_22
REMARK   11  A    between atoms: C_24  and  N_28
REMARK   12  A    between atoms: C_26  and  C_27
REMARK   13  A    between atoms: N_28  and  C_29
REMARK   14  A    between atoms: N_28  and  C_30
REMARK                            x       y       z     vdW  Elec       q    Type
REMARK                         _______ _______ _______ _____ _____    ______ ____
ROOT
ATOM      1  C   UNL     1       4.900  -1.848  -1.508  0.00  0.00    +0.127 A 
ATOM      2  C   UNL     1       6.134  -1.556  -2.026  0.00  0.00    +0.066 A 
ATOM      3  C   UNL     1       7.104  -2.556  -2.087  0.00  0.00    +0.044 A 
ATOM      4  N   UNL     1       6.836  -3.769  -1.651  0.00  0.00    -0.232 NA
ATOM      5  C   UNL     1       5.636  -4.070  -1.143  0.00  0.00    +0.166 A 
ATOM      6  N   UNL     1       4.654  -3.118  -1.058  0.00  0.00    -0.200 N 
ATOM      7  N   UNL     1       3.526  -3.713  -0.484  0.00  0.00    -0.168 NA
ATOM      8  C   UNL     1       3.788  -4.970  -0.219  0.00  0.00    +0.070 A 
ATOM      9  C   UNL     1       5.099  -5.252  -0.620  0.00  0.00    +0.051 A 
ATOM     10  C   UNL     1       2.831  -5.954   0.403  0.00  0.00    +0.068 C 
ATOM     11  C   UNL     1       8.465  -2.247  -2.655  0.00  0.00    +0.066 C 
ENDROOT
BRANCH   9  12
ATOM     12  C   UNL     1       5.795  -6.555  -0.499  0.00  0.00    +0.006 A 
ATOM     13  C   UNL     1       6.518  -6.866   0.650  0.00  0.00    +0.093 A 
ATOM     14  C   UNL     1       7.100  -8.931  -0.203  0.00  0.00    +0.098 A 
ATOM     15  C   UNL     1       6.403  -8.690  -1.382  0.00  0.00    +0.045 A 
ATOM     16  C   UNL     1       5.739  -7.489  -1.541  0.00  0.00    -0.038 A 
ATOM     17  C   UNL     1       4.973  -7.191  -2.804  0.00  0.00    +0.044 C 
ATOM     18  N   UNL     1       7.175  -8.042   0.831  0.00  0.00    -0.349 N 
ATOM     19  H   UNL     1       7.694  -8.249   1.692  0.00  0.00    +0.167 HD
BRANCH  14  20
ATOM     20  N   UNL     1       7.772 -10.138  -0.036  0.00  0.00    -0.323 N 
ATOM     21  C   UNL     1       7.834 -11.100  -1.140  0.00  0.00    +0.130 C 
ATOM     22  C   UNL     1       8.417 -10.447   1.242  0.00  0.00    +0.130 C 
ENDBRANCH  14  20
ENDBRANCH   9  12
BRANCH   1  23
ATOM     23  N   UNL     1       3.924  -0.878  -1.437  0.00  0.00    -0.311 N 
BRANCH  23  24
ATOM     24  C   UNL     1       4.063   0.091  -2.532  0.00  0.00    +0.107 C 
BRANCH  24  25
ATOM     25  C   UNL     1       3.952  -0.636  -3.873  0.00  0.00    +0.019 C 
BRANCH  25  27
ATOM     26  C   UNL     1       3.896  -0.344  -6.354  0.00  0.00    +0.004 C 
ATOM     27  C   UNL     1       4.008   0.384  -5.013  0.00  0.00    -0.002 C 
ENDBRANCH  25  27
ENDBRANCH  24  25
ENDBRANCH  23  24
BRANCH  23  28
ATOM     28  C   UNL     1       3.946  -0.204  -0.131  0.00  0.00    +0.141 C 
BRANCH  28  29
ATOM     29  C   UNL     1       2.725   0.668   0.005  0.00  0.00    -0.030 A 
ATOM     30  C   UNL     1       1.565   0.153   0.550  0.00  0.00    +0.005 A 
ATOM     31  C   UNL     1       0.444   0.953   0.675  0.00  0.00    +0.000 A 
ATOM     32  C   UNL     1       0.485   2.269   0.254  0.00  0.00    +0.000 A 
ATOM     33  C   UNL     1       1.645   2.785  -0.291  0.00  0.00    +0.000 A 
ATOM     34  C   UNL     1       2.766   1.985  -0.416  0.00  0.00    +0.005 A 
ENDBRANCH  28  29
ENDBRANCH  23  28
ENDBRANCH   1  23
TORSDOF 8
