REMARK  Name = ZINC11815435
REMARK  10 active torsions:
REMARK  status: ('A' for Active; 'I' for Inactive)
REMARK    1  A    between atoms: C_1  and  C_2
REMARK    2  A    between atoms: C_6  and  C_7
REMARK    3  A    between atoms: C_7  and  N_64
REMARK    4  A    between atoms: C_10  and  C_13
REMARK    5  A    between atoms: C_13  and  C_24
REMARK    6  A    between atoms: N_16  and  C_20
REMARK    7  A    between atoms: C_20  and  C_21
REMARK    8  A    between atoms: C_21  and  C_22
REMARK    9  A    between atoms: C_21  and  C_23
REMARK   10  A    between atoms: C_24  and  C_25
REMARK                            x       y       z     vdW  Elec       q    Type
REMARK                         _______ _______ _______ _____ _____    ______ ____
ROOT
ATOM      1  C   UNL     1      -0.527   2.937  -0.617  0.00  0.00    +0.119 C 
ATOM      2  C   UNL     1       0.945   2.600  -0.484  0.00  0.00    +0.247 C 
ATOM      3  O   UNL     1       1.882   3.363  -0.576  0.00  0.00    -0.273 OA
ATOM      4  N   UNL     1       0.995   1.275  -0.244  0.00  0.00    -0.224 N 
ATOM      5  C   UNL     1      -0.229   0.734  -0.206  0.00  0.00    +0.309 C 
ATOM      6  O   UNL     1      -0.439  -0.446  -0.005  0.00  0.00    -0.252 OA
ATOM      7  N   UNL     1      -1.198   1.640  -0.423  0.00  0.00    -0.284 N 
ATOM      8  H   UNL     1      -2.154   1.473  -0.445  0.00  0.00    +0.151 HD
ENDROOT
BRANCH   1  11
ATOM      9  C   UNL     1      -0.944   4.415   2.913  0.00  0.00    -0.078 C 
ATOM     10  C   UNL     1      -0.574   3.386   1.842  0.00  0.00    -0.013 C 
ATOM     11  C   UNL     1      -0.950   3.935   0.463  0.00  0.00    +0.018 C 
ATOM     12  C   UNL     1      -0.230   5.268   0.239  0.00  0.00    -0.013 C 
ATOM     13  C   UNL     1      -0.610   6.242   1.356  0.00  0.00    -0.078 C 
ATOM     14  N   UNL     1      -0.200   5.666   2.655  0.00  0.00    +0.383 N 
ATOM     15  H   UNL     1       0.805   5.455   2.623  0.00  0.00    -0.081 HD
BRANCH  14  16
ATOM     16  C   UNL     1      -0.452   6.637   3.739  0.00  0.00    -0.035 C 
BRANCH  16  22
ATOM     17  C   UNL     1      -1.009   9.206   2.150  0.00  0.00    +0.044 C 
ATOM     18  C   UNL     1       0.286   8.961   2.881  0.00  0.00    -0.042 A 
ATOM     19  C   UNL     1       1.291   9.909   2.865  0.00  0.00    +0.011 A 
ATOM     20  C   UNL     1       2.446   9.655   3.528  0.00  0.00    +0.045 A 
ATOM     21  S   UNL     1       2.130   8.036   4.212  0.00  0.00    -0.103 S 
ATOM     22  C   UNL     1       0.480   7.809   3.568  0.00  0.00    -0.024 A 
ENDBRANCH  16  22
ENDBRANCH  14  16
ENDBRANCH   1  11
BRANCH   4  23
ATOM     23  C   UNL     1       2.235   0.520  -0.047  0.00  0.00    +0.121 C 
BRANCH  23  24
ATOM     24  C   UNL     1       2.669   0.625   1.416  0.00  0.00    +0.001 C 
ATOM     25  C   UNL     1       1.635  -0.068   2.306  0.00  0.00    +0.009 C 
ATOM     26  C   UNL     1       4.030  -0.050   1.594  0.00  0.00    +0.009 C 
ENDBRANCH  23  24
ENDBRANCH   4  23
BRANCH   1  27
ATOM     27  C   UNL     1      -0.829   3.494  -2.010  0.00  0.00    +0.070 C 
BRANCH  27  28
ATOM     28  C   UNL     1      -0.590   2.422  -3.042  0.00  0.00    -0.042 A 
ATOM     29  C   UNL     1      -1.613   1.562  -3.395  0.00  0.00    +0.004 A 
ATOM     30  C   UNL     1      -1.395   0.579  -4.341  0.00  0.00    +0.003 A 
ATOM     31  C   UNL     1      -0.154   0.454  -4.936  0.00  0.00    +0.038 A 
ATOM     32  C   UNL     1       0.872   1.314  -4.583  0.00  0.00    +0.124 A 
ATOM     33  C   UNL     1       0.651   2.303  -3.639  0.00  0.00    +0.042 A 
ATOM     34  F   UNL     1       2.085   1.194  -5.164  0.00  0.00    -0.205 F 
ENDBRANCH  27  28
ENDBRANCH   1  27
TORSDOF 7
