REMARK  Name = ZINC34734831
REMARK  8 active torsions:
REMARK  status: ('A' for Active; 'I' for Inactive)
REMARK    1  A    between atoms: C_1  and  C_2
REMARK    2  A    between atoms: C_2  and  C_38
REMARK    3  A    between atoms: N_11  and  C_27
REMARK    4  A    between atoms: N_17  and  C_20
REMARK    5  A    between atoms: C_20  and  C_21
REMARK    6  A    between atoms: C_27  and  C_28
REMARK    7  A    between atoms: C_28  and  C_29
REMARK    8  A    between atoms: C_29  and  C_30
REMARK                            x       y       z     vdW  Elec       q    Type
REMARK                         _______ _______ _______ _____ _____    ______ ____
ROOT
ATOM      1  C   UNL     1      -0.095   1.411  -0.242  0.00  0.00    +0.041 C 
ATOM      2  C   UNL     1      -0.077  -0.117  -0.180  0.00  0.00    +0.068 C 
ATOM      3  C   UNL     1      -1.515  -0.639  -0.106  0.00  0.00    +0.071 C 
ATOM      4  C   UNL     1      -2.086  -0.269   1.261  0.00  0.00    -0.018 A 
ATOM      5  C   UNL     1      -1.240   0.072   2.263  0.00  0.00    +0.021 A 
ATOM      6  S   UNL     1      -2.284   0.422   3.652  0.00  0.00    -0.071 S 
ATOM      7  C   UNL     1      -3.847   0.113   2.890  0.00  0.00    +0.118 A 
ATOM      8  C   UNL     1      -3.503  -0.256   1.569  0.00  0.00    +0.076 A 
ATOM      9  C   UNL     1      -4.580  -0.576   0.679  0.00  0.00    +0.264 A 
ATOM     10  O   UNL     1      -4.386  -0.905  -0.479  0.00  0.00    -0.267 OA
ATOM     11  N   UNL     1      -5.825  -0.490   1.202  0.00  0.00    -0.280 N 
ATOM     12  C   UNL     1      -6.064  -0.125   2.490  0.00  0.00    +0.202 A 
ATOM     13  N   UNL     1      -5.094   0.178   3.341  0.00  0.00    -0.208 NA
ATOM     14  N   UNL     1      -7.364  -0.067   2.928  0.00  0.00    -0.304 N 
ATOM     15  C   UNL     1      -7.993  -1.223   3.585  0.00  0.00    +0.089 C 
ATOM     16  C   UNL     1      -8.634  -0.748   4.893  0.00  0.00    -0.059 C 
ATOM     17  N   UNL     1      -9.552   0.363   4.613  0.00  0.00    +0.384 N 
ATOM     18  C   UNL     1      -8.800   1.515   4.100  0.00  0.00    -0.059 C 
ATOM     19  C   UNL     1      -8.166   1.155   2.758  0.00  0.00    +0.089 C 
ATOM     20  C   UNL     1       0.253   0.129   2.181  0.00  0.00    +0.203 C 
ATOM     21  O   UNL     1       0.657  -0.536   0.974  0.00  0.00    -0.368 OA
ATOM     22  C   UNL     1       0.596  -0.669  -1.438  0.00  0.00    +0.041 C 
ATOM     23  H   UNL     1     -10.230   0.072   3.924  0.00  0.00    -0.081 HD
ENDROOT
BRANCH  17  24
ATOM     24  C   UNL     1     -10.248   0.745   5.849  0.00  0.00    -0.043 C 
BRANCH  24  25
ATOM     25  C   UNL     1     -11.278   1.800   5.540  0.00  0.00    -0.064 A 
ATOM     26  C   UNL     1     -10.933   3.138   5.588  0.00  0.00    +0.002 A 
ATOM     27  C   UNL     1     -11.878   4.107   5.305  0.00  0.00    +0.000 A 
ATOM     28  C   UNL     1     -13.168   3.737   4.972  0.00  0.00    +0.000 A 
ATOM     29  C   UNL     1     -13.513   2.400   4.923  0.00  0.00    +0.000 A 
ATOM     30  C   UNL     1     -12.567   1.431   5.202  0.00  0.00    +0.002 A 
ENDBRANCH  24  25
ENDBRANCH  17  24
BRANCH  11  31
ATOM     31  C   UNL     1      -6.968  -0.804   0.341  0.00  0.00    +0.128 C 
BRANCH  31  32
ATOM     32  C   UNL     1      -7.204  -2.315   0.337  0.00  0.00    +0.026 C 
BRANCH  32  33
ATOM     33  C   UNL     1      -8.397  -2.643  -0.563  0.00  0.00    +0.037 C 
BRANCH  33  34
ATOM     34  C   UNL     1      -8.629  -4.132  -0.567  0.00  0.00    -0.047 A 
ATOM     35  C   UNL     1      -7.995  -4.928  -1.502  0.00  0.00    +0.003 A 
ATOM     36  C   UNL     1      -8.207  -6.294  -1.506  0.00  0.00    +0.000 A 
ATOM     37  C   UNL     1      -9.054  -6.864  -0.574  0.00  0.00    +0.000 A 
ATOM     38  C   UNL     1      -9.688  -6.068   0.362  0.00  0.00    +0.000 A 
ATOM     39  C   UNL     1      -9.472  -4.703   0.368  0.00  0.00    +0.003 A 
ENDBRANCH  33  34
ENDBRANCH  32  33
ENDBRANCH  31  32
ENDBRANCH  11  31
TORSDOF 6
