REMARK  Name = ZINC38799904
REMARK  8 active torsions:
REMARK  status: ('A' for Active; 'I' for Inactive)
REMARK    1  A    between atoms: C_4  and  C_7
REMARK    2  A    between atoms: C_7  and  C_8
REMARK    3  A    between atoms: C_8  and  C_9
REMARK    4  A    between atoms: C_9  and  N_10
REMARK    5  A    between atoms: C_11  and  C_13
REMARK    6  A    between atoms: N_25  and  N_29
REMARK    7  A    between atoms: C_26  and  N_28
REMARK    8  A    between atoms: C_30  and  C_31
REMARK                            x       y       z     vdW  Elec       q    Type
REMARK                         _______ _______ _______ _____ _____    ______ ____
ROOT
ATOM      1  C   UNL     1       7.471  -3.078   4.335  0.00  0.00    +0.131 C 
ATOM      2  C   UNL     1       7.549  -1.636   4.785  0.00  0.00    +0.095 A 
ATOM      3  C   UNL     1       8.840  -1.402   5.286  0.00  0.00    +0.162 A 
ATOM      4  N   UNL     1       9.156  -0.197   5.746  0.00  0.00    -0.227 NA
ATOM      5  C   UNL     1       8.252   0.786   5.731  0.00  0.00    +0.091 A 
ATOM      6  C   UNL     1       8.567   2.069   6.211  0.00  0.00    +0.030 A 
ATOM      7  C   UNL     1       7.625   3.051   6.183  0.00  0.00    +0.002 A 
ATOM      8  C   UNL     1       6.348   2.805   5.683  0.00  0.00    +0.002 A 
ATOM      9  C   UNL     1       6.007   1.575   5.209  0.00  0.00    +0.030 A 
ATOM     10  C   UNL     1       6.952   0.537   5.223  0.00  0.00    +0.090 A 
ATOM     11  N   UNL     1       6.648  -0.683   4.763  0.00  0.00    -0.246 NA
ATOM     12  N   UNL     1       9.627  -2.542   5.215  0.00  0.00    -0.219 N 
ATOM     13  C   UNL     1       8.864  -3.654   4.635  0.00  0.00    +0.058 C 
ENDROOT
BRANCH   1  15
ATOM     14  N   UNL     1       6.015  -2.668   2.378  0.00  0.00    -0.315 N 
ATOM     15  C   UNL     1       7.177  -3.154   2.859  0.00  0.00    +0.222 C 
ATOM     16  O   UNL     1       7.985  -3.651   2.104  0.00  0.00    -0.275 OA
ATOM     17  H   UNL     1       5.369  -2.271   2.982  0.00  0.00    +0.149 HD
BRANCH  14  18
ATOM     18  C   UNL     1       5.729  -2.742   0.943  0.00  0.00    +0.104 C 
BRANCH  18  19
ATOM     19  C   UNL     1       4.357  -2.126   0.664  0.00  0.00    +0.023 C 
BRANCH  19  20
ATOM     20  C   UNL     1       4.058  -2.203  -0.834  0.00  0.00    +0.036 C 
BRANCH  20  24
ATOM     21  C   UNL     1       0.227  -0.483  -1.615  0.00  0.00    +0.000 A 
ATOM     22  C   UNL     1       1.359   0.309  -1.644  0.00  0.00    +0.000 A 
ATOM     23  C   UNL     1       2.599  -0.247  -1.392  0.00  0.00    +0.003 A 
ATOM     24  C   UNL     1       2.706  -1.596  -1.109  0.00  0.00    -0.047 A 
ATOM     25  C   UNL     1       1.574  -2.388  -1.078  0.00  0.00    +0.003 A 
ATOM     26  C   UNL     1       0.334  -1.832  -1.333  0.00  0.00    +0.000 A 
ENDBRANCH  20  24
ENDBRANCH  19  20
ENDBRANCH  18  19
ENDBRANCH  14  18
ENDBRANCH   1  15
BRANCH  13  27
ATOM     27  N   UNL     1       8.762  -4.759   5.597  0.00  0.00    +0.392 N 
ATOM     28  H   UNL     1       8.107  -5.445   5.253  0.00  0.00    -0.087 HD
ATOM     29  H   UNL     1       9.668  -5.188   5.713  0.00  0.00    -0.087 HD
ATOM     30  H   UNL     1       8.441  -4.404   6.485  0.00  0.00    -0.087 HD
ENDBRANCH  13  27
BRANCH  12  31
ATOM     31  N   UNL     1      10.854  -2.615   5.604  0.00  0.00    -0.188 NA
ATOM     32  C   UNL     1      11.548  -3.706   5.384  0.00  0.00    +0.136 C 
BRANCH  32  33
ATOM     33  C   UNL     1      12.841  -3.829   5.902  0.00  0.00    +0.000 C 
ATOM     34  C   UNL     1      13.709  -4.912   5.756  0.00  0.00    +0.004 A 
ATOM     35  C   UNL     1      13.586  -6.150   5.090  0.00  0.00    +0.010 A 
ATOM     36  C   UNL     1      14.616  -7.034   5.116  0.00  0.00    +0.001 A 
ATOM     37  C   UNL     1      15.807  -6.750   5.789  0.00  0.00    +0.002 A 
ATOM     38  C   UNL     1      15.994  -5.582   6.450  0.00  0.00    +0.026 A 
ATOM     39  C   UNL     1      14.962  -4.608   6.467  0.00  0.00    +0.043 A 
ATOM     40  N   UNL     1      14.897  -3.416   7.027  0.00  0.00    -0.380 N 
ATOM     41  C   UNL     1      13.594  -2.813   6.732  0.00  0.00    +0.150 C 
ATOM     42  H   UNL     1      15.603  -3.002   7.547  0.00  0.00    +0.160 HD
ENDBRANCH  32  33
ENDBRANCH  12  31
TORSDOF 8
