REMARK  Name = ZINC01372548
REMARK  11 active torsions:
REMARK  status: ('A' for Active; 'I' for Inactive)
REMARK    1  A    between atoms: C_1  and  C_2
REMARK    2  A    between atoms: C_7  and  C_8
REMARK    3  A    between atoms: C_8  and  C_10
REMARK    4  A    between atoms: C_8  and  N_20
REMARK    5  A    between atoms: N_12  and  C_13
REMARK    6  A    between atoms: C_13  and  C_14
REMARK    7  A    between atoms: N_20  and  C_21
REMARK    8  A    between atoms: C_24  and  N_27
REMARK    9  A    between atoms: C_28  and  C_30
REMARK   10  A    between atoms: C_31  and  C_33
REMARK   11  A    between atoms: C_33  and  N_34
REMARK                            x       y       z     vdW  Elec       q    Type
REMARK                         _______ _______ _______ _____ _____    ______ ____
ROOT
ATOM      1  N   UNL     1      -0.312  -0.408   3.491  0.00  0.00    -0.254 N 
ATOM      2  C   UNL     1      -1.511  -0.601   4.076  0.00  0.00    +0.242 C 
ATOM      3  O   UNL     1      -2.455   0.095   3.768  0.00  0.00    -0.273 OA
ENDROOT
BRANCH   1   4
ATOM      4  C   UNL     1       0.747  -1.284   3.762  0.00  0.00    +0.038 A 
ATOM      5  C   UNL     1       1.351  -1.278   5.012  0.00  0.00    +0.025 A 
ATOM      6  C   UNL     1       2.395  -2.140   5.279  0.00  0.00    +0.025 A 
ATOM      7  C   UNL     1       2.843  -3.013   4.296  0.00  0.00    +0.033 A 
ATOM      8  C   UNL     1       2.239  -3.019   3.045  0.00  0.00    +0.025 A 
ATOM      9  C   UNL     1       1.191  -2.161   2.781  0.00  0.00    +0.025 A 
BRANCH   7  10
ATOM     10  N   UNL     1       3.903  -3.888   4.566  0.00  0.00    -0.286 N 
ATOM     11  C   UNL     1       4.771  -4.217   3.589  0.00  0.00    +0.214 C 
ATOM     12  O   UNL     1       4.688  -3.688   2.501  0.00  0.00    -0.276 OA
ATOM     13  C   UNL     1       5.844  -5.243   3.848  0.00  0.00    +0.109 C 
ATOM     14  H   UNL     1       4.013  -4.257   5.457  0.00  0.00    +0.155 HD
ENDBRANCH   7  10
ENDBRANCH   1   4
BRANCH   1  15
ATOM     15  C   UNL     1      -0.118   0.716   2.573  0.00  0.00    +0.197 C 
BRANCH  15  22
ATOM     16  C   UNL     1      -1.872  -0.640   0.720  0.00  0.00    +0.044 C 
ATOM     17  C   UNL     1      -0.418  -0.443   0.375  0.00  0.00    -0.045 A 
ATOM     18  C   UNL     1       0.075  -0.906  -0.831  0.00  0.00    +0.004 A 
ATOM     19  C   UNL     1       1.408  -0.725  -1.148  0.00  0.00    +0.000 A 
ATOM     20  C   UNL     1       2.248  -0.081  -0.259  0.00  0.00    +0.000 A 
ATOM     21  C   UNL     1       1.756   0.383   0.946  0.00  0.00    +0.006 A 
ATOM     22  C   UNL     1       0.421   0.206   1.261  0.00  0.00    -0.015 A 
ENDBRANCH  15  22
BRANCH  15  23
ATOM     23  C   UNL     1       0.862   1.691   3.173  0.00  0.00    +0.239 C 
ATOM     24  O   UNL     1       1.465   1.400   4.184  0.00  0.00    -0.273 OA
ATOM     25  N   UNL     1       1.068   2.887   2.587  0.00  0.00    -0.309 N 
ATOM     26  H   UNL     1       0.534   3.150   1.821  0.00  0.00    +0.149 HD
BRANCH  25  27
ATOM     27  C   UNL     1       2.098   3.790   3.106  0.00  0.00    +0.139 C 
BRANCH  27  28
ATOM     28  C   UNL     1       2.125   5.050   2.279  0.00  0.00    -0.030 A 
ATOM     29  C   UNL     1       2.939   5.127   1.164  0.00  0.00    +0.005 A 
ATOM     30  C   UNL     1       2.963   6.283   0.406  0.00  0.00    +0.000 A 
ATOM     31  C   UNL     1       2.174   7.360   0.762  0.00  0.00    +0.000 A 
ATOM     32  C   UNL     1       1.360   7.282   1.876  0.00  0.00    +0.000 A 
ATOM     33  C   UNL     1       1.332   6.125   2.632  0.00  0.00    +0.005 A 
ENDBRANCH  27  28
ENDBRANCH  25  27
ENDBRANCH  15  23
ENDBRANCH   1  15
BRANCH   2  34
ATOM     34  C   UNL     1      -1.679  -1.681   5.114  0.00  0.00    +0.242 C 
BRANCH  34  35
ATOM     35  N   UNL     1      -3.091  -1.781   5.491  0.00  0.00    -0.235 N 
ATOM     36  C   UNL     1      -3.724  -1.092   6.498  0.00  0.00    +0.090 A 
ATOM     37  C   UNL     1      -3.310  -0.148   7.431  0.00  0.00    +0.029 A 
ATOM     38  C   UNL     1      -4.208   0.362   8.326  0.00  0.00    +0.002 A 
ATOM     39  C   UNL     1      -5.533  -0.054   8.313  0.00  0.00    +0.002 A 
ATOM     40  C   UNL     1      -5.964  -0.979   7.407  0.00  0.00    +0.032 A 
ATOM     41  C   UNL     1      -5.064  -1.517   6.479  0.00  0.00    +0.113 A 
ATOM     42  N   UNL     1      -5.191  -2.424   5.489  0.00  0.00    -0.129 NA
ATOM     43  N   UNL     1      -4.064  -2.595   4.892  0.00  0.00    -0.064 NA
ENDBRANCH  34  35
ENDBRANCH   2  34
TORSDOF 9
