REMARK  Name = ZINC19902843
REMARK  6 active torsions:
REMARK  status: ('A' for Active; 'I' for Inactive)
REMARK    1  A    between atoms: C_1  and  C_2
REMARK    2  A    between atoms: C_3  and  C_29
REMARK    3  A    between atoms: C_4  and  C_14
REMARK    4  A    between atoms: C_17  and  O_20
REMARK    5  A    between atoms: O_20  and  C_21
REMARK    6  A    between atoms: C_21  and  C_22
REMARK                            x       y       z     vdW  Elec       q    Type
REMARK                         _______ _______ _______ _____ _____    ______ ____
ROOT
ATOM      1  C   UNL     1       0.036  -3.103   3.779  0.00  0.00    +0.061 C 
ATOM      2  C   UNL     1       0.777  -2.024   3.032  0.00  0.00    +0.019 C 
ATOM      3  C   UNL     1       1.796  -1.383   3.625  0.00  0.00    +0.058 C 
ATOM      4  C   UNL     1       2.560  -0.307   2.912  0.00  0.00    +0.096 C 
ATOM      5  C   UNL     1       1.789   0.208   1.722  0.00  0.00    +0.024 C 
ATOM      6  C   UNL     1       0.769  -0.506   1.200  0.00  0.00    +0.015 C 
ATOM      7  N   UNL     1       0.407  -1.705   1.752  0.00  0.00    -0.320 N 
ATOM      8  C   UNL     1       0.002  -0.004   0.002  0.00  0.00    +0.051 C 
ATOM      9  C   UNL     1      -0.019   1.526   0.010  0.00  0.00    +0.014 C 
ATOM     10  C   UNL     1       1.427   2.032  -0.001  0.00  0.00    +0.080 C 
ATOM     11  C   UNL     1       2.160   1.449   1.177  0.00  0.00    +0.162 C 
ATOM     12  O   UNL     1       3.089   2.061   1.665  0.00  0.00    -0.292 OA
ATOM     13  H   UNL     1      -0.187  -2.415   1.157  0.00  0.00    +0.152 HD
ENDROOT
BRANCH   4  14
ATOM     14  C   UNL     1       3.879  -0.865   2.443  0.00  0.00    -0.035 A 
ATOM     15  C   UNL     1       3.904  -1.918   1.547  0.00  0.00    +0.008 A 
ATOM     16  C   UNL     1       5.111  -2.428   1.111  0.00  0.00    +0.046 A 
ATOM     17  C   UNL     1       6.300  -1.890   1.582  0.00  0.00    +0.121 A 
ATOM     18  C   UNL     1       6.273  -0.837   2.485  0.00  0.00    +0.046 A 
ATOM     19  C   UNL     1       5.063  -0.327   2.913  0.00  0.00    +0.008 A 
BRANCH  17  20
ATOM     20  O   UNL     1       7.490  -2.394   1.160  0.00  0.00    -0.487 OA
BRANCH  20  21
ATOM     21  C   UNL     1       7.441  -3.478   0.230  0.00  0.00    +0.264 C 
BRANCH  21  22
ATOM     22  C   UNL     1       8.845  -3.901  -0.122  0.00  0.00    -0.010 A 
ATOM     23  C   UNL     1       9.493  -3.319  -1.195  0.00  0.00    +0.010 A 
ATOM     24  C   UNL     1      10.781  -3.703  -1.515  0.00  0.00    +0.039 A 
ATOM     25  C   UNL     1      11.419  -4.678  -0.767  0.00  0.00    +0.123 A 
ATOM     26  C   UNL     1      10.766  -5.264   0.305  0.00  0.00    +0.039 A 
ATOM     27  C   UNL     1       9.480  -4.875   0.626  0.00  0.00    +0.010 A 
ATOM     28  F   UNL     1      12.677  -5.058  -1.082  0.00  0.00    -0.205 F 
ENDBRANCH  21  22
ENDBRANCH  20  21
ENDBRANCH  17  20
ENDBRANCH   4  14
BRANCH   3  29
ATOM     29  C   UNL     1       2.161  -1.732   4.965  0.00  0.00    +0.097 C 
ATOM     30  N   UNL     1       2.450  -2.010   6.028  0.00  0.00    -0.191 NA
ENDBRANCH   3  29
TORSDOF 5
