REMARK  Name = ZINC39565766
REMARK  12 active torsions:
REMARK  status: ('A' for Active; 'I' for Inactive)
REMARK    1  A    between atoms: C_1  and  C_2
REMARK    2  A    between atoms: C_4  and  C_15
REMARK    3  A    between atoms: C_5  and  C_14
REMARK    4  A    between atoms: N_6  and  C_7
REMARK    5  A    between atoms: C_16  and  C_17
REMARK    6  A    between atoms: C_16  and  C_19
REMARK    7  A    between atoms: C_19  and  O_21
REMARK    8  A    between atoms: O_21  and  C_22
REMARK    9  A    between atoms: C_22  and  C_24
REMARK   10  A    between atoms: C_22  and  C_27
REMARK   11  A    between atoms: C_24  and  C_25
REMARK   12  A    between atoms: C_24  and  C_26
REMARK                            x       y       z     vdW  Elec       q    Type
REMARK                         _______ _______ _______ _____ _____    ______ ____
ROOT
ATOM      1  C   UNL     1      -0.536  -2.618  -1.948  0.00  0.00    +0.035 C 
ATOM      2  C   UNL     1      -0.485  -2.773  -3.320  0.00  0.00    +0.136 C 
ENDROOT
BRANCH   1   6
ATOM      3  C   UNL     1      -0.206   2.379  -1.283  0.00  0.00    +0.064 C 
ATOM      4  C   UNL     1      -0.489   0.910  -1.099  0.00  0.00    +0.022 A 
ATOM      5  C   UNL     1      -0.184  -0.057  -1.980  0.00  0.00    +0.031 A 
ATOM      6  C   UNL     1      -0.642  -1.321  -1.385  0.00  0.00    -0.003 A 
ATOM      7  C   UNL     1      -1.198  -0.985  -0.161  0.00  0.00    +0.028 A 
ATOM      8  N   UNL     1      -1.092   0.350  -0.007  0.00  0.00    -0.317 N 
ATOM      9  C   UNL     1      -1.808  -1.944   0.827  0.00  0.00    +0.064 C 
BRANCH   8  10
ATOM     10  C   UNL     1      -1.539   1.063   1.114  0.00  0.00    +0.047 A 
ATOM     11  C   UNL     1      -0.943   0.860   2.351  0.00  0.00    +0.027 A 
ATOM     12  C   UNL     1      -1.386   1.564   3.454  0.00  0.00    +0.017 A 
ATOM     13  C   UNL     1      -2.422   2.471   3.326  0.00  0.00    +0.018 A 
ATOM     14  C   UNL     1      -3.018   2.675   2.094  0.00  0.00    +0.017 A 
ATOM     15  C   UNL     1      -2.575   1.979   0.987  0.00  0.00    +0.027 A 
ATOM     16 BR   UNL     1      -3.026   3.433   4.838  0.00  0.00    -0.050 Br
ENDBRANCH   8  10
ENDBRANCH   1   6
BRANCH   2  17
ATOM     17  C   UNL     1      -0.477  -1.622  -4.172  0.00  0.00    +0.106 C 
ATOM     18  N   UNL     1      -0.471  -0.708  -4.847  0.00  0.00    -0.191 NA
ENDBRANCH   2  17
BRANCH   2  19
ATOM     19  C   UNL     1      -0.439  -4.119  -3.905  0.00  0.00    +0.350 C 
ATOM     20  O   UNL     1      -0.445  -5.096  -3.183  0.00  0.00    -0.244 OA
BRANCH  19  21
ATOM     21  O   UNL     1      -0.389  -4.270  -5.244  0.00  0.00    -0.448 OA
BRANCH  21  22
ATOM     22  C   UNL     1      -0.345  -5.608  -5.745  0.00  0.00    +0.265 C 
BRANCH  22  23
ATOM     23  C   UNL     1       0.412  -5.633  -7.047  0.00  0.00    +0.261 C 
ATOM     24  O   UNL     1       0.784  -4.596  -7.552  0.00  0.00    -0.271 OA
ATOM     25  N   UNL     1       0.675  -6.809  -7.651  0.00  0.00    -0.237 N 
ATOM     26  C   UNL     1       1.436  -6.840  -8.763  0.00  0.00    +0.303 C 
ATOM     27  O   UNL     1       1.885  -5.807  -9.222  0.00  0.00    -0.253 OA
ATOM     28  N   UNL     1       1.699  -8.016  -9.367  0.00  0.00    -0.313 N 
ATOM     29  H   UNL     1       0.317  -7.633  -7.285  0.00  0.00    +0.159 HD
ATOM     30  H   UNL     1       1.341  -8.840  -9.001  0.00  0.00    +0.146 HD
ATOM     31  H   UNL     1       2.247  -8.038 -10.168  0.00  0.00    +0.146 HD
ENDBRANCH  22  23
BRANCH  22  32
ATOM     32  C   UNL     1      -1.771  -6.113  -5.974  0.00  0.00    +0.033 C 
ATOM     33  C   UNL     1      -2.488  -6.244  -4.628  0.00  0.00    +0.011 C 
ATOM     34  C   UNL     1      -2.527  -5.122  -6.861  0.00  0.00    +0.011 C 
ENDBRANCH  22  32
ENDBRANCH  21  22
ENDBRANCH  19  21
ENDBRANCH   2  19
TORSDOF 8
