REMARK  Name = ZINC08704601
REMARK  4 active torsions:
REMARK  status: ('A' for Active; 'I' for Inactive)
REMARK    1  A    between atoms: C_2  and  C_3
REMARK    2  A    between atoms: C_3  and  O_4
REMARK    3  A    between atoms: O_4  and  C_5
REMARK    4  A    between atoms: C_8  and  C_11
REMARK                            x       y       z     vdW  Elec       q    Type
REMARK                         _______ _______ _______ _____ _____    ______ ____
ROOT
ATOM      1  C   UNL     1       5.900  -4.992   1.394  0.00  0.00    +0.209 C 
ATOM      2  N   UNL     1       5.518  -6.407   1.563  0.00  0.00    -0.294 N 
ATOM      3  C   UNL     1       5.141  -6.829   2.829  0.00  0.00    +0.159 C 
ATOM      4  N   UNL     1       6.021  -6.532   3.870  0.00  0.00    -0.259 N 
ATOM      5  C   UNL     1       6.704  -5.326   3.742  0.00  0.00    +0.205 A 
ATOM      6  N   UNL     1       6.666  -4.588   2.579  0.00  0.00    -0.288 N 
ATOM      7  C   UNL     1       7.441  -3.482   2.775  0.00  0.00    +0.072 A 
ATOM      8  C   UNL     1       7.774  -2.404   1.963  0.00  0.00    +0.028 A 
ATOM      9  C   UNL     1       8.606  -1.438   2.505  0.00  0.00    +0.002 A 
ATOM     10  C   UNL     1       9.091  -1.529   3.799  0.00  0.00    +0.002 A 
ATOM     11  C   UNL     1       8.774  -2.590   4.627  0.00  0.00    +0.030 A 
ATOM     12  C   UNL     1       7.936  -3.579   4.100  0.00  0.00    +0.091 A 
ATOM     13  N   UNL     1       7.446  -4.722   4.630  0.00  0.00    -0.214 NA
ATOM     14  N   UNL     1       4.024  -7.468   3.035  0.00  0.00    -0.375 N 
ATOM     15  H   UNL     1       5.529  -7.021   0.813  0.00  0.00    +0.151 HD
ATOM     16  H   UNL     1       3.431  -7.661   2.292  0.00  0.00    +0.158 HD
ATOM     17  H   UNL     1       6.148  -7.124   4.628  0.00  0.00    +0.158 HD
ATOM     18  H   UNL     1       3.786  -7.752   3.932  0.00  0.00    +0.158 HD
ENDROOT
BRANCH   1  22
ATOM     19  C   UNL     1       2.392  -2.577   1.044  0.00  0.00    +0.121 A 
ATOM     20  C   UNL     1       3.505  -2.304   0.262  0.00  0.00    +0.046 A 
ATOM     21  C   UNL     1       4.638  -3.086   0.377  0.00  0.00    +0.011 A 
ATOM     22  C   UNL     1       4.663  -4.141   1.271  0.00  0.00    -0.007 A 
ATOM     23  C   UNL     1       3.556  -4.415   2.051  0.00  0.00    +0.011 A 
ATOM     24  C   UNL     1       2.422  -3.632   1.944  0.00  0.00    +0.046 A 
BRANCH  19  25
ATOM     25  O   UNL     1       1.277  -1.809   0.933  0.00  0.00    -0.488 OA
BRANCH  25  26
ATOM     26  C   UNL     1       1.317  -0.740  -0.015  0.00  0.00    +0.256 C 
BRANCH  26  28
ATOM     27  C   UNL     1      -0.016   1.306   0.009  0.00  0.00    +0.007 C 
ATOM     28  C   UNL     1       0.002  -0.004   0.002  0.00  0.00    +0.006 C 
ENDBRANCH  26  28
ENDBRANCH  25  26
ENDBRANCH  19  25
ENDBRANCH   1  22
TORSDOF 4
