REMARK  Name = ZINC41812930
REMARK  8 active torsions:
REMARK  status: ('A' for Active; 'I' for Inactive)
REMARK    1  A    between atoms: C_1  and  C_2
REMARK    2  A    between atoms: C_5  and  C_7
REMARK    3  A    between atoms: C_7  and  C_9
REMARK    4  A    between atoms: C_7  and  N_10
REMARK    5  A    between atoms: N_10  and  C_11
REMARK    6  A    between atoms: C_11  and  C_12
REMARK    7  A    between atoms: C_11  and  C_13
REMARK    8  A    between atoms: C_11  and  C_20
REMARK                            x       y       z     vdW  Elec       q    Type
REMARK                         _______ _______ _______ _____ _____    ______ ____
ROOT
ATOM      1  C   UNL     1       2.632  -2.913  -1.906  0.00  0.00    +0.060 C 
ATOM      2  C   UNL     1       1.844  -4.087  -2.491  0.00  0.00    +0.007 C 
ENDROOT
BRANCH   1   3
ATOM      3  C   UNL     1       3.772  -3.439  -1.073  0.00  0.00    -0.034 A 
ATOM      4  C   UNL     1       3.956  -4.803  -0.935  0.00  0.00    +0.004 A 
ATOM      5  C   UNL     1       5.002  -5.285  -0.171  0.00  0.00    +0.000 A 
ATOM      6  C   UNL     1       5.866  -4.405   0.454  0.00  0.00    +0.001 A 
ATOM      7  C   UNL     1       5.683  -3.042   0.316  0.00  0.00    +0.015 A 
ATOM      8  C   UNL     1       4.639  -2.559  -0.452  0.00  0.00    +0.020 A 
ATOM      9 BR   UNL     1       4.393  -0.694  -0.647  0.00  0.00    -0.050 Br
ENDBRANCH   1   3
BRANCH   1  10
ATOM     10  N   UNL     1       1.745  -2.100  -1.063  0.00  0.00    +0.399 N 
ATOM     11  H   UNL     1       1.037  -1.669  -1.639  0.00  0.00    -0.083 HD
ATOM     12  H   UNL     1       2.284  -1.384  -0.601  0.00  0.00    -0.083 HD
BRANCH  10  13
ATOM     13  C   UNL     1       1.103  -2.957  -0.057  0.00  0.00    -0.005 C 
ATOM     14  C   UNL     1       2.143  -3.397   0.976  0.00  0.00    -0.006 C 
BRANCH  13  19
ATOM     15  C   UNL     1      -1.427   0.813   2.138  0.00  0.00    +0.086 C 
ATOM     16  C   UNL     1      -1.095  -0.549   1.586  0.00  0.00    +0.102 A 
ATOM     17  C   UNL     1      -1.907  -1.621   1.596  0.00  0.00    +0.044 A 
ATOM     18  C   UNL     1      -1.198  -2.678   0.981  0.00  0.00    +0.043 A 
ATOM     19  C   UNL     1       0.005  -2.188   0.631  0.00  0.00    +0.091 A 
ATOM     20  O   UNL     1       0.060  -0.897   0.995  0.00  0.00    -0.467 OA
ENDBRANCH  13  19
ENDBRANCH  10  13
ENDBRANCH   1  10
BRANCH   1  21
ATOM     21  C   UNL     1       3.177  -2.066  -3.026  0.00  0.00    +0.349 C 
ATOM     22  O   UNL     1       2.770  -0.927  -3.183  0.00  0.00    -0.248 OA
ATOM     23  O   UNL     1       4.025  -2.518  -3.776  0.00  0.00    -0.248 OA
ENDBRANCH   1  21
TORSDOF 5
