REMARK  Name = ZINC02927144
REMARK  9 active torsions:
REMARK  status: ('A' for Active; 'I' for Inactive)
REMARK    1  A    between atoms: C_1  and  C_2
REMARK    2  A    between atoms: C_2  and  C_3
REMARK    3  A    between atoms: C_6  and  N_9
REMARK    4  A    between atoms: C_13  and  C_34
REMARK    5  A    between atoms: C_19  and  S_20
REMARK    6  A    between atoms: S_20  and  C_21
REMARK    7  A    between atoms: C_21  and  C_22
REMARK    8  A    between atoms: C_26  and  C_33
REMARK    9  A    between atoms: C_29  and  C_32
REMARK                            x       y       z     vdW  Elec       q    Type
REMARK                         _______ _______ _______ _____ _____    ______ ____
ROOT
ATOM      1  N   UNL     1      -5.359  -2.171   0.071  0.00  0.00    -0.275 N 
ATOM      2  C   UNL     1      -6.025  -2.115  -1.161  0.00  0.00    +0.124 A 
ATOM      3  N   UNL     1      -5.456  -2.383  -2.307  0.00  0.00    -0.384 N 
ATOM      4  C   UNL     1      -7.444  -1.721  -1.021  0.00  0.00    +0.082 A 
ATOM      5  C   UNL     1      -8.383  -1.239  -1.868  0.00  0.00    +0.046 A 
ATOM      6  N   UNL     1      -9.516  -1.057  -1.159  0.00  0.00    -0.279 N 
ATOM      7  N   UNL     1      -9.305  -1.433   0.177  0.00  0.00    -0.153 NA
ATOM      8  H   UNL     1     -10.351  -0.718  -1.518  0.00  0.00    +0.189 HD
ATOM      9  C   UNL     1      -8.080  -1.842   0.314  0.00  0.00    +0.187 A 
ATOM     10  N   UNL     1      -7.352  -2.321   1.364  0.00  0.00    -0.201 NA
ATOM     11  C   UNL     1      -6.055  -2.496   1.210  0.00  0.00    +0.177 A 
ATOM     12  C   UNL     1      -8.196  -0.956  -3.336  0.00  0.00    +0.066 C 
ATOM     13  H   UNL     1      -4.504  -2.562  -2.345  0.00  0.00    +0.157 HD
ATOM     14  H   UNL     1      -5.986  -2.402  -3.119  0.00  0.00    +0.157 HD
ENDROOT
BRANCH   1  18
ATOM     15  C   UNL     1      -1.276  -1.365   0.278  0.00  0.00    -0.047 A 
ATOM     16  C   UNL     1      -2.190  -0.346   0.466  0.00  0.00    +0.005 A 
ATOM     17  C   UNL     1      -3.544  -0.609   0.398  0.00  0.00    +0.026 A 
ATOM     18  C   UNL     1      -3.987  -1.900   0.140  0.00  0.00    +0.050 A 
ATOM     19  C   UNL     1      -3.066  -2.922  -0.049  0.00  0.00    +0.026 A 
ATOM     20  C   UNL     1      -1.713  -2.651   0.015  0.00  0.00    +0.005 A 
BRANCH  15  22
ATOM     21  C   UNL     1       0.716  -0.692  -1.037  0.00  0.00    +0.009 C 
ATOM     22  C   UNL     1       0.201  -1.074   0.352  0.00  0.00    +0.032 C 
ENDBRANCH  15  22
ENDBRANCH   1  18
BRANCH  11  23
ATOM     23  S   UNL     1      -5.150  -3.189   2.554  0.00  0.00    -0.078 S 
BRANCH  23  24
ATOM     24  C   UNL     1      -6.408  -3.469   3.831  0.00  0.00    +0.173 C 
BRANCH  24  25
ATOM     25  C   UNL     1      -5.759  -4.067   5.052  0.00  0.00    +0.226 C 
ATOM     26  O   UNL     1      -4.566  -4.283   5.061  0.00  0.00    -0.275 OA
ATOM     27  N   UNL     1      -6.505  -4.362   6.135  0.00  0.00    -0.300 N 
ATOM     28  C   UNL     1      -7.953  -4.112   6.138  0.00  0.00    +0.111 C 
ATOM     29  C   UNL     1      -8.676  -5.407   6.521  0.00  0.00    +0.004 C 
ATOM     30  C   UNL     1      -8.125  -5.920   7.853  0.00  0.00    +0.009 C 
ATOM     31  C   UNL     1      -6.633  -6.226   7.705  0.00  0.00    +0.004 C 
ATOM     32  C   UNL     1      -5.887  -4.946   7.334  0.00  0.00    +0.111 C 
ATOM     33  C   UNL     1      -6.090  -6.770   9.028  0.00  0.00    +0.009 C 
ATOM     34  C   UNL     1     -10.175  -5.133   6.660  0.00  0.00    +0.009 C 
ENDBRANCH  24  25
ENDBRANCH  23  24
ENDBRANCH  11  23
TORSDOF 5
