REMARK  Name = ZINC11859544
REMARK  7 active torsions:
REMARK  status: ('A' for Active; 'I' for Inactive)
REMARK    1  A    between atoms: C_4  and  C_7
REMARK    2  A    between atoms: C_8  and  C_9
REMARK    3  A    between atoms: N_13  and  C_17
REMARK    4  A    between atoms: C_17  and  C_18
REMARK    5  A    between atoms: N_20  and  C_21
REMARK    6  A    between atoms: C_25  and  S_27
REMARK    7  A    between atoms: S_27  and  N_30
REMARK                            x       y       z     vdW  Elec       q    Type
REMARK                         _______ _______ _______ _____ _____    ______ ____
ROOT
ATOM      1  C   UNL     1       2.456  -2.647  -3.352  0.00  0.00    +0.235 C 
ATOM      2  O   UNL     1       2.870  -3.018  -2.275  0.00  0.00    -0.274 OA
ATOM      3  N   UNL     1       1.132  -2.479  -3.543  0.00  0.00    -0.284 N 
ATOM      4  H   UNL     1       0.795  -2.248  -4.423  0.00  0.00    +0.155 HD
ENDROOT
BRANCH   3   5
ATOM      5  C   UNL     1       0.245  -2.639  -2.473  0.00  0.00    +0.035 A 
ATOM      6  C   UNL     1       0.496  -3.595  -1.498  0.00  0.00    +0.023 A 
ATOM      7  C   UNL     1      -0.382  -3.751  -0.444  0.00  0.00    +0.004 A 
ATOM      8  C   UNL     1      -1.510  -2.954  -0.358  0.00  0.00    +0.028 A 
ATOM      9  C   UNL     1      -1.763  -2.002  -1.327  0.00  0.00    +0.107 A 
ATOM     10  C   UNL     1      -0.891  -1.845  -2.388  0.00  0.00    +0.051 A 
BRANCH   9  11
ATOM     11  S   UNL     1      -3.201  -0.991  -1.214  0.00  0.00    +0.061 S 
ATOM     12  O   UNL     1      -4.141  -1.708  -0.425  0.00  0.00    -0.153 OA
ATOM     13  O   UNL     1      -3.494  -0.551  -2.533  0.00  0.00    -0.153 OA
BRANCH  11  14
ATOM     14  N   UNL     1      -2.786   0.357  -0.346  0.00  0.00    -0.177 NA
ATOM     15  C   UNL     1      -2.282   1.524  -1.010  0.00  0.00    +0.109 C 
ATOM     16  C   UNL     1      -0.749   1.576  -1.228  0.00  0.00    +0.017 C 
ATOM     17  C   UNL     1      -0.014   1.060   0.034  0.00  0.00    +0.001 C 
ATOM     18  C   UNL     1      -0.705   1.528   1.282  0.00  0.00    +0.001 C 
ATOM     19  C   UNL     1      -1.584   0.363   1.721  0.00  0.00    +0.017 C 
ATOM     20  C   UNL     1      -2.930   0.377   1.148  0.00  0.00    +0.109 C 
ENDBRANCH  11  14
ENDBRANCH   9  11
ENDBRANCH   3   5
BRANCH   1  21
ATOM     21  C   UNL     1       3.420  -2.374  -4.477  0.00  0.00    +0.213 C 
BRANCH  21  26
ATOM     22  C   UNL     1       7.787  -1.160  -2.449  0.00  0.00    +0.020 C 
ATOM     23  C   UNL     1       6.853  -1.962  -3.036  0.00  0.00    +0.079 C 
ATOM     24  C   UNL     1       5.484  -1.642  -3.480  0.00  0.00    +0.261 C 
ATOM     25  O   UNL     1       5.015  -0.526  -3.352  0.00  0.00    -0.269 OA
ATOM     26  N   UNL     1       4.789  -2.629  -4.020  0.00  0.00    -0.219 N 
ATOM     27  C   UNL     1       5.313  -3.863  -4.165  0.00  0.00    +0.286 C 
ATOM     28  O   UNL     1       4.794  -4.853  -4.644  0.00  0.00    -0.262 OA
ATOM     29  S   UNL     1       6.954  -3.690  -3.483  0.00  0.00    -0.026 S 
BRANCH  22  31
ATOM     30  C   UNL     1       9.977  -0.886  -1.525  0.00  0.00    +0.008 C 
ATOM     31  C   UNL     1       9.050  -1.682  -2.108  0.00  0.00    +0.002 C 
BRANCH  30  35
ATOM     32  C   UNL     1      13.780  -2.458  -0.499  0.00  0.00    +0.000 A 
ATOM     33  C   UNL     1      13.490  -1.130  -0.236  0.00  0.00    +0.001 A 
ATOM     34  C   UNL     1      12.256  -0.611  -0.567  0.00  0.00    +0.008 A 
ATOM     35  C   UNL     1      11.296  -1.431  -1.169  0.00  0.00    -0.025 A 
ATOM     36  C   UNL     1      11.594  -2.774  -1.426  0.00  0.00    +0.008 A 
ATOM     37  C   UNL     1      12.835  -3.275  -1.095  0.00  0.00    +0.001 A 
ENDBRANCH  30  35
ENDBRANCH  22  31
ENDBRANCH  21  26
ENDBRANCH   1  21
TORSDOF 7
