REMARK  Name = ZINC17305530
REMARK  5 active torsions:
REMARK  status: ('A' for Active; 'I' for Inactive)
REMARK    1  A    between atoms: C_3  and  N_20
REMARK    2  A    between atoms: C_6  and  C_7
REMARK    3  A    between atoms: N_9  and  C_10
REMARK    4  A    between atoms: N_20  and  S_21
REMARK    5  A    between atoms: S_21  and  C_24
REMARK                            x       y       z     vdW  Elec       q    Type
REMARK                         _______ _______ _______ _____ _____    ______ ____
ROOT
ATOM      1  C   UNL     1       1.251  -2.247   2.256  0.00  0.00    +0.015 A 
ATOM      2  C   UNL     1       0.456  -1.655   1.301  0.00  0.00    +0.025 A 
ATOM      3  C   UNL     1       0.842  -0.449   0.723  0.00  0.00    +0.048 A 
ATOM      4  C   UNL     1       2.034   0.160   1.105  0.00  0.00    +0.025 A 
ATOM      5  C   UNL     1       2.830  -0.424   2.063  0.00  0.00    +0.015 A 
ATOM      6  C   UNL     1       2.446  -1.636   2.646  0.00  0.00    +0.037 A 
ENDROOT
BRANCH   6   7
ATOM      7  C   UNL     1       3.300  -2.267   3.670  0.00  0.00    +0.244 C 
ATOM      8  O   UNL     1       2.964  -3.321   4.176  0.00  0.00    -0.270 OA
ATOM      9  N   UNL     1       4.452  -1.677   4.044  0.00  0.00    -0.306 N 
ATOM     10  H   UNL     1       4.720  -0.837   3.641  0.00  0.00    +0.150 HD
BRANCH   9  11
ATOM     11  C   UNL     1       5.300  -2.304   5.061  0.00  0.00    +0.036 C 
ATOM     12  C   UNL     1       5.734  -3.690   4.579  0.00  0.00    +0.029 C 
ATOM     13  C   UNL     1       6.619  -4.345   5.641  0.00  0.00    -0.008 C 
ATOM     14  C   UNL     1       7.856  -3.477   5.880  0.00  0.00    +0.007 C 
ATOM     15  C   UNL     1       7.422  -2.091   6.362  0.00  0.00    -0.008 C 
ATOM     16  C   UNL     1       6.537  -1.436   5.300  0.00  0.00    +0.029 C 
ATOM     17  C   UNL     1       6.636  -2.229   7.667  0.00  0.00    +0.007 C 
ATOM     18  C   UNL     1       5.399  -3.097   7.428  0.00  0.00    -0.008 C 
ATOM     19  C   UNL     1       5.833  -4.482   6.946  0.00  0.00    +0.007 C 
ATOM     20  C   UNL     1       4.513  -2.442   6.367  0.00  0.00    +0.029 C 
ENDBRANCH   9  11
ENDBRANCH   6   7
BRANCH   3  21
ATOM     21  N   UNL     1       0.037   0.147  -0.242  0.00  0.00    -0.216 N 
ATOM     22  H   UNL     1       0.293   0.111  -1.177  0.00  0.00    +0.174 HD
BRANCH  21  23
ATOM     23  S   UNL     1      -1.359   0.918   0.205  0.00  0.00    +0.072 S 
ATOM     24  O   UNL     1      -1.920   1.463  -0.981  0.00  0.00    -0.150 OA
ATOM     25  O   UNL     1      -2.071   0.017   1.041  0.00  0.00    -0.150 OA
BRANCH  23  26
ATOM     26  C   UNL     1      -0.898   2.285   1.217  0.00  0.00    +0.111 A 
ATOM     27  C   UNL     1      -0.902   2.158   2.594  0.00  0.00    +0.032 A 
ATOM     28  C   UNL     1      -0.536   3.227   3.390  0.00  0.00    +0.043 A 
ATOM     29  C   UNL     1      -0.174   4.430   2.809  0.00  0.00    +0.159 A 
ATOM     30  C   UNL     1      -0.174   4.559   1.428  0.00  0.00    +0.160 A 
ATOM     31  C   UNL     1      -0.537   3.485   0.634  0.00  0.00    +0.070 A 
ATOM     32  F   UNL     1       0.179   5.732   0.859  0.00  0.00    -0.202 F 
ATOM     33  F   UNL     1       0.180   5.477   3.586  0.00  0.00    -0.202 F 
ENDBRANCH  23  26
ENDBRANCH  21  23
ENDBRANCH   3  21
TORSDOF 5
