REMARK  Name = ZINC53633353
REMARK  9 active torsions:
REMARK  status: ('A' for Active; 'I' for Inactive)
REMARK    1  A    between atoms: C_1  and  C_2
REMARK    2  A    between atoms: C_5  and  S_8
REMARK    3  A    between atoms: S_8  and  C_9
REMARK    4  A    between atoms: C_9  and  C_10
REMARK    5  A    between atoms: N_12  and  C_26
REMARK    6  A    between atoms: C_16  and  N_17
REMARK    7  A    between atoms: N_17  and  C_18
REMARK    8  A    between atoms: C_18  and  C_19
REMARK    9  A    between atoms: C_19  and  C_20
REMARK                            x       y       z     vdW  Elec       q    Type
REMARK                         _______ _______ _______ _____ _____    ______ ____
ROOT
ATOM      1  C   UNL     1       0.097  -6.482   1.870  0.00  0.00    +0.083 C 
ATOM      2  N   UNL     1       0.108  -7.339   0.897  0.00  0.00    -0.178 NA
ATOM      3  N   UNL     1       0.127  -8.649   1.374  0.00  0.00    -0.158 N 
ATOM      4  C   UNL     1       0.126  -8.651   2.723  0.00  0.00    +0.271 C 
ATOM      5  O   UNL     1       0.140  -9.626   3.455  0.00  0.00    -0.268 OA
ATOM      6  C   UNL     1       0.113  -7.240   3.130  0.00  0.00    +0.076 C 
ATOM      7  C   UNL     1       0.113  -6.735   4.419  0.00  0.00    +0.082 C 
ENDROOT
BRANCH   3   8
ATOM      8  C   UNL     1       0.142  -9.849   0.534  0.00  0.00    +0.249 C 
ATOM      9  N   UNL     1       1.287  -9.834  -0.387  0.00  0.00    -0.315 N 
ATOM     10  C   UNL     1       1.014  -9.823  -1.754  0.00  0.00    +0.043 A 
ATOM     11  C   UNL     1       1.975  -9.808  -2.781  0.00  0.00    +0.024 A 
ATOM     12  C   UNL     1       1.603  -9.798  -4.105  0.00  0.00    +0.002 A 
ATOM     13  C   UNL     1       0.270  -9.803  -4.472  0.00  0.00    +0.001 A 
ATOM     14  C   UNL     1      -0.699  -9.819  -3.482  0.00  0.00    +0.016 A 
ATOM     15  C   UNL     1      -0.325  -9.828  -2.158  0.00  0.00    +0.032 A 
ATOM     16  S   UNL     1      -1.266  -9.848  -0.647  0.00  0.00    -0.080 S 
ATOM     17  H   UNL     1       2.199  -9.831  -0.057  0.00  0.00    +0.149 HD
ENDBRANCH   3   8
BRANCH   7  18
ATOM     18  N   UNL     1       0.129  -7.576   5.473  0.00  0.00    -0.349 N 
ATOM     19  H   UNL     1       0.141  -8.535   5.328  0.00  0.00    +0.146 HD
BRANCH  18  20
ATOM     20  C   UNL     1       0.129  -7.040   6.837  0.00  0.00    +0.107 C 
BRANCH  20  21
ATOM     21  C   UNL     1       0.149  -8.197   7.838  0.00  0.00    +0.073 C 
BRANCH  21  22
ATOM     22  C   UNL     1       0.148  -7.647   9.241  0.00  0.00    +0.035 A 
ATOM     23  H   UNL     1      -1.038  -6.513  11.895  0.00  0.00    +0.166 HD
ATOM     24  C   UNL     1      -0.939  -7.284   9.949  0.00  0.00    +0.105 A 
ATOM     25  N   UNL     1      -0.491  -6.843  11.165  0.00  0.00    -0.352 N 
ATOM     26  C   UNL     1       0.855  -6.952  11.158  0.00  0.00    +0.171 A 
ATOM     27  N   UNL     1       1.230  -7.438  10.006  0.00  0.00    -0.350 N 
ATOM     28  H   UNL     1       2.146  -7.618   9.744  0.00  0.00    +0.166 HD
ENDBRANCH  21  22
ENDBRANCH  20  21
ENDBRANCH  18  20
ENDBRANCH   7  18
BRANCH   1  29
ATOM     29  C   UNL     1       0.077  -4.981   1.735  0.00  0.00    +0.132 C 
BRANCH  29  30
ATOM     30  S   UNL     1       0.062  -4.533  -0.023  0.00  0.00    -0.119 S 
BRANCH  30  35
ATOM     31  C   UNL     1      -0.018   1.503   0.010  0.00  0.00    +0.044 C 
ATOM     32  C   UNL     1       0.002  -0.004   0.002  0.00  0.00    -0.050 A 
ATOM     33  C   UNL     1       0.006  -0.687  -1.200  0.00  0.00    +0.004 A 
ATOM     34  C   UNL     1       0.024  -2.068  -1.212  0.00  0.00    +0.015 A 
ATOM     35  C   UNL     1       0.039  -2.771  -0.013  0.00  0.00    +0.008 A 
ATOM     36  C   UNL     1       0.036  -2.081   1.193  0.00  0.00    +0.015 A 
ATOM     37  C   UNL     1       0.023  -0.700   1.197  0.00  0.00    +0.004 A 
ENDBRANCH  30  35
ENDBRANCH  29  30
ENDBRANCH   1  29
TORSDOF 8
