REMARK  Name = ZINC51052173
REMARK  10 active torsions:
REMARK  status: ('A' for Active; 'I' for Inactive)
REMARK    1  A    between atoms: C_1  and  C_2
REMARK    2  A    between atoms: C_2  and  C_3
REMARK    3  A    between atoms: C_3  and  C_4
REMARK    4  A    between atoms: C_4  and  C_6
REMARK    5  A    between atoms: C_4  and  N_7
REMARK    6  A    between atoms: C_8  and  C_10
REMARK    7  A    between atoms: N_15  and  C_17
REMARK    8  A    between atoms: C_17  and  C_19
REMARK    9  A    between atoms: C_17  and  C_20
REMARK   10  A    between atoms: C_20  and  N_22
REMARK                            x       y       z     vdW  Elec       q    Type
REMARK                         _______ _______ _______ _____ _____    ______ ____
ROOT
ATOM      1  C   UNL     1       3.059  -5.218  -0.714  0.00  0.00    +0.058 C 
ATOM      2  C   UNL     1       4.304  -5.996  -0.282  0.00  0.00    +0.009 C 
ATOM      3  C   UNL     1       5.008  -6.546  -1.526  0.00  0.00    -0.018 C 
ATOM      4  C   UNL     1       4.029  -7.414  -2.318  0.00  0.00    -0.078 C 
ATOM      5  N   UNL     1       2.873  -6.606  -2.725  0.00  0.00    +0.388 N 
ATOM      6  C   UNL     1       2.151  -6.134  -1.537  0.00  0.00    -0.065 C 
ATOM      7  H   UNL     1       3.190  -5.813  -3.261  0.00  0.00    -0.081 HD
ENDROOT
BRANCH   1   9
ATOM      8  N   UNL     1       2.923  -3.915   1.384  0.00  0.00    -0.313 N 
ATOM      9  C   UNL     1       2.316  -4.738   0.506  0.00  0.00    +0.215 C 
ATOM     10  O   UNL     1       1.172  -5.092   0.698  0.00  0.00    -0.276 OA
ATOM     11  H   UNL     1       3.838  -3.631   1.230  0.00  0.00    +0.149 HD
BRANCH   8  12
ATOM     12  C   UNL     1       2.202  -3.448   2.570  0.00  0.00    +0.070 C 
ATOM     13  C   UNL     1       2.325  -4.489   3.685  0.00  0.00    +0.028 C 
BRANCH  12  14
ATOM     14  C   UNL     1       2.800  -2.122   3.042  0.00  0.00    +0.022 C 
BRANCH  14  16
ATOM     15  C   UNL     1       3.164   0.278   2.449  0.00  0.00    +0.004 C 
ATOM     16  C   UNL     1       2.565  -1.048   1.977  0.00  0.00    -0.002 C 
ENDBRANCH  14  16
ENDBRANCH  12  14
ENDBRANCH   8  12
ENDBRANCH   1   9
BRANCH   5  17
ATOM     17  C   UNL     1       1.973  -7.423  -3.551  0.00  0.00    +0.018 C 
ATOM     18  C   UNL     1       0.740  -6.599  -3.929  0.00  0.00    -0.004 C 
BRANCH  17  19
ATOM     19  C   UNL     1       2.693  -7.854  -4.802  0.00  0.00    +0.225 C 
ATOM     20  O   UNL     1       3.599  -7.175  -5.247  0.00  0.00    -0.275 OA
BRANCH  19  21
ATOM     21  N   UNL     1       2.339  -8.974  -5.419  0.00  0.00    -0.158 NA
ATOM     22  C   UNL     1       2.977  -9.356  -6.527  0.00  0.00    +0.163 A 
ATOM     23  N   UNL     1       2.754 -10.458  -7.293  0.00  0.00    -0.342 N 
ATOM     24  C   UNL     1       3.527 -10.659  -8.393  0.00  0.00    +0.092 A 
ATOM     25  C   UNL     1       4.470  -9.747  -8.656  0.00  0.00    +0.066 A 
ATOM     26  S   UNL     1       4.245  -8.588  -7.320  0.00  0.00    -0.061 S 
ATOM     27  H   UNL     1       2.057 -11.090  -7.057  0.00  0.00    +0.167 HD
ENDBRANCH  19  21
ENDBRANCH  17  19
ENDBRANCH   5  17
TORSDOF 7
