REMARK  Name = ZINC07458512
REMARK  10 active torsions:
REMARK  status: ('A' for Active; 'I' for Inactive)
REMARK    1  A    between atoms: C_1  and  C_2
REMARK    2  A    between atoms: C_2  and  C_3
REMARK    3  A    between atoms: C_8  and  N_9
REMARK    4  A    between atoms: C_10  and  C_12
REMARK    5  A    between atoms: C_12  and  N_56
REMARK    6  A    between atoms: C_13  and  N_56
REMARK    7  A    between atoms: C_14  and  C_15
REMARK    8  A    between atoms: C_14  and  N_56
REMARK    9  A    between atoms: N_17  and  C_18
REMARK   10  A    between atoms: C_24  and  C_26
REMARK                            x       y       z     vdW  Elec       q    Type
REMARK                         _______ _______ _______ _____ _____    ______ ____
ROOT
ATOM      1  C   UNL     1      -6.529   4.652  -0.804  0.00  0.00    -0.095 C 
ATOM      2  N   UNL     1      -5.849   3.920  -1.893  0.00  0.00    +0.389 N 
ATOM      3  H   UNL     1      -5.346   4.593  -2.484  0.00  0.00    -0.081 HD
ENDROOT
BRANCH   2   4
ATOM      4  C   UNL     1      -4.879   2.959  -1.328  0.00  0.00    +0.019 C 
BRANCH   4   6
ATOM      5  N   UNL     1      -2.734   3.064  -0.101  0.00  0.00    -0.287 N 
ATOM      6  C   UNL     1      -3.757   3.726  -0.677  0.00  0.00    +0.201 C 
ATOM      7  O   UNL     1      -3.775   4.939  -0.671  0.00  0.00    -0.278 OA
ATOM      8  H   UNL     1      -2.686   2.097  -0.162  0.00  0.00    +0.155 HD
BRANCH   5  14
ATOM      9  C   UNL     1      -1.150   3.224   1.716  0.00  0.00    -0.026 A 
ATOM     10  C   UNL     1      -0.166   3.923   2.387  0.00  0.00    +0.005 A 
ATOM     11  C   UNL     1       0.228   5.169   1.937  0.00  0.00    +0.000 A 
ATOM     12  C   UNL     1      -0.362   5.721   0.815  0.00  0.00    +0.002 A 
ATOM     13  C   UNL     1      -1.347   5.028   0.139  0.00  0.00    +0.023 A 
ATOM     14  C   UNL     1      -1.741   3.772   0.585  0.00  0.00    +0.036 A 
BRANCH   9  16
ATOM     15  C   UNL     1      -0.805   0.783   1.450  0.00  0.00    +0.009 C 
ATOM     16  C   UNL     1      -1.578   1.865   2.206  0.00  0.00    +0.033 C 
ENDBRANCH   9  16
ENDBRANCH   5  14
ENDBRANCH   4   6
ENDBRANCH   2   4
BRANCH   2  17
ATOM     17  C   UNL     1      -6.844   3.206  -2.721  0.00  0.00    +0.019 C 
BRANCH  17  18
ATOM     18  C   UNL     1      -7.680   4.220  -3.458  0.00  0.00    +0.197 C 
ATOM     19  O   UNL     1      -7.479   5.405  -3.297  0.00  0.00    -0.278 OA
ATOM     20  N   UNL     1      -8.652   3.810  -4.297  0.00  0.00    -0.314 N 
ATOM     21  H   UNL     1      -8.813   2.863  -4.426  0.00  0.00    +0.149 HD
BRANCH  20  22
ATOM     22  C   UNL     1      -9.465   4.796  -5.014  0.00  0.00    +0.076 C 
ATOM     23  C   UNL     1     -10.625   5.245  -4.124  0.00  0.00    +0.022 C 
ATOM     24  C   UNL     1     -11.490   4.035  -3.765  0.00  0.00    +0.002 C 
ATOM     25  C   UNL     1     -12.043   3.405  -5.045  0.00  0.00    +0.000 C 
ATOM     26  C   UNL     1     -10.883   2.957  -5.936  0.00  0.00    +0.005 C 
ATOM     27  C   UNL     1     -10.018   4.167  -6.295  0.00  0.00    +0.006 C 
ATOM     28  C   UNL     1      -8.857   3.718  -7.185  0.00  0.00    +0.009 C 
ENDBRANCH  20  22
ENDBRANCH  17  18
ENDBRANCH   2  17
TORSDOF 7
