REMARK  Name = ZINC12445015
REMARK  7 active torsions:
REMARK  status: ('A' for Active; 'I' for Inactive)
REMARK    1  A    between atoms: C_1  and  C_2
REMARK    2  A    between atoms: C_4  and  C_16
REMARK    3  A    between atoms: C_5  and  C_9
REMARK    4  A    between atoms: C_6  and  C_8
REMARK    5  A    between atoms: C_10  and  C_11
REMARK    6  A    between atoms: C_10  and  C_13
REMARK    7  A    between atoms: C_13  and  N_15
REMARK                            x       y       z     vdW  Elec       q    Type
REMARK                         _______ _______ _______ _____ _____    ______ ____
ROOT
ATOM      1  C   UNL     1      -0.511   1.464   0.017  0.00  0.00    +0.044 C 
ATOM      2  C   UNL     1      -0.254  -0.020  -0.015  0.00  0.00    -0.050 A 
ATOM      3  C   UNL     1      -0.283  -0.698  -1.222  0.00  0.00    +0.007 A 
ATOM      4  C   UNL     1      -0.048  -2.055  -1.261  0.00  0.00    -0.043 A 
ATOM      5  C   UNL     1       0.220  -2.749  -0.074  0.00  0.00    -0.018 A 
ATOM      6  C   UNL     1       0.247  -2.056   1.142  0.00  0.00    -0.043 A 
ATOM      7  C   UNL     1       0.016  -0.697   1.162  0.00  0.00    +0.007 A 
ATOM      8  C   UNL     1       0.534  -2.792   2.425  0.00  0.00    +0.044 C 
ATOM      9  C   UNL     1      -0.081  -2.791  -2.576  0.00  0.00    +0.044 C 
ENDROOT
BRANCH   5  10
ATOM     10  C   UNL     1       0.470  -4.195  -0.105  0.00  0.00    +0.029 C 
ATOM     11  C   UNL     1       1.525  -4.690  -0.819  0.00  0.00    +0.080 C 
BRANCH  11  12
ATOM     12  C   UNL     1       2.464  -3.794  -1.424  0.00  0.00    +0.102 C 
ATOM     13  N   UNL     1       3.208  -3.084  -1.905  0.00  0.00    -0.191 NA
ENDBRANCH  11  12
BRANCH  11  14
ATOM     14  C   UNL     1       1.696  -6.144  -0.965  0.00  0.00    +0.087 C 
ATOM     15  S   UNL     1       0.574  -7.215  -0.240  0.00  0.00    -0.034 S 
BRANCH  14  16
ATOM     16  N   UNL     1       2.737  -6.632  -1.668  0.00  0.00    -0.351 N 
ATOM     17  H   UNL     1       3.373  -6.025  -2.078  0.00  0.00    +0.143 HD
ATOM     18  H   UNL     1       2.850  -7.591  -1.764  0.00  0.00    +0.143 HD
ENDBRANCH  14  16
ENDBRANCH  11  14
ENDBRANCH   5  10
TORSDOF 4
