REMARK  Name = ZINC49827896
REMARK  4 active torsions:
REMARK  status: ('A' for Active; 'I' for Inactive)
REMARK    1  A    between atoms: C_1  and  C_2
REMARK    2  A    between atoms: C_2  and  C_5
REMARK    3  A    between atoms: N_3  and  O_4
REMARK    4  A    between atoms: C_8  and  C_10
REMARK                            x       y       z     vdW  Elec       q    Type
REMARK                         _______ _______ _______ _____ _____    ______ ____
ROOT
ATOM      1  C   UNL     1      -0.000  -0.730  -1.271  0.00  0.00    +0.153 A 
ATOM      2  C   UNL     1       0.011  -2.089  -1.418  0.00  0.00    +0.052 A 
ATOM      3  C   UNL     1       0.004  -2.350  -2.794  0.00  0.00    +0.050 A 
ATOM      4  C   UNL     1      -0.012  -1.144  -3.430  0.00  0.00    +0.137 A 
ATOM      5  O   UNL     1      -0.020  -0.172  -2.499  0.00  0.00    -0.453 OA
ENDROOT
BRANCH   4   6
ATOM      6  C   UNL     1      -0.025  -0.938  -4.892  0.00  0.00    +0.036 A 
ATOM      7  C   UNL     1       0.897  -1.605  -5.702  0.00  0.00    +0.013 A 
ATOM      8  C   UNL     1       0.879  -1.409  -7.067  0.00  0.00    +0.001 A 
ATOM      9  C   UNL     1      -0.049  -0.554  -7.635  0.00  0.00    +0.001 A 
ATOM     10  C   UNL     1      -0.965   0.111  -6.840  0.00  0.00    +0.021 A 
ATOM     11  C   UNL     1      -0.963  -0.080  -5.472  0.00  0.00    +0.052 A 
ATOM     12 CL   UNL     1      -2.118   0.749  -4.476  0.00  0.00    -0.083 Cl
ENDBRANCH   4   6
BRANCH   1  14
ATOM     13  C   UNL     1      -0.018   1.503   0.010  0.00  0.00    +0.073 C 
ATOM     14  C   UNL     1       0.002  -0.004   0.002  0.00  0.00    +0.119 C 
ATOM     15  N   UNL     1       0.022  -0.659   1.123  0.00  0.00    -0.089 NA
BRANCH  15  16
ATOM     16  O   UNL     1       0.024   0.042   2.353  0.00  0.00    -0.409 OA
ATOM     17  H   UNL     1       0.039  -0.530   3.132  0.00  0.00    +0.328 HD
ENDBRANCH  15  16
ENDBRANCH   1  14
TORSDOF 3
