REMARK  Name = ZINC21849645
REMARK  11 active torsions:
REMARK  status: ('A' for Active; 'I' for Inactive)
REMARK    1  A    between atoms: C_1  and  C_2
REMARK    2  A    between atoms: C_5  and  S_28
REMARK    3  A    between atoms: C_7  and  N_8
REMARK    4  A    between atoms: C_9  and  C_11
REMARK    5  A    between atoms: C_11  and  C_13
REMARK    6  A    between atoms: C_11  and  N_14
REMARK    7  A    between atoms: N_17  and  C_20
REMARK    8  A    between atoms: C_25  and  C_26
REMARK    9  A    between atoms: S_28  and  N_31
REMARK   10  A    between atoms: N_31  and  C_32
REMARK   11  A    between atoms: N_31  and  C_33
REMARK                            x       y       z     vdW  Elec       q    Type
REMARK                         _______ _______ _______ _____ _____    ______ ____
ROOT
ATOM      1  N   UNL     1      -1.214  -0.690   0.594  0.00  0.00    -0.287 N 
ATOM      2  C   UNL     1      -2.370  -0.065   0.296  0.00  0.00    +0.203 C 
ATOM      3  O   UNL     1      -2.375   1.126   0.067  0.00  0.00    -0.277 OA
ATOM      4  H   UNL     1      -1.197  -1.781   0.733  0.00  0.00    +0.155 HD
ENDROOT
BRANCH   1  11
ATOM      5  C   UNL     1       0.814  -1.690   2.321  0.00  0.00    +0.045 C 
ATOM      6  C   UNL     1       0.982  -0.402   1.558  0.00  0.00    -0.029 A 
ATOM      7  C   UNL     1       2.146   0.331   1.686  0.00  0.00    +0.007 A 
ATOM      8  C   UNL     1       2.301   1.513   0.985  0.00  0.00    +0.029 A 
ATOM      9  C   UNL     1       1.292   1.966   0.155  0.00  0.00    +0.107 A 
ATOM     10  C   UNL     1       0.126   1.238   0.023  0.00  0.00    +0.052 A 
ATOM     11  C   UNL     1      -0.033   0.050   0.725  0.00  0.00    +0.038 A 
BRANCH   9  12
ATOM     12  S   UNL     1       1.494   3.472  -0.736  0.00  0.00    +0.060 S 
ATOM     13  O   UNL     1       2.894   3.685  -0.861  0.00  0.00    -0.153 OA
ATOM     14  O   UNL     1       0.632   3.397  -1.863  0.00  0.00    -0.153 OA
BRANCH  12  15
ATOM     15  N   UNL     1       0.915   4.691   0.224  0.00  0.00    -0.183 NA
ATOM     16  C   UNL     1       1.811   5.376   1.159  0.00  0.00    +0.131 C 
ATOM     17  C   UNL     1      -0.494   5.083   0.139  0.00  0.00    +0.131 C 
ENDBRANCH  12  15
ENDBRANCH   9  12
ENDBRANCH   1  11
BRANCH   2  18
ATOM     18  C   UNL     1      -3.658  -0.847   0.249  0.00  0.00    +0.017 C 
ATOM     19  C   UNL     1      -3.690  -1.701  -1.020  0.00  0.00    -0.004 C 
BRANCH  18  20
ATOM     20  N   UNL     1      -4.795   0.083   0.242  0.00  0.00    +0.389 N 
ATOM     21  C   UNL     1      -6.047  -0.615   0.568  0.00  0.00    -0.059 C 
ATOM     22  C   UNL     1      -7.192   0.400   0.628  0.00  0.00    +0.086 C 
ATOM     23  N   UNL     1      -7.298   1.092  -0.664  0.00  0.00    -0.333 N 
ATOM     24  C   UNL     1      -6.046   1.789  -0.989  0.00  0.00    +0.086 C 
ATOM     25  C   UNL     1      -4.902   0.775  -1.050  0.00  0.00    -0.059 C 
ATOM     26  H   UNL     1      -4.616   0.840   1.020  0.00  0.00    -0.081 HD
BRANCH  23  27
ATOM     27  C   UNL     1      -8.380   1.976  -0.670  0.00  0.00    +0.034 A 
ATOM     28  C   UNL     1      -8.398   3.060   0.198  0.00  0.00    +0.043 A 
ATOM     29  C   UNL     1      -9.468   3.935   0.186  0.00  0.00    +0.043 A 
ATOM     30  C   UNL     1     -10.524   3.726  -0.683  0.00  0.00    +0.020 A 
ATOM     31  C   UNL     1     -10.511   2.645  -1.545  0.00  0.00    +0.006 A 
ATOM     32  C   UNL     1      -9.442   1.769  -1.541  0.00  0.00    -0.029 A 
ATOM     33  C   UNL     1      -9.429   0.591  -2.480  0.00  0.00    +0.045 C 
ATOM     34 CL   UNL     1      -9.489   5.294   1.266  0.00  0.00    -0.083 Cl
ENDBRANCH  23  27
ENDBRANCH  18  20
ENDBRANCH   2  18
TORSDOF 6
