REMARK  Name = ZINC09358096
REMARK  7 active torsions:
REMARK  status: ('A' for Active; 'I' for Inactive)
REMARK    1  A    between atoms: C_1  and  C_2
REMARK    2  A    between atoms: C_2  and  C_3
REMARK    3  A    between atoms: C_3  and  C_4
REMARK    4  A    between atoms: C_11  and  N_33
REMARK    5  A    between atoms: C_12  and  C_31
REMARK    6  A    between atoms: N_20  and  C_23
REMARK    7  A    between atoms: C_23  and  C_24
REMARK                            x       y       z     vdW  Elec       q    Type
REMARK                         _______ _______ _______ _____ _____    ______ ____
ROOT
ATOM      1  C   UNL     1       1.337  -1.573   2.353  0.00  0.00    +0.071 A 
ATOM      2  C   UNL     1       0.416  -2.611   2.333  0.00  0.00    +0.061 A 
ATOM      3  C   UNL     1       1.097  -3.776   2.099  0.00  0.00    +0.223 A 
ATOM      4  N   UNL     1       2.397  -3.468   1.979  0.00  0.00    -0.246 N 
ATOM      5  H   UNL     1       3.119  -4.094   1.810  0.00  0.00    +0.192 HD
ATOM      6  N   UNL     1       2.528  -2.079   2.136  0.00  0.00    -0.176 NA
ATOM      7  O   UNL     1       0.477  -4.980   2.019  0.00  0.00    -0.423 OA
ATOM      8  C   UNL     1      -0.866  -4.993   1.910  0.00  0.00    +0.201 C 
ATOM      9  C   UNL     1      -1.649  -3.910   2.128  0.00  0.00    +0.110 C 
ATOM     10  C   UNL     1      -1.074  -2.577   2.522  0.00  0.00    +0.145 C 
ATOM     11  C   UNL     1      -1.435  -2.222   3.928  0.00  0.00    -0.001 A 
ATOM     12  C   UNL     1      -1.165  -2.844   5.128  0.00  0.00    +0.007 A 
ATOM     13  C   UNL     1      -1.656  -2.237   6.279  0.00  0.00    +0.000 A 
ATOM     14  C   UNL     1      -2.381  -1.065   6.219  0.00  0.00    +0.002 A 
ATOM     15  C   UNL     1      -2.659  -0.434   5.016  0.00  0.00    +0.024 A 
ATOM     16  C   UNL     1      -2.171  -1.033   3.854  0.00  0.00    +0.041 A 
ATOM     17  N   UNL     1      -2.298  -0.627   2.537  0.00  0.00    -0.265 N 
ATOM     18  C   UNL     1      -1.685  -1.475   1.685  0.00  0.00    +0.241 C 
ATOM     19  O   UNL     1      -1.634  -1.374   0.477  0.00  0.00    -0.274 OA
ENDROOT
BRANCH   8  20
ATOM     20  N   UNL     1      -1.476  -6.172   1.556  0.00  0.00    -0.328 N 
ATOM     21  H   UNL     1      -0.941  -6.964   1.393  0.00  0.00    +0.145 HD
ATOM     22  H   UNL     1      -2.441  -6.212   1.470  0.00  0.00    +0.145 HD
ENDBRANCH   8  20
BRANCH   9  23
ATOM     23  C   UNL     1      -3.067  -4.038   1.981  0.00  0.00    +0.102 C 
ATOM     24  N   UNL     1      -4.193  -4.139   1.864  0.00  0.00    -0.191 NA
ENDBRANCH   9  23
BRANCH   1  25
ATOM     25  C   UNL     1       1.022  -0.116   2.577  0.00  0.00    +0.057 C 
BRANCH  25  27
ATOM     26  C   UNL     1       0.751   2.102   1.460  0.00  0.00    +0.004 C 
ATOM     27  C   UNL     1       0.940   0.602   1.229  0.00  0.00    +0.003 C 
ENDBRANCH  25  27
ENDBRANCH   1  25
BRANCH  17  28
ATOM     28  C   UNL     1      -3.013   0.581   2.117  0.00  0.00    +0.150 C 
BRANCH  28  29
ATOM     29  C   UNL     1      -4.390   0.207   1.633  0.00  0.00    -0.011 A 
ATOM     30  C   UNL     1      -4.637   0.084   0.278  0.00  0.00    +0.006 A 
ATOM     31  C   UNL     1      -5.900  -0.259  -0.166  0.00  0.00    +0.000 A 
ATOM     32  C   UNL     1      -6.918  -0.480   0.744  0.00  0.00    +0.001 A 
ATOM     33  C   UNL     1      -6.672  -0.358   2.099  0.00  0.00    +0.020 A 
ATOM     34  C   UNL     1      -5.406  -0.020   2.544  0.00  0.00    +0.046 A 
ATOM     35 CL   UNL     1      -5.095   0.127   4.246  0.00  0.00    -0.083 Cl
ENDBRANCH  28  29
ENDBRANCH  17  28
TORSDOF 6
