REMARK  Name = ZINC46945902
REMARK  12 active torsions:
REMARK  status: ('A' for Active; 'I' for Inactive)
REMARK    1  A    between atoms: C_1  and  C_2
REMARK    2  A    between atoms: C_2  and  N_3
REMARK    3  A    between atoms: N_3  and  C_4
REMARK    4  A    between atoms: N_3  and  C_6
REMARK    5  A    between atoms: C_4  and  C_5
REMARK    6  A    between atoms: C_6  and  C_8
REMARK    7  A    between atoms: C_6  and  C_25
REMARK    8  A    between atoms: C_8  and  N_9
REMARK    9  A    between atoms: C_10  and  C_12
REMARK   10  A    between atoms: C_12  and  N_13
REMARK   11  A    between atoms: N_16  and  C_17
REMARK   12  A    between atoms: C_17  and  C_18
REMARK                            x       y       z     vdW  Elec       q    Type
REMARK                         _______ _______ _______ _____ _____    ______ ____
ROOT
ATOM      1  N   UNL     1      -1.674  -1.508  -0.899  0.00  0.00    -0.315 N 
ATOM      2  C   UNL     1      -3.002  -1.715  -1.006  0.00  0.00    +0.230 C 
ATOM      3  O   UNL     1      -3.439  -2.400  -1.906  0.00  0.00    -0.274 OA
ATOM      4  H   UNL     1      -1.325  -0.960  -0.179  0.00  0.00    +0.149 HD
ENDROOT
BRANCH   1   5
ATOM      5  C   UNL     1      -0.759  -2.111  -1.871  0.00  0.00    +0.093 C 
BRANCH   5   6
ATOM      6  C   UNL     1       0.656  -1.579  -1.637  0.00  0.00    -0.020 C 
BRANCH   6   7
ATOM      7  C   UNL     1       1.660  -2.578  -2.151  0.00  0.00    -0.052 A 
ATOM      8  C   UNL     1       2.359  -3.385  -1.272  0.00  0.00    +0.009 A 
ATOM      9  C   UNL     1       3.255  -4.274  -1.767  0.00  0.00    +0.045 A 
ATOM     10  S   UNL     1       3.130  -3.985  -3.524  0.00  0.00    -0.105 S 
ATOM     11  C   UNL     1       1.888  -2.703  -3.481  0.00  0.00    +0.047 A 
ENDBRANCH   6   7
BRANCH   6  12
ATOM     12  N   UNL     1       0.824  -0.305  -2.350  0.00  0.00    +0.385 N 
ATOM     13  H   UNL     1       0.802  -0.472  -3.345  0.00  0.00    -0.081 HD
BRANCH  12  15
ATOM     14  C   UNL     1      -0.097   1.930  -2.736  0.00  0.00    -0.017 C 
ATOM     15  C   UNL     1      -0.264   0.610  -1.982  0.00  0.00    -0.081 C 
ENDBRANCH  12  15
BRANCH  12  16
ATOM     16  C   UNL     1       2.114   0.295  -1.983  0.00  0.00    -0.081 C 
ATOM     17  C   UNL     1       3.252  -0.549  -2.561  0.00  0.00    -0.017 C 
ENDBRANCH  12  16
ENDBRANCH   6  12
ENDBRANCH   5   6
ENDBRANCH   1   5
BRANCH   2  18
ATOM     18  C   UNL     1      -3.944  -1.094  -0.006  0.00  0.00    +0.201 C 
BRANCH  18  19
ATOM     19  N   UNL     1      -5.321  -1.466  -0.337  0.00  0.00    -0.291 N 
ATOM     20  C   UNL     1      -6.341  -1.023   0.425  0.00  0.00    +0.300 C 
ATOM     21  O   UNL     1      -6.117  -0.314   1.388  0.00  0.00    -0.253 OA
ATOM     22  N   UNL     1      -7.608  -1.364   0.120  0.00  0.00    -0.295 N 
ATOM     23  H   UNL     1      -5.500  -2.031  -1.105  0.00  0.00    +0.151 HD
ATOM     24  H   UNL     1      -7.787  -1.929  -0.647  0.00  0.00    +0.151 HD
BRANCH  22  25
ATOM     25  C   UNL     1      -8.716  -0.882   0.949  0.00  0.00    +0.141 C 
BRANCH  25  26
ATOM     26  C   UNL     1     -10.019  -1.403   0.398  0.00  0.00    -0.030 A 
ATOM     27  C   UNL     1     -10.708  -0.672  -0.551  0.00  0.00    +0.008 A 
ATOM     28  C   UNL     1     -11.903  -1.149  -1.058  0.00  0.00    +0.038 A 
ATOM     29  C   UNL     1     -12.409  -2.359  -0.613  0.00  0.00    +0.123 A 
ATOM     30  C   UNL     1     -11.717  -3.090   0.338  0.00  0.00    +0.038 A 
ATOM     31  C   UNL     1     -10.520  -2.614   0.839  0.00  0.00    +0.008 A 
ATOM     32  F   UNL     1     -13.576  -2.826  -1.107  0.00  0.00    -0.205 F 
ENDBRANCH  25  26
ENDBRANCH  22  25
ENDBRANCH  18  19
ENDBRANCH   2  18
TORSDOF 10
