REMARK  Name = ZINC20463160
REMARK  7 active torsions:
REMARK  status: ('A' for Active; 'I' for Inactive)
REMARK    1  A    between atoms: C_3  and  C_6
REMARK    2  A    between atoms: C_11  and  C_27
REMARK    3  A    between atoms: C_13  and  C_16
REMARK    4  A    between atoms: C_16  and  C_17
REMARK    5  A    between atoms: C_17  and  N_18
REMARK    6  A    between atoms: C_21  and  C_24
REMARK    7  A    between atoms: C_27  and  C_28
REMARK                            x       y       z     vdW  Elec       q    Type
REMARK                         _______ _______ _______ _____ _____    ______ ____
ROOT
ATOM      1  C   UNL     1       0.332  -1.357   2.016  0.00  0.00    +0.253 C 
ATOM      2  O   UNL     1       1.175  -2.130   2.429  0.00  0.00    -0.269 OA
ATOM      3  N   UNL     1       0.686  -0.113   1.635  0.00  0.00    -0.297 N 
ATOM      4  C   UNL     1      -0.308   0.808   1.069  0.00  0.00    +0.108 C 
ATOM      5  C   UNL     1      -0.276   2.118   1.863  0.00  0.00    +0.023 C 
ATOM      6  C   UNL     1       1.152   2.666   1.877  0.00  0.00    +0.006 C 
ATOM      7  C   UNL     1       2.080   1.661   2.565  0.00  0.00    +0.008 C 
ATOM      8  C   UNL     1       2.074   0.347   1.778  0.00  0.00    +0.111 C 
ENDROOT
BRANCH   1  11
ATOM      9  C   UNL     1      -3.105  -2.829   2.472  0.00  0.00    +0.008 A 
ATOM     10  C   UNL     1      -1.789  -2.597   2.788  0.00  0.00    +0.021 A 
ATOM     11  C   UNL     1      -1.070  -1.777   1.932  0.00  0.00    +0.074 A 
ATOM     12  S   UNL     1      -2.293  -1.375   0.697  0.00  0.00    -0.092 S 
ATOM     13  C   UNL     1      -3.628  -2.265   1.353  0.00  0.00    +0.046 A 
ENDBRANCH   1  11
BRANCH   7  14
ATOM     14  C   UNL     1       1.589   1.405   3.991  0.00  0.00    -0.013 C 
BRANCH  14  15
ATOM     15  C   UNL     1       2.582   0.495   4.717  0.00  0.00    -0.079 C 
BRANCH  15  16
ATOM     16  N   UNL     1       2.110   0.249   6.086  0.00  0.00    +0.380 N 
ATOM     17  C   UNL     1       0.680  -0.082   6.098  0.00  0.00    -0.078 C 
ATOM     18  C   UNL     1       0.192  -0.188   7.545  0.00  0.00    -0.006 C 
ATOM     19  C   UNL     1       0.993  -1.273   8.270  0.00  0.00    +0.071 C 
ATOM     20  C   UNL     1       2.483  -0.929   8.201  0.00  0.00    -0.006 C 
ATOM     21  C   UNL     1       2.904  -0.801   6.735  0.00  0.00    -0.078 C 
ATOM     22  H   UNL     1       2.245   1.176   6.663  0.00  0.00    -0.082 HD
BRANCH  19  23
ATOM     23  C   UNL     1       0.558  -1.343   9.712  0.00  0.00    +0.213 C 
ATOM     24  O   UNL     1       1.361  -1.137  10.598  0.00  0.00    -0.276 OA
ATOM     25  N   UNL     1      -0.722  -1.633  10.017  0.00  0.00    -0.329 N 
ATOM     26  H   UNL     1      -1.039  -1.684  11.069  0.00  0.00    +0.145 HD
ATOM     27  H   UNL     1      -1.450  -1.819   9.213  0.00  0.00    +0.145 HD
ENDBRANCH  19  23
ENDBRANCH  15  16
ENDBRANCH  14  15
ENDBRANCH   7  14
BRANCH   6  28
ATOM     28  C   UNL     1       1.182   3.992   2.640  0.00  0.00    +0.129 C 
BRANCH  28  29
ATOM     29  C   UNL     1       0.368   5.018   1.896  0.00  0.00    +0.356 C 
ATOM     30  O   UNL     1      -0.179   4.720   0.861  0.00  0.00    -0.246 OA
ATOM     31  O   UNL     1       0.251   6.264   2.382  0.00  0.00    -0.246 OA
ENDBRANCH  28  29
ENDBRANCH   6  28
TORSDOF 7
