REMARK  Name = ZINC20703981
REMARK  7 active torsions:
REMARK  status: ('A' for Active; 'I' for Inactive)
REMARK    1  A    between atoms: C_4  and  C_7
REMARK    2  A    between atoms: C_7  and  C_8
REMARK    3  A    between atoms: C_8  and  N_9
REMARK    4  A    between atoms: N_9  and  S_10
REMARK    5  A    between atoms: S_10  and  C_13
REMARK    6  A    between atoms: C_26  and  C_29
REMARK    7  A    between atoms: C_33  and  N_35
REMARK                            x       y       z     vdW  Elec       q    Type
REMARK                         _______ _______ _______ _____ _____    ______ ____
ROOT
ATOM      1  C   UNL     1       5.011  -0.382  -0.358  0.00  0.00    +0.106 A 
ATOM      2  C   UNL     1       5.063  -0.020   0.976  0.00  0.00    +0.030 A 
ATOM      3  C   UNL     1       4.538   1.193   1.376  0.00  0.00    +0.025 A 
ATOM      4  C   UNL     1       3.958   2.042   0.442  0.00  0.00    +0.031 A 
ATOM      5  C   UNL     1       3.903   1.683  -0.896  0.00  0.00    -0.018 A 
ATOM      6  C   UNL     1       4.436   0.462  -1.286  0.00  0.00    +0.034 A 
ATOM      7  C   UNL     1       3.288   2.563  -1.937  0.00  0.00    +0.049 C 
ATOM      8  C   UNL     1       1.934   2.048  -2.365  0.00  0.00    -0.023 C 
ATOM      9  C   UNL     1       1.122   3.048  -2.602  0.00  0.00    -0.030 C 
ATOM     10  C   UNL     1       1.826   4.371  -2.370  0.00  0.00    +0.033 C 
ATOM     11  C   UNL     1       3.006   3.990  -1.427  0.00  0.00    +0.029 C 
ATOM     12  C   UNL     1       2.451   3.936  -0.001  0.00  0.00    +0.105 C 
ATOM     13  N   UNL     1       3.427   3.266   0.864  0.00  0.00    -0.336 N 
ATOM     14  H   UNL     1       3.725   3.726   1.817  0.00  0.00    +0.147 HD
ENDROOT
BRANCH  12  15
ATOM     15  C   UNL     1       1.156   3.166   0.007  0.00  0.00    -0.025 A 
ATOM     16  C   UNL     1       1.175   1.783   0.000  0.00  0.00    +0.007 A 
ATOM     17  C   UNL     1      -0.013   1.076   0.008  0.00  0.00    +0.022 A 
ATOM     18  C   UNL     1      -1.220   1.752   0.017  0.00  0.00    +0.071 A 
ATOM     19  C   UNL     1      -1.238   3.135   0.029  0.00  0.00    +0.145 A 
ATOM     20  C   UNL     1      -0.050   3.841   0.022  0.00  0.00    +0.039 A 
ATOM     21 CL   UNL     1      -2.712   0.864   0.019  0.00  0.00    -0.081 Cl
BRANCH  19  22
ATOM     22  N   UNL     1      -2.529   3.858   0.045  0.00  0.00    +0.058 N 
ATOM     23  O   UNL     1      -2.545   5.076   0.052  0.00  0.00    -0.126 OA
ATOM     24  O   UNL     1      -3.576   3.235   0.051  0.00  0.00    -0.126 OA
ENDBRANCH  19  22
ENDBRANCH  12  15
BRANCH   1  25
ATOM     25  S   UNL     1       5.680  -1.928  -0.874  0.00  0.00    +0.058 S 
ATOM     26  O   UNL     1       5.997  -1.793  -2.253  0.00  0.00    -0.153 OA
ATOM     27  O   UNL     1       6.649  -2.295   0.098  0.00  0.00    -0.153 OA
BRANCH  25  28
ATOM     28  N   UNL     1       4.463  -3.046  -0.775  0.00  0.00    -0.190 NA
ATOM     29  H   UNL     1       4.467  -3.773   0.050  0.00  0.00    +0.148 HD
BRANCH  28  30
ATOM     30  C   UNL     1       3.288  -2.929  -1.643  0.00  0.00    +0.110 C 
BRANCH  30  31
ATOM     31  C   UNL     1       2.512  -4.247  -1.631  0.00  0.00    +0.052 C 
BRANCH  31  35
ATOM     32  C   UNL     1      -0.914  -3.905  -4.160  0.00  0.00    +0.000 A 
ATOM     33  C   UNL     1       0.287  -4.349  -4.680  0.00  0.00    +0.000 A 
ATOM     34  C   UNL     1       1.396  -4.460  -3.861  0.00  0.00    +0.003 A 
ATOM     35  C   UNL     1       1.303  -4.126  -2.523  0.00  0.00    -0.046 A 
ATOM     36  C   UNL     1       0.101  -3.687  -2.002  0.00  0.00    +0.003 A 
ATOM     37  C   UNL     1      -1.007  -3.572  -2.821  0.00  0.00    +0.000 A 
ENDBRANCH  31  35
ENDBRANCH  30  31
ENDBRANCH  28  30
ENDBRANCH  25  28
ENDBRANCH   1  25
TORSDOF 7
