REMARK  Name = ZINC41081359
REMARK  6 active torsions:
REMARK  status: ('A' for Active; 'I' for Inactive)
REMARK    1  A    between atoms: C_1  and  O_2
REMARK    2  A    between atoms: O_2  and  C_3
REMARK    3  A    between atoms: C_3  and  C_5
REMARK    4  A    between atoms: C_8  and  O_12
REMARK    5  A    between atoms: C_9  and  N_11
REMARK    6  A    between atoms: O_12  and  C_13
REMARK                            x       y       z     vdW  Elec       q    Type
REMARK                         _______ _______ _______ _____ _____    ______ ____
ROOT
ATOM      1  C   UNL     1       0.709  -2.083   1.125  0.00  0.00    +0.061 A 
ATOM      2  C   UNL     1       0.095  -2.836   0.120  0.00  0.00    +0.019 A 
ATOM      3  C   UNL     1       0.141  -4.213   0.164  0.00  0.00    +0.049 A 
ATOM      4  C   UNL     1       0.796  -4.856   1.205  0.00  0.00    +0.149 A 
ATOM      5  C   UNL     1       1.412  -4.111   2.212  0.00  0.00    +0.068 A 
ATOM      6  C   UNL     1       1.374  -2.729   2.171  0.00  0.00    +0.041 A 
ENDROOT
BRANCH   5   7
ATOM      7  N   UNL     1       2.073  -4.762   3.260  0.00  0.00    -0.355 N 
ATOM      8  H   UNL     1       2.103  -5.732   3.287  0.00  0.00    +0.142 HD
ATOM      9  H   UNL     1       2.501  -4.245   3.960  0.00  0.00    +0.142 HD
ENDBRANCH   5   7
BRANCH   1  10
ATOM     10  C   UNL     1       0.659  -0.610   1.079  0.00  0.00    +0.339 C 
ATOM     11  O   UNL     1       1.198   0.043   1.950  0.00  0.00    -0.245 OA
BRANCH  10  13
ATOM     12  C   UNL     1       0.010   1.440   0.089  0.00  0.00    +0.280 C 
ATOM     13  O   UNL     1       0.018   0.011   0.070  0.00  0.00    -0.464 OA
ENDBRANCH  10  13
ENDBRANCH   1  10
BRANCH   4  14
ATOM     14  O   UNL     1       0.838  -6.213   1.244  0.00  0.00    -0.453 OA
BRANCH  14  15
ATOM     15  C   UNL     1      -0.053  -6.856   2.043  0.00  0.00    +0.142 A 
ATOM     16  C   UNL     1      -1.045  -6.138   2.696  0.00  0.00    +0.047 A 
ATOM     17  C   UNL     1      -1.950  -6.794   3.507  0.00  0.00    +0.004 A 
ATOM     18  C   UNL     1      -1.868  -8.165   3.669  0.00  0.00    +0.001 A 
ATOM     19  C   UNL     1      -0.881  -8.883   3.020  0.00  0.00    +0.018 A 
ATOM     20  C   UNL     1       0.023  -8.232   2.202  0.00  0.00    +0.056 A 
ATOM     21  I   UNL     1       1.514  -9.322   1.211  0.00  0.00    -0.040 I 
ENDBRANCH  14  15
ENDBRANCH   4  14
TORSDOF 5
