REMARK  Name = ZINC32428803
REMARK  5 active torsions:
REMARK  status: ('A' for Active; 'I' for Inactive)
REMARK    1  A    between atoms: C_1  and  C_2
REMARK    2  A    between atoms: C_2  and  C_4
REMARK    3  A    between atoms: C_2  and  N_18
REMARK    4  A    between atoms: C_4  and  N_5
REMARK    5  A    between atoms: C_6  and  C_8
REMARK                            x       y       z     vdW  Elec       q    Type
REMARK                         _______ _______ _______ _____ _____    ______ ____
ROOT
ATOM      1  C   UNL     1       2.680   6.256  -3.951  0.00  0.00    +0.089 C 
ENDROOT
BRANCH   1   2
ATOM      2  N   UNL     1       2.658   6.048  -2.501  0.00  0.00    -0.314 N 
ATOM      3  C   UNL     1       1.510   5.699  -1.887  0.00  0.00    +0.254 C 
ATOM      4  O   UNL     1       0.495   5.556  -2.536  0.00  0.00    -0.272 OA
ATOM      5  H   UNL     1       3.579   6.178  -1.913  0.00  0.00    +0.149 HD
BRANCH   3   6
ATOM      6  C   UNL     1       1.488   5.485  -0.396  0.00  0.00    +0.263 C 
ATOM      7  C   UNL     1       2.260   4.199  -0.015  0.00  0.00    +0.093 C 
ATOM      8  C   UNL     1       1.153   3.163   0.008  0.00  0.00    -0.002 A 
ATOM      9  C   UNL     1       1.175   1.786   0.000  0.00  0.00    +0.007 A 
ATOM     10  C   UNL     1      -0.013   1.076   0.008  0.00  0.00    +0.000 A 
ATOM     11  C   UNL     1      -1.218   1.753   0.017  0.00  0.00    +0.004 A 
ATOM     12  C   UNL     1      -1.242   3.132   0.035  0.00  0.00    +0.046 A 
ATOM     13  C   UNL     1      -0.052   3.855   0.031  0.00  0.00    +0.125 A 
ATOM     14  O   UNL     1       0.153   5.201   0.058  0.00  0.00    -0.479 OA
ENDBRANCH   3   6
ENDBRANCH   1   2
BRANCH   1  16
ATOM     15  C   UNL     1       4.147   6.738  -5.915  0.00  0.00    -0.012 C 
ATOM     16  C   UNL     1       4.094   6.643  -4.389  0.00  0.00    -0.054 C 
BRANCH  16  17
ATOM     17  N   UNL     1       5.046   5.622  -3.929  0.00  0.00    +0.385 N 
ATOM     18  C   UNL     1       6.418   5.961  -4.333  0.00  0.00    -0.073 C 
ATOM     19  C   UNL     1       7.401   5.120  -3.502  0.00  0.00    +0.024 C 
ATOM     20  C   UNL     1       6.913   3.708  -3.513  0.00  0.00    -0.011 A 
ATOM     21  C   UNL     1       5.683   3.275  -3.905  0.00  0.00    -0.054 A 
ATOM     22  C   UNL     1       5.452   1.903  -3.831  0.00  0.00    +0.009 A 
ATOM     23  C   UNL     1       6.427   1.077  -3.384  0.00  0.00    +0.045 A 
ATOM     24  S   UNL     1       7.753   2.223  -3.038  0.00  0.00    -0.101 S 
ATOM     25  C   UNL     1       4.648   4.286  -4.391  0.00  0.00    -0.042 C 
ATOM     26  H   UNL     1       5.027   5.603  -2.830  0.00  0.00    -0.081 HD
ENDBRANCH  16  17
ENDBRANCH   1  16
TORSDOF 4
