REMARK  Name = ZINC08636044
REMARK  9 active torsions:
REMARK  status: ('A' for Active; 'I' for Inactive)
REMARK    1  A    between atoms: C_1  and  O_2
REMARK    2  A    between atoms: O_2  and  C_3
REMARK    3  A    between atoms: C_7  and  C_9
REMARK    4  A    between atoms: C_12  and  N_62
REMARK    5  A    between atoms: C_17  and  C_30
REMARK    6  A    between atoms: C_30  and  O_32
REMARK    7  A    between atoms: O_32  and  C_33
REMARK    8  A    between atoms: C_34  and  C_35
REMARK    9  A    between atoms: C_34  and  N_62
REMARK                            x       y       z     vdW  Elec       q    Type
REMARK                         _______ _______ _______ _____ _____    ______ ____
ROOT
ATOM      1  C   UNL     1      -0.651  -2.570  -1.497  0.00  0.00    -0.037 C 
ATOM      2  C   UNL     1      -0.555  -4.094  -1.612  0.00  0.00    -0.026 C 
ATOM      3  C   UNL     1       0.499  -4.614  -0.631  0.00  0.00    -0.073 C 
ATOM      4  C   UNL     1       0.143  -4.170   0.791  0.00  0.00    -0.025 C 
ATOM      5  C   UNL     1       0.029  -2.646   0.825  0.00  0.00    -0.020 C 
ATOM      6  C   UNL     1      -1.293  -0.775   0.010  0.00  0.00    +0.049 C 
ATOM      7  C   UNL     1      -2.033  -0.519   1.331  0.00  0.00    +0.033 C 
ATOM      8  C   UNL     1      -1.290  -1.232   2.432  0.00  0.00    -0.022 A 
ATOM      9  C   UNL     1      -0.362  -2.191   2.210  0.00  0.00    +0.007 A 
ATOM     10  N   UNL     1       0.130  -2.645   3.403  0.00  0.00    -0.359 N 
ATOM     11  H   UNL     1       0.807  -3.332   3.502  0.00  0.00    +0.166 HD
ATOM     12  C   UNL     1      -0.476  -1.984   4.434  0.00  0.00    +0.047 A 
ATOM     13  C   UNL     1      -1.396  -1.064   3.865  0.00  0.00    +0.003 A 
ATOM     14  C   UNL     1      -2.177  -0.230   4.669  0.00  0.00    +0.010 A 
ATOM     15  C   UNL     1      -2.012  -0.344   6.028  0.00  0.00    +0.001 A 
ATOM     16  C   UNL     1      -1.117  -1.239   6.588  0.00  0.00    +0.002 A 
ATOM     17  C   UNL     1      -0.331  -2.077   5.816  0.00  0.00    +0.026 A 
ATOM     18  N   UNL     1      -1.039  -2.231  -0.111  0.00  0.00    +0.399 N 
ATOM     19  H   UNL     1      -1.901  -2.737   0.124  0.00  0.00    -0.079 HD
ENDROOT
BRANCH   1  24
ATOM     20  C   UNL     1      -2.315  -1.044  -4.527  0.00  0.00    +0.120 A 
ATOM     21  C   UNL     1      -3.655  -1.124  -4.174  0.00  0.00    +0.045 A 
ATOM     22  C   UNL     1      -4.015  -1.671  -2.958  0.00  0.00    +0.004 A 
ATOM     23  C   UNL     1      -3.043  -2.138  -2.093  0.00  0.00    +0.002 A 
ATOM     24  C   UNL     1      -1.708  -2.060  -2.442  0.00  0.00    -0.057 A 
ATOM     25  C   UNL     1      -1.341  -1.508  -3.655  0.00  0.00    +0.047 A 
BRANCH  20  27
ATOM     26  C   UNL     1      -3.013  -0.043  -6.567  0.00  0.00    +0.277 C 
ATOM     27  O   UNL     1      -1.957  -0.505  -5.722  0.00  0.00    -0.495 OA
ENDBRANCH  20  27
ENDBRANCH   1  24
BRANCH   3  28
ATOM     28  N   UNL     1       0.537  -6.088  -0.685  0.00  0.00    +0.388 N 
ATOM     29  H   UNL     1      -0.411  -6.446  -0.847  0.00  0.00    -0.084 HD
ATOM     30  H   UNL     1       0.892  -6.450   0.208  0.00  0.00    -0.084 HD
BRANCH  28  31
ATOM     31  C   UNL     1       1.420  -6.537  -1.778  0.00  0.00    +0.009 C 
BRANCH  31  32
ATOM     32  C   UNL     1       1.440  -8.008  -1.809  0.00  0.00    -0.125 C 
ATOM     33  C   UNL     1       1.456  -9.182  -1.833  0.00  0.00    +0.002 C 
ENDBRANCH  31  32
ENDBRANCH  28  31
ENDBRANCH   3  28
BRANCH   6  34
ATOM     34  C   UNL     1       0.002  -0.004   0.002  0.00  0.00    +0.294 C 
ATOM     35  O   UNL     1       1.031  -0.554  -0.312  0.00  0.00    -0.253 OA
BRANCH  34  36
ATOM     36  O   UNL     1       0.012   1.294   0.344  0.00  0.00    -0.469 OA
ATOM     37  C   UNL     1       1.295   1.974   0.313  0.00  0.00    +0.280 C 
ENDBRANCH  34  36
ENDBRANCH   6  34
TORSDOF 7
