REMARK  Name = ZINC59434264
REMARK  4 active torsions:
REMARK  status: ('A' for Active; 'I' for Inactive)
REMARK    1  A    between atoms: C_1  and  C_2
REMARK    2  A    between atoms: C_7  and  N_8
REMARK    3  A    between atoms: C_9  and  C_11
REMARK    4  A    between atoms: N_13  and  N_14
REMARK                            x       y       z     vdW  Elec       q    Type
REMARK                         _______ _______ _______ _____ _____    ______ ____
ROOT
ATOM      1  C   UNL     1      -0.166   0.045   4.868  0.00  0.00    +0.318 C 
ATOM      2  O   UNL     1      -0.181   1.259   4.873  0.00  0.00    -0.263 OA
ATOM      3  N   UNL     1      -0.247  -0.635   6.029  0.00  0.00    -0.199 N 
ATOM      4  H   UNL     1      -0.234  -1.605   6.025  0.00  0.00    +0.178 HD
ENDROOT
BRANCH   3   5
ATOM      5  N   UNL     1      -0.350   0.060   7.241  0.00  0.00    -0.189 NA
ATOM      6  C   UNL     1      -0.427  -0.586   8.344  0.00  0.00    +0.037 C 
ATOM      7  C   UNL     1      -0.402  -2.096   8.350  0.00  0.00    +0.052 C 
ATOM      8  C   UNL     1       0.983  -2.573   7.942  0.00  0.00    +0.006 C 
ATOM      9  C   UNL     1       1.970  -2.306   9.095  0.00  0.00    +0.000 C 
ATOM     10  C   UNL     1       2.351  -0.830   9.101  0.00  0.00    +0.000 C 
ATOM     11  C   UNL     1       1.832  -0.130  10.371  0.00  0.00    +0.000 C 
ATOM     12  C   UNL     1       0.389  -0.540  10.653  0.00  0.00    +0.006 C 
ATOM     13  C   UNL     1      -0.538   0.146   9.643  0.00  0.00    +0.052 C 
ENDBRANCH   3   5
BRANCH   1  15
ATOM     14  N   UNL     1       0.026  -0.015   2.416  0.00  0.00    -0.277 N 
ATOM     15  C   UNL     1      -0.056  -0.695   3.577  0.00  0.00    +0.305 C 
ATOM     16  O   UNL     1      -0.040  -1.909   3.572  0.00  0.00    -0.265 OA
ATOM     17  H   UNL     1       0.079   0.953   2.423  0.00  0.00    +0.155 HD
BRANCH  14  24
ATOM     18  C   UNL     1      -1.266   1.183   0.182  0.00  0.00    +0.045 C 
ATOM     19  C   UNL     1      -0.585  -0.158   0.085  0.00  0.00    -0.029 A 
ATOM     20  C   UNL     1      -0.571  -0.840  -1.116  0.00  0.00    +0.006 A 
ATOM     21  C   UNL     1       0.053  -2.070  -1.207  0.00  0.00    +0.020 A 
ATOM     22  C   UNL     1       0.665  -2.623  -0.095  0.00  0.00    +0.043 A 
ATOM     23  C   UNL     1       0.655  -1.945   1.109  0.00  0.00    +0.043 A 
ATOM     24  C   UNL     1       0.033  -0.706   1.201  0.00  0.00    +0.038 A 
ATOM     25 CL   UNL     1       1.447  -4.169  -0.214  0.00  0.00    -0.083 Cl
ENDBRANCH  14  24
ENDBRANCH   1  15
TORSDOF 3
