REMARK  Name = ZINC20080000
REMARK  8 active torsions:
REMARK  status: ('A' for Active; 'I' for Inactive)
REMARK    1  A    between atoms: C_1  and  O_2
REMARK    2  A    between atoms: O_2  and  C_3
REMARK    3  A    between atoms: C_10  and  C_15
REMARK    4  A    between atoms: C_15  and  C_17
REMARK    5  A    between atoms: C_15  and  N_29
REMARK    6  A    between atoms: N_21  and  C_22
REMARK    7  A    between atoms: C_22  and  C_23
REMARK    8  A    between atoms: N_32  and  C_35
REMARK                            x       y       z     vdW  Elec       q    Type
REMARK                         _______ _______ _______ _____ _____    ______ ____
ROOT
ATOM      1  C   UNL     1       0.192  -6.043   2.237  0.00  0.00    +0.162 C 
ENDROOT
BRANCH   1   9
ATOM      2  C   UNL     1      -4.665  -9.243   0.091  0.00  0.00    +0.121 A 
ATOM      3  C   UNL     1      -5.570  -8.806   1.056  0.00  0.00    +0.047 A 
ATOM      4  C   UNL     1      -5.175  -7.931   2.043  0.00  0.00    +0.030 A 
ATOM      5  C   UNL     1      -3.862  -7.475   2.083  0.00  0.00    +0.049 A 
ATOM      6  C   UNL     1      -2.944  -7.913   1.110  0.00  0.00    +0.002 A 
ATOM      7  C   UNL     1      -3.357  -8.802   0.112  0.00  0.00    +0.055 A 
ATOM      8  C   UNL     1      -1.565  -7.425   1.164  0.00  0.00    +0.021 A 
ATOM      9  C   UNL     1      -1.220  -6.565   2.154  0.00  0.00    +0.042 A 
ATOM     10  C   UNL     1      -2.176  -6.160   3.109  0.00  0.00    +0.254 A 
ATOM     11  O   UNL     1      -1.843  -5.390   3.994  0.00  0.00    -0.268 OA
ATOM     12  N   UNL     1      -3.446  -6.598   3.065  0.00  0.00    -0.322 N 
ATOM     13  H   UNL     1      -4.159  -6.247   3.826  0.00  0.00    +0.169 HD
BRANCH   2  15
ATOM     14  C   UNL     1      -6.438 -10.524  -0.841  0.00  0.00    +0.277 C 
ATOM     15  O   UNL     1      -5.072 -10.107  -0.876  0.00  0.00    -0.495 OA
ENDBRANCH   2  15
ENDBRANCH   1   9
BRANCH   1  16
ATOM     16  N   UNL     1       0.172  -4.575   2.245  0.00  0.00    -0.292 NA
ATOM     17  C   UNL     1       1.534  -4.030   2.326  0.00  0.00    +0.067 C 
ATOM     18  C   UNL     1       1.466  -2.503   2.412  0.00  0.00    -0.063 C 
ATOM     19  N   UNL     1       0.762  -1.980   1.234  0.00  0.00    +0.383 N 
ATOM     20  C   UNL     1      -0.601  -2.525   1.153  0.00  0.00    -0.063 C 
ATOM     21  C   UNL     1      -0.532  -4.051   1.067  0.00  0.00    +0.067 C 
ATOM     22  H   UNL     1       1.311  -2.304   0.338  0.00  0.00    -0.081 HD
BRANCH  19  23
ATOM     23  C   UNL     1       0.742  -0.511   1.242  0.00  0.00    -0.068 C 
ATOM     24  C   UNL     1       0.002  -0.004   0.002  0.00  0.00    -0.015 C 
ATOM     25  C   UNL     1      -0.019   1.526   0.010  0.00  0.00    -0.002 C 
ATOM     26  C   UNL     1       1.417   2.055  -0.000  0.00  0.00    -0.000 C 
ATOM     27  C   UNL     1       2.157   1.548   1.239  0.00  0.00    -0.002 C 
ATOM     28  C   UNL     1       2.178   0.019   1.231  0.00  0.00    -0.015 C 
ENDBRANCH  19  23
ENDBRANCH   1  16
BRANCH   1  29
ATOM     29  C   UNL     1       0.838  -6.544   3.503  0.00  0.00    +0.173 A 
ATOM     30  N   UNL     1       0.616  -6.110   4.720  0.00  0.00    -0.111 NA
ATOM     31  N   UNL     1       1.357  -6.789   5.526  0.00  0.00    -0.023 NA
ATOM     32  N   UNL     1       2.051  -7.640   4.855  0.00  0.00    -0.044 NA
ATOM     33  N   UNL     1       1.760  -7.520   3.603  0.00  0.00    -0.225 N 
BRANCH  33  34
ATOM     34  C   UNL     1       2.325  -8.300   2.500  0.00  0.00    +0.179 C 
BRANCH  34  35
ATOM     35  C   UNL     1       3.573  -7.594   1.964  0.00  0.00    +0.140 C 
ATOM     36  C   UNL     1       4.109  -8.347   0.727  0.00  0.00    +0.035 C 
ATOM     37  C   UNL     1       5.647  -8.265   0.933  0.00  0.00    +0.031 C 
ATOM     38  C   UNL     1       5.741  -8.339   2.478  0.00  0.00    +0.160 C 
ATOM     39  O   UNL     1       4.603  -7.607   2.959  0.00  0.00    -0.375 OA
ENDBRANCH  34  35
ENDBRANCH  33  34
ENDBRANCH   1  29
TORSDOF 7
