REMARK  Name = ZINC12848670
REMARK  11 active torsions:
REMARK  status: ('A' for Active; 'I' for Inactive)
REMARK    1  A    between atoms: C_1  and  C_2
REMARK    2  A    between atoms: C_2  and  C_3
REMARK    3  A    between atoms: C_3  and  C_4
REMARK    4  A    between atoms: C_4  and  N_5
REMARK    5  A    between atoms: C_6  and  N_27
REMARK    6  A    between atoms: C_7  and  N_14
REMARK    7  A    between atoms: N_14  and  C_15
REMARK    8  A    between atoms: C_15  and  C_16
REMARK    9  A    between atoms: C_16  and  C_17
REMARK   10  A    between atoms: C_16  and  C_18
REMARK   11  A    between atoms: C_19  and  C_21
REMARK                            x       y       z     vdW  Elec       q    Type
REMARK                         _______ _______ _______ _____ _____    ______ ____
ROOT
ATOM      1  N   UNL     1       1.494  -2.200  -2.832  0.00  0.00    -0.280 N 
ATOM      2  C   UNL     1       0.685  -2.542  -3.891  0.00  0.00    +0.127 A 
ATOM      3  C   UNL     1       1.246  -3.139  -5.002  0.00  0.00    +0.140 A 
ATOM      4  C   UNL     1       2.633  -3.380  -5.016  0.00  0.00    +0.277 A 
ATOM      5  O   UNL     1       3.154  -3.906  -5.985  0.00  0.00    -0.266 OA
ATOM      6  N   UNL     1       3.380  -3.026  -3.953  0.00  0.00    -0.273 N 
ATOM      7  H   UNL     1       4.336  -3.191  -3.962  0.00  0.00    +0.173 HD
ATOM      8  C   UNL     1       2.817  -2.440  -2.881  0.00  0.00    +0.331 A 
ATOM      9  O   UNL     1       3.515  -2.126  -1.937  0.00  0.00    -0.246 OA
ENDROOT
BRANCH   3  10
ATOM     10  N   UNL     1       0.443  -3.502  -6.103  0.00  0.00    -0.257 N 
ATOM     11  C   UNL     1       0.339  -4.797  -6.464  0.00  0.00    +0.286 C 
ATOM     12  O   UNL     1       1.001  -5.643  -5.891  0.00  0.00    -0.266 OA
BRANCH  11  13
ATOM     13  C   UNL     1      -0.570  -5.186  -7.546  0.00  0.00    +0.191 A 
ATOM     14  C   UNL     1      -0.853  -6.464  -7.936  0.00  0.00    +0.056 A 
ATOM     15  C   UNL     1      -1.766  -6.369  -8.997  0.00  0.00    +0.058 A 
ATOM     16  C   UNL     1      -1.998  -5.053  -9.207  0.00  0.00    +0.171 A 
ATOM     17  O   UNL     1      -1.279  -4.344  -8.327  0.00  0.00    -0.444 OA
ATOM     18 BR   UNL     1      -3.151  -4.334 -10.522  0.00  0.00    -0.008 Br
ENDBRANCH  11  13
BRANCH  10  19
ATOM     19  C   UNL     1      -0.278  -2.472  -6.855  0.00  0.00    +0.117 C 
BRANCH  19  20
ATOM     20  C   UNL     1       0.542  -2.068  -8.082  0.00  0.00    +0.001 C 
ATOM     21  C   UNL     1      -0.273  -1.105  -8.946  0.00  0.00    +0.009 C 
ATOM     22  C   UNL     1       1.832  -1.381  -7.630  0.00  0.00    +0.009 C 
ENDBRANCH  19  20
ENDBRANCH  10  19
ENDBRANCH   3  10
BRANCH   2  23
ATOM     23  N   UNL     1      -0.666  -2.293  -3.843  0.00  0.00    -0.343 N 
ATOM     24  H   UNL     1      -1.064  -1.934  -3.035  0.00  0.00    +0.144 HD
ATOM     25  H   UNL     1      -1.220  -2.475  -4.618  0.00  0.00    +0.144 HD
ENDBRANCH   2  23
BRANCH   1  26
ATOM     26  C   UNL     1       0.912  -1.565  -1.647  0.00  0.00    +0.128 C 
BRANCH  26  27
ATOM     27  C   UNL     1       0.923  -0.045  -1.825  0.00  0.00    +0.021 C 
BRANCH  27  29
ATOM     28  C   UNL     1       0.327   2.137  -0.766  0.00  0.00    +0.004 C 
ATOM     29  C   UNL     1       0.316   0.618  -0.588  0.00  0.00    -0.002 C 
ENDBRANCH  27  29
ENDBRANCH  26  27
ENDBRANCH   1  26
TORSDOF 8
