REMARK  Name = ZINC39992026
REMARK  9 active torsions:
REMARK  status: ('A' for Active; 'I' for Inactive)
REMARK    1  A    between atoms: C_1  and  C_2
REMARK    2  A    between atoms: C_4  and  C_10
REMARK    3  A    between atoms: C_6  and  C_9
REMARK    4  A    between atoms: C_7  and  O_8
REMARK    5  A    between atoms: C_11  and  C_12
REMARK    6  A    between atoms: C_11  and  C_14
REMARK    7  A    between atoms: N_16  and  C_17
REMARK    8  A    between atoms: C_18  and  C_26
REMARK    9  A    between atoms: N_28  and  C_29
REMARK                            x       y       z     vdW  Elec       q    Type
REMARK                         _______ _______ _______ _____ _____    ______ ____
ROOT
ATOM      1  C   UNL     1       0.266  -4.907  -3.742  0.00  0.00    +0.259 C 
ATOM      2  O   UNL     1       0.252  -4.293  -4.793  0.00  0.00    -0.269 OA
ATOM      3  N   UNL     1       0.386  -6.249  -3.748  0.00  0.00    -0.275 N 
ATOM      4  H   UNL     1       0.398  -6.738  -2.910  0.00  0.00    +0.156 HD
ENDROOT
BRANCH   3   5
ATOM      5  C   UNL     1       0.494  -6.930  -4.949  0.00  0.00    +0.085 A 
ATOM      6  C   UNL     1       0.618  -8.297  -5.146  0.00  0.00    +0.069 A 
ATOM      7  C   UNL     1       0.715  -8.764  -6.518  0.00  0.00    -0.023 A 
ATOM      8  C   UNL     1       0.670  -7.779  -7.441  0.00  0.00    -0.004 A 
ATOM      9  S   UNL     1       0.496  -6.290  -6.502  0.00  0.00    -0.077 S 
ATOM     10  C   UNL     1       0.747  -7.936  -8.928  0.00  0.00    +0.043 C 
ATOM     11  C   UNL     1       1.263  -9.349  -9.238  0.00  0.00    +0.005 C 
ATOM     12  C   UNL     1       0.474 -10.360  -8.401  0.00  0.00    +0.005 C 
ATOM     13  C   UNL     1       0.855 -10.223  -6.925  0.00  0.00    +0.037 C 
BRANCH   6  14
ATOM     14  C   UNL     1       0.651  -9.231  -4.017  0.00  0.00    +0.246 C 
ATOM     15  O   UNL     1      -0.384  -9.709  -3.592  0.00  0.00    -0.270 OA
ATOM     16  N   UNL     1       1.829  -9.562  -3.450  0.00  0.00    -0.314 N 
ATOM     17  C   UNL     1       1.862 -10.496  -2.322  0.00  0.00    +0.128 C 
ATOM     18  H   UNL     1       2.654  -9.181  -3.789  0.00  0.00    +0.149 HD
ENDBRANCH   6  14
ENDBRANCH   3   5
BRANCH   1  20
ATOM     19  C   UNL     1       0.029  -2.811  -2.461  0.00  0.00    +0.032 C 
ATOM     20  C   UNL     1       0.152  -4.184  -2.466  0.00  0.00    +0.114 C 
BRANCH  19  24
ATOM     21  C   UNL     1       1.620  -2.429   2.234  0.00  0.00    +0.047 C 
ATOM     22  C   UNL     1       0.831  -1.891   1.069  0.00  0.00    -0.008 A 
ATOM     23  C   UNL     1       0.800  -2.580  -0.111  0.00  0.00    +0.015 A 
ATOM     24  C   UNL     1       0.065  -2.078  -1.194  0.00  0.00    -0.023 A 
ATOM     25  C   UNL     1      -0.636  -0.871  -1.059  0.00  0.00    +0.015 A 
ATOM     26  C   UNL     1      -0.598  -0.191   0.125  0.00  0.00    -0.008 A 
ATOM     27  C   UNL     1       0.129  -0.697   1.198  0.00  0.00    +0.123 A 
ATOM     28  C   UNL     1      -1.350   1.107   0.272  0.00  0.00    +0.047 C 
BRANCH  27  29
ATOM     29  O   UNL     1       0.159  -0.020   2.373  0.00  0.00    -0.506 OA
ATOM     30  H   UNL     1       0.878   0.624   2.439  0.00  0.00    +0.292 HD
ENDBRANCH  27  29
ENDBRANCH  19  24
BRANCH  20  31
ATOM     31  C   UNL     1       0.169  -4.906  -1.230  0.00  0.00    +0.104 C 
ATOM     32  N   UNL     1       0.182  -5.479  -0.249  0.00  0.00    -0.191 NA
ENDBRANCH  20  31
ENDBRANCH   1  20
TORSDOF 6
