REMARK  Name = ZINC54730257
REMARK  7 active torsions:
REMARK  status: ('A' for Active; 'I' for Inactive)
REMARK    1  A    between atoms: C_1  and  C_2
REMARK    2  A    between atoms: C_5  and  C_7
REMARK    3  A    between atoms: C_7  and  C_9
REMARK    4  A    between atoms: C_7  and  N_10
REMARK    5  A    between atoms: C_16  and  C_19
REMARK    6  A    between atoms: C_19  and  C_21
REMARK    7  A    between atoms: C_19  and  O_27
REMARK                            x       y       z     vdW  Elec       q    Type
REMARK                         _______ _______ _______ _____ _____    ______ ____
ROOT
ATOM      1  N   UNL     1       2.201  -4.137  -0.921  0.00  0.00    -0.292 N 
ATOM      2  C   UNL     1       2.539  -5.311  -1.489  0.00  0.00    +0.303 C 
ATOM      3  O   UNL     1       1.940  -6.326  -1.189  0.00  0.00    -0.253 OA
ATOM      4  N   UNL     1       3.542  -5.361  -2.388  0.00  0.00    -0.286 N 
ATOM      5  C   UNL     1       4.351  -4.168  -2.675  0.00  0.00    +0.109 C 
ATOM      6  C   UNL     1       4.341  -3.917  -4.186  0.00  0.00    +0.025 C 
ATOM      7  C   UNL     1       4.806  -5.181  -4.912  0.00  0.00    +0.025 C 
ATOM      8  C   UNL     1       3.842  -6.330  -4.607  0.00  0.00    +0.025 C 
ATOM      9  C   UNL     1       3.850  -6.611  -3.097  0.00  0.00    +0.109 C 
ATOM     10  H   UNL     1       2.725  -3.341  -1.104  0.00  0.00    +0.151 HD
ENDROOT
BRANCH   1  11
ATOM     11  C   UNL     1       1.042  -4.061  -0.029  0.00  0.00    +0.108 C 
ATOM     12  C   UNL     1       1.462  -4.457   1.388  0.00  0.00    +0.033 C 
BRANCH  11  17
ATOM     13  C   UNL     1      -0.020   1.503   0.006  0.00  0.00    +0.051 C 
ATOM     14  C   UNL     1       0.000  -0.004  -0.002  0.00  0.00    -0.013 A 
ATOM     15  C   UNL     1      -1.041  -0.872  -0.003  0.00  0.00    +0.011 A 
ATOM     16  C   UNL     1      -0.782  -2.229  -0.012  0.00  0.00    +0.013 A 
ATOM     17  C   UNL     1       0.506  -2.653  -0.019  0.00  0.00    +0.010 A 
ATOM     18  S   UNL     1       1.402  -1.109  -0.020  0.00  0.00    -0.097 S 
ENDBRANCH  11  17
ENDBRANCH   1  11
BRANCH   7  19
ATOM     19  C   UNL     1       4.831  -4.923  -6.420  0.00  0.00    +0.148 C 
BRANCH  19  20
ATOM     20  C   UNL     1       5.289  -6.167  -7.135  0.00  0.00    -0.019 A 
ATOM     21  C   UNL     1       6.635  -6.474  -7.196  0.00  0.00    +0.006 A 
ATOM     22  C   UNL     1       7.055  -7.616  -7.852  0.00  0.00    +0.000 A 
ATOM     23  C   UNL     1       6.129  -8.451  -8.448  0.00  0.00    +0.000 A 
ATOM     24  C   UNL     1       4.782  -8.145  -8.387  0.00  0.00    +0.000 A 
ATOM     25  C   UNL     1       4.362  -7.005  -7.727  0.00  0.00    +0.006 A 
ENDBRANCH  19  20
BRANCH  19  26
ATOM     26  O   UNL     1       5.732  -3.851  -6.705  0.00  0.00    -0.387 OA
ATOM     27  H   UNL     1       6.643  -4.019  -6.429  0.00  0.00    +0.210 HD
ENDBRANCH  19  26
ENDBRANCH   7  19
TORSDOF 5
