REMARK  Name = ZINC04394885
REMARK  5 active torsions:
REMARK  status: ('A' for Active; 'I' for Inactive)
REMARK    1  A    between atoms: C_6  and  N_7
REMARK    2  A    between atoms: C_13  and  S_14
REMARK    3  A    between atoms: S_14  and  C_15
REMARK    4  A    between atoms: C_15  and  C_16
REMARK    5  A    between atoms: C_25  and  O_27
REMARK                            x       y       z     vdW  Elec       q    Type
REMARK                         _______ _______ _______ _____ _____    ______ ____
ROOT
ATOM      1  S   UNL     1       0.005  -3.235  -0.259  0.00  0.00    -0.081 S 
ENDROOT
BRANCH   1   8
ATOM      2  N   UNL     1      -1.202  -0.723   0.010  0.00  0.00    -0.239 N 
ATOM      3  C   UNL     1      -2.437  -0.193   0.115  0.00  0.00    +0.349 A 
ATOM      4  O   UNL     1      -2.706   0.991   0.218  0.00  0.00    -0.245 OA
ATOM      5  N   UNL     1      -3.321  -1.211   0.083  0.00  0.00    -0.225 N 
ATOM      6  H   UNL     1      -4.287  -1.135   0.139  0.00  0.00    +0.194 HD
ATOM      7  N   UNL     1      -2.590  -2.400  -0.045  0.00  0.00    -0.144 NA
ATOM      8  C   UNL     1      -1.326  -2.092  -0.093  0.00  0.00    +0.197 A 
BRANCH   2  14
ATOM      9  C   UNL     1       0.778   0.040  -1.148  0.00  0.00    +0.028 A 
ATOM     10  C   UNL     1       1.963   0.749  -1.154  0.00  0.00    +0.022 A 
ATOM     11  C   UNL     1       2.378   1.415  -0.014  0.00  0.00    +0.041 A 
ATOM     12  C   UNL     1       1.606   1.373   1.134  0.00  0.00    +0.022 A 
ATOM     13  C   UNL     1       0.420   0.665   1.144  0.00  0.00    +0.028 A 
ATOM     14  C   UNL     1       0.002  -0.004   0.002  0.00  0.00    +0.053 A 
ATOM     15 CL   UNL     1       3.868   2.305  -0.024  0.00  0.00    -0.084 Cl
ENDBRANCH   2  14
ENDBRANCH   1   8
BRANCH   1  16
ATOM     16  C   UNL     1      -0.813  -4.851  -0.344  0.00  0.00    +0.113 C 
BRANCH  16  17
ATOM     17  C   UNL     1       0.226  -5.933  -0.489  0.00  0.00    -0.020 A 
ATOM     18  C   UNL     1       0.547  -6.737   0.558  0.00  0.00    +0.097 A 
ATOM     19  C   UNL     1       1.523  -7.742   0.398  0.00  0.00    +0.338 A 
ATOM     20  O   UNL     1       1.801  -8.456   1.345  0.00  0.00    -0.245 OA
ATOM     21  O   UNL     1       2.152  -7.933  -0.772  0.00  0.00    -0.422 OA
ATOM     22  C   UNL     1       1.880  -7.170  -1.852  0.00  0.00    +0.143 A 
ATOM     23  C   UNL     1       0.913  -6.151  -1.764  0.00  0.00    +0.022 A 
ATOM     24  C   UNL     1       0.624  -5.360  -2.882  0.00  0.00    +0.015 A 
ATOM     25  C   UNL     1       1.280  -5.584  -4.058  0.00  0.00    +0.046 A 
ATOM     26  C   UNL     1       2.234  -6.595  -4.153  0.00  0.00    +0.120 A 
ATOM     27  C   UNL     1       2.540  -7.380  -3.053  0.00  0.00    +0.092 A 
BRANCH  26  28
ATOM     28  O   UNL     1       2.877  -6.805  -5.330  0.00  0.00    -0.507 OA
ATOM     29  H   UNL     1       3.692  -6.295  -5.430  0.00  0.00    +0.292 HD
ENDBRANCH  26  28
ENDBRANCH  16  17
ENDBRANCH   1  16
TORSDOF 5
