REMARK  Name = ZINC02684693
REMARK  8 active torsions:
REMARK  status: ('A' for Active; 'I' for Inactive)
REMARK    1  A    between atoms: C_6  and  C_7
REMARK    2  A    between atoms: C_7  and  C_9
REMARK    3  A    between atoms: C_9  and  N_10
REMARK    4  A    between atoms: C_13  and  C_16
REMARK    5  A    between atoms: C_19  and  S_21
REMARK    6  A    between atoms: S_21  and  C_22
REMARK    7  A    between atoms: C_22  and  C_23
REMARK    8  A    between atoms: C_23  and  C_25
REMARK                            x       y       z     vdW  Elec       q    Type
REMARK                         _______ _______ _______ _____ _____    ______ ____
ROOT
ATOM      1  C   UNL     1       5.445  -6.660  -0.110  0.00  0.00    +0.249 A 
ATOM      2  N   UNL     1       4.160  -6.402  -0.092  0.00  0.00    -0.106 NA
ATOM      3  N   UNL     1       3.980  -5.128  -0.076  0.00  0.00    -0.101 NA
ATOM      4  C   UNL     1       5.146  -4.522  -0.092  0.00  0.00    +0.278 A 
ATOM      5  O   UNL     1       6.096  -5.475  -0.111  0.00  0.00    -0.411 OA
ENDROOT
BRANCH   1   9
ATOM      6  N   UNL     1       7.222 -10.481  -0.159  0.00  0.00    -0.346 N 
ATOM      7  C   UNL     1       5.905 -10.389  -0.141  0.00  0.00    +0.087 A 
ATOM      8  C   UNL     1       5.282  -9.159  -0.124  0.00  0.00    +0.031 A 
ATOM      9  C   UNL     1       6.068  -7.999  -0.127  0.00  0.00    +0.041 A 
ATOM     10  C   UNL     1       7.461  -8.146  -0.152  0.00  0.00    +0.031 A 
ATOM     11  C   UNL     1       7.999  -9.415  -0.162  0.00  0.00    +0.087 A 
BRANCH   6  12
ATOM     12  C   UNL     1       7.839 -11.809  -0.176  0.00  0.00    +0.200 C 
BRANCH  12  13
ATOM     13  C   UNL     1       8.033 -12.255  -1.603  0.00  0.00    +0.183 C 
ATOM     14  O   UNL     1       7.688 -11.534  -2.515  0.00  0.00    -0.290 OA
BRANCH  13  20
ATOM     15  C   UNL     1       9.042 -14.396  -0.839  0.00  0.00    +0.013 A 
ATOM     16  C   UNL     1       9.604 -15.625  -1.114  0.00  0.00    +0.020 A 
ATOM     17  C   UNL     1       9.780 -16.031  -2.427  0.00  0.00    +0.041 A 
ATOM     18  C   UNL     1       9.388 -15.210  -3.472  0.00  0.00    +0.020 A 
ATOM     19  C   UNL     1       8.820 -13.982  -3.212  0.00  0.00    +0.013 A 
ATOM     20  C   UNL     1       8.639 -13.565  -1.889  0.00  0.00    +0.019 A 
ATOM     21 CL   UNL     1      10.494 -17.577  -2.764  0.00  0.00    -0.084 Cl
ENDBRANCH  13  20
ENDBRANCH  12  13
ENDBRANCH   6  12
ENDBRANCH   1   9
BRANCH   4  22
ATOM     22  S   UNL     1       5.416  -2.781  -0.084  0.00  0.00    -0.058 S 
BRANCH  22  23
ATOM     23  C   UNL     1       3.703  -2.197  -0.058  0.00  0.00    +0.158 C 
BRANCH  23  24
ATOM     24  C   UNL     1       3.685  -0.690  -0.048  0.00  0.00    +0.173 C 
ATOM     25  O   UNL     1       4.729  -0.072  -0.057  0.00  0.00    -0.291 OA
BRANCH  24  26
ATOM     26  C   UNL     1       2.405   0.029  -0.026  0.00  0.00    +0.022 A 
ATOM     27  C   UNL     1       1.199  -0.682  -0.016  0.00  0.00    +0.015 A 
ATOM     28  C   UNL     1       0.002  -0.004   0.002  0.00  0.00    +0.050 A 
ATOM     29  C   UNL     1      -0.017   1.387   0.010  0.00  0.00    +0.162 A 
ATOM     30  C   UNL     1       1.179   2.102   0.002  0.00  0.00    +0.163 A 
ATOM     31  C   UNL     1       2.386   1.429  -0.017  0.00  0.00    +0.060 A 
ATOM     32  O   UNL     1       1.177   3.463   0.018  0.00  0.00    -0.485 OA
ATOM     33  C   UNL     1      -0.051   4.109  -0.338  0.00  0.00    +0.270 C 
ATOM     34  C   UNL     1      -1.195   3.411   0.411  0.00  0.00    +0.270 C 
ATOM     35  O   UNL     1      -1.212   2.034   0.019  0.00  0.00    -0.485 OA
ENDBRANCH  24  26
ENDBRANCH  23  24
ENDBRANCH  22  23
ENDBRANCH   4  22
TORSDOF 8
