REMARK  Name = ZINC27533347
REMARK  7 active torsions:
REMARK  status: ('A' for Active; 'I' for Inactive)
REMARK    1  A    between atoms: C_1  and  C_2
REMARK    2  A    between atoms: C_2  and  O_3
REMARK    3  A    between atoms: O_3  and  C_4
REMARK    4  A    between atoms: C_4  and  C_6
REMARK    5  A    between atoms: C_7  and  N_32
REMARK    6  A    between atoms: C_11  and  C_13
REMARK    7  A    between atoms: C_23  and  C_26
REMARK                            x       y       z     vdW  Elec       q    Type
REMARK                         _______ _______ _______ _____ _____    ______ ____
ROOT
ATOM      1  C   UNL     1      -0.492  -4.763  -1.583  0.00  0.00    +0.105 C 
ATOM      2  C   UNL     1      -0.341  -3.809  -2.538  0.00  0.00    +0.195 C 
ATOM      3  O   UNL     1      -0.583  -2.516  -2.278  0.00  0.00    -0.446 OA
ATOM      4  C   UNL     1      -0.558  -2.071  -1.008  0.00  0.00    +0.115 C 
ATOM      5  C   UNL     1      -0.718  -2.910   0.032  0.00  0.00    +0.045 C 
ATOM      6  C   UNL     1      -0.934  -4.386  -0.197  0.00  0.00    +0.097 C 
ATOM      7  C   UNL     1      -0.689  -2.443   1.361  0.00  0.00    +0.164 C 
ATOM      8  O   UNL     1      -0.862  -3.226   2.273  0.00  0.00    -0.292 OA
ATOM      9  C   UNL     1      -0.448  -0.990   1.671  0.00  0.00    +0.088 C 
ATOM     10  C   UNL     1       0.390  -0.376   0.544  0.00  0.00    +0.034 C 
ATOM     11  C   UNL     1      -0.345  -0.593  -0.780  0.00  0.00    +0.083 C 
ENDROOT
BRANCH   6  12
ATOM     12  C   UNL     1      -2.398  -4.708  -0.036  0.00  0.00    -0.034 A 
ATOM     13  C   UNL     1      -3.333  -4.097  -0.851  0.00  0.00    +0.004 A 
ATOM     14  C   UNL     1      -4.675  -4.395  -0.708  0.00  0.00    +0.002 A 
ATOM     15  C   UNL     1      -5.084  -5.297   0.257  0.00  0.00    +0.020 A 
ATOM     16  C   UNL     1      -4.149  -5.905   1.076  0.00  0.00    +0.041 A 
ATOM     17  C   UNL     1      -2.805  -5.610   0.928  0.00  0.00    +0.024 A 
ATOM     18 CL   UNL     1      -4.662  -7.037   2.288  0.00  0.00    -0.084 Cl
ENDBRANCH   6  12
BRANCH  10  19
ATOM     19  C   UNL     1       0.566   1.100   0.790  0.00  0.00    -0.043 A 
ATOM     20  C   UNL     1      -0.542   1.922   0.883  0.00  0.00    +0.004 A 
ATOM     21  C   UNL     1      -0.381   3.275   1.113  0.00  0.00    +0.000 A 
ATOM     22  C   UNL     1       0.888   3.809   1.241  0.00  0.00    +0.000 A 
ATOM     23  C   UNL     1       1.996   2.987   1.144  0.00  0.00    +0.000 A 
ATOM     24  C   UNL     1       1.835   1.633   0.918  0.00  0.00    +0.004 A 
ENDBRANCH  10  19
BRANCH   2  25
ATOM     25  N   UNL     1       0.068  -4.176  -3.793  0.00  0.00    -0.329 N 
ATOM     26  H   UNL     1       0.194  -3.412  -4.575  0.00  0.00    +0.145 HD
ATOM     27  H   UNL     1       0.270  -5.233  -4.019  0.00  0.00    +0.145 HD
ENDBRANCH   2  25
BRANCH   1  28
ATOM     28  C   UNL     1      -0.235  -6.108  -1.892  0.00  0.00    +0.341 C 
ATOM     29  O   UNL     1       0.014  -6.432  -3.040  0.00  0.00    -0.245 OA
BRANCH  28  30
ATOM     30  O   UNL     1      -0.263  -7.042  -0.917  0.00  0.00    -0.462 OA
BRANCH  30  32
ATOM     31  C   UNL     1      -0.068  -9.299  -0.074  0.00  0.00    +0.048 C 
ATOM     32  C   UNL     1       0.009  -8.391  -1.304  0.00  0.00    +0.229 C 
ENDBRANCH  30  32
ENDBRANCH  28  30
ENDBRANCH   1  28
TORSDOF 6
