REMARK  Name = ZINC21267171
REMARK  9 active torsions:
REMARK  status: ('A' for Active; 'I' for Inactive)
REMARK    1  A    between atoms: C_1  and  C_2
REMARK    2  A    between atoms: C_2  and  O_3
REMARK    3  A    between atoms: O_3  and  C_4
REMARK    4  A    between atoms: C_4  and  C_6
REMARK    5  A    between atoms: C_7  and  N_37
REMARK    6  A    between atoms: C_21  and  C_23
REMARK    7  A    between atoms: C_26  and  O_29
REMARK    8  A    between atoms: O_29  and  C_30
REMARK    9  A    between atoms: C_30  and  C_31
REMARK                            x       y       z     vdW  Elec       q    Type
REMARK                         _______ _______ _______ _____ _____    ______ ____
ROOT
ATOM      1  C   UNL     1       1.547  -4.888   0.158  0.00  0.00    +0.105 C 
ATOM      2  C   UNL     1       2.522  -3.956   0.314  0.00  0.00    +0.195 C 
ATOM      3  O   UNL     1       2.275  -2.646   0.142  0.00  0.00    -0.441 OA
ATOM      4  C   UNL     1       1.009  -2.186   0.192  0.00  0.00    +0.148 A 
ATOM      5  C   UNL     1       0.757  -0.757   0.426  0.00  0.00    +0.041 A 
ATOM      6  C   UNL     1       1.811   0.145   0.595  0.00  0.00    +0.013 A 
ATOM      7  C   UNL     1       1.543   1.468   0.809  0.00  0.00    +0.001 A 
ATOM      8  C   UNL     1       0.233   1.923   0.861  0.00  0.00    +0.002 A 
ATOM      9  C   UNL     1      -0.822   1.050   0.697  0.00  0.00    +0.026 A 
ATOM     10  C   UNL     1      -0.571  -0.300   0.477  0.00  0.00    +0.053 A 
ATOM     11  N   UNL     1      -1.606  -1.197   0.309  0.00  0.00    -0.322 N 
ATOM     12  H   UNL     1      -2.648  -0.849   0.350  0.00  0.00    +0.169 HD
ATOM     13  C   UNL     1      -1.366  -2.501   0.094  0.00  0.00    +0.257 A 
ATOM     14  O   UNL     1      -2.309  -3.260  -0.052  0.00  0.00    -0.267 OA
ATOM     15  C   UNL     1      -0.058  -3.017   0.031  0.00  0.00    +0.072 A 
ATOM     16  C   UNL     1       0.147  -4.488  -0.215  0.00  0.00    +0.100 C 
ENDROOT
BRANCH  16  17
ATOM     17  C   UNL     1      -0.081  -4.787  -1.675  0.00  0.00    -0.035 A 
ATOM     18  C   UNL     1       0.697  -4.168  -2.635  0.00  0.00    +0.008 A 
ATOM     19  C   UNL     1       0.494  -4.444  -3.974  0.00  0.00    +0.046 A 
ATOM     20  C   UNL     1      -0.500  -5.334  -4.354  0.00  0.00    +0.121 A 
ATOM     21  C   UNL     1      -1.284  -5.949  -3.388  0.00  0.00    +0.046 A 
ATOM     22  C   UNL     1      -1.073  -5.674  -2.051  0.00  0.00    +0.008 A 
BRANCH  20  23
ATOM     23  O   UNL     1      -0.707  -5.602  -5.670  0.00  0.00    -0.487 OA
BRANCH  23  24
ATOM     24  C   UNL     1       0.138  -4.933  -6.609  0.00  0.00    +0.264 C 
BRANCH  24  25
ATOM     25  C   UNL     1      -0.235  -5.351  -8.008  0.00  0.00    -0.010 A 
ATOM     26  C   UNL     1       0.381  -6.442  -8.590  0.00  0.00    +0.007 A 
ATOM     27  C   UNL     1       0.035  -6.830  -9.871  0.00  0.00    +0.000 A 
ATOM     28  C   UNL     1      -0.919  -6.119 -10.574  0.00  0.00    +0.000 A 
ATOM     29  C   UNL     1      -1.532  -5.024  -9.994  0.00  0.00    +0.000 A 
ATOM     30  C   UNL     1      -1.190  -4.641  -8.710  0.00  0.00    +0.007 A 
ENDBRANCH  24  25
ENDBRANCH  23  24
ENDBRANCH  20  23
ENDBRANCH  16  17
BRANCH   2  31
ATOM     31  N   UNL     1       3.785  -4.359   0.655  0.00  0.00    -0.329 N 
ATOM     32  H   UNL     1       4.584  -3.614   0.785  0.00  0.00    +0.145 HD
ATOM     33  H   UNL     1       4.001  -5.428   0.800  0.00  0.00    +0.145 HD
ENDBRANCH   2  31
BRANCH   1  34
ATOM     34  C   UNL     1       1.851  -6.244   0.350  0.00  0.00    +0.341 C 
ATOM     35  O   UNL     1       3.003  -6.589   0.541  0.00  0.00    -0.245 OA
BRANCH  34  36
ATOM     36  O   UNL     1       0.865  -7.167   0.321  0.00  0.00    -0.462 OA
BRANCH  36  38
ATOM     37  C   UNL     1       0.005  -9.422   0.457  0.00  0.00    +0.048 C 
ATOM     38  C   UNL     1       1.246  -8.530   0.523  0.00  0.00    +0.229 C 
ENDBRANCH  36  38
ENDBRANCH  34  36
ENDBRANCH   1  34
TORSDOF 8
