REMARK  Name = ZINC22617140
REMARK  8 active torsions:
REMARK  status: ('A' for Active; 'I' for Inactive)
REMARK    1  A    between atoms: N_10  and  C_11
REMARK    2  A    between atoms: C_11  and  C_12
REMARK    3  A    between atoms: N_14  and  N_15
REMARK    4  A    between atoms: C_16  and  C_18
REMARK    5  A    between atoms: C_22  and  S_24
REMARK    6  A    between atoms: S_24  and  N_27
REMARK    7  A    between atoms: N_27  and  C_28
REMARK    8  A    between atoms: C_28  and  C_29
REMARK                            x       y       z     vdW  Elec       q    Type
REMARK                         _______ _______ _______ _____ _____    ______ ____
ROOT
ATOM      1  N   UNL     1       1.105   6.014  -0.193  0.00  0.00    -0.230 N 
ATOM      2  C   UNL     1      -0.048   5.317  -0.196  0.00  0.00    +0.260 C 
ATOM      3  O   UNL     1      -1.111   5.901  -0.105  0.00  0.00    -0.269 OA
ATOM      4  H   UNL     1       2.067   5.486  -0.274  0.00  0.00    +0.173 HD
ENDROOT
BRANCH   2   5
ATOM      5  C   UNL     1      -0.021   3.844  -0.308  0.00  0.00    +0.040 A 
ATOM      6  C   UNL     1       1.197   3.171  -0.412  0.00  0.00    +0.013 A 
ATOM      7  C   UNL     1       1.215   1.795  -0.517  0.00  0.00    +0.003 A 
ATOM      8  C   UNL     1       0.029   1.083  -0.519  0.00  0.00    +0.028 A 
ATOM      9  C   UNL     1      -1.182   1.744  -0.422  0.00  0.00    +0.106 A 
ATOM     10  C   UNL     1      -1.214   3.119  -0.311  0.00  0.00    +0.041 A 
BRANCH   9  11
ATOM     11  S   UNL     1      -2.687   0.828  -0.433  0.00  0.00    +0.059 S 
ATOM     12  O   UNL     1      -3.701   1.718  -0.879  0.00  0.00    -0.153 OA
ATOM     13  O   UNL     1      -2.410  -0.401  -1.090  0.00  0.00    -0.153 OA
BRANCH  11  14
ATOM     14  N   UNL     1      -3.044   0.454   1.140  0.00  0.00    -0.183 NA
ATOM     15  H   UNL     1      -2.886  -0.575   1.497  0.00  0.00    +0.148 HD
BRANCH  14  16
ATOM     16  C   UNL     1      -3.355   1.521   2.095  0.00  0.00    +0.180 C 
BRANCH  16  17
ATOM     17  C   UNL     1      -3.991   0.925   3.324  0.00  0.00    +0.120 A 
ATOM     18  C   UNL     1      -3.338   0.496   4.419  0.00  0.00    +0.046 A 
ATOM     19  C   UNL     1      -4.317   0.018   5.319  0.00  0.00    +0.041 A 
ATOM     20  C   UNL     1      -5.511   0.183   4.721  0.00  0.00    +0.195 A 
ATOM     21  O   UNL     1      -5.308   0.739   3.515  0.00  0.00    -0.466 OA
ENDBRANCH  16  17
ENDBRANCH  14  16
ENDBRANCH  11  14
ENDBRANCH   9  11
ENDBRANCH   2   5
BRANCH   1  24
ATOM     22  C   UNL     1       2.234   8.108  -0.083  0.00  0.00    +0.246 C 
ATOM     23  O   UNL     1       3.294   7.526  -0.173  0.00  0.00    -0.273 OA
ATOM     24  N   UNL     1       1.080   7.411  -0.086  0.00  0.00    -0.233 N 
ATOM     25  H   UNL     1       0.118   7.939  -0.004  0.00  0.00    +0.173 HD
BRANCH  22  26
ATOM     26  C   UNL     1       2.206   9.610   0.033  0.00  0.00    +0.202 C 
BRANCH  26  36
ATOM     27  C   UNL     1       5.452   8.364   3.429  0.00  0.00    +0.000 A 
ATOM     28  C   UNL     1       4.099   8.648   3.453  0.00  0.00    +0.002 A 
ATOM     29  C   UNL     1       3.498   9.226   2.356  0.00  0.00    +0.023 A 
ATOM     30  C   UNL     1       4.246   9.528   1.217  0.00  0.00    +0.033 A 
ATOM     31  C   UNL     1       5.598   9.237   1.196  0.00  0.00    -0.026 A 
ATOM     32  C   UNL     1       6.197   8.657   2.304  0.00  0.00    +0.005 A 
ATOM     33  C   UNL     1       6.461   9.530  -0.006  0.00  0.00    +0.038 C 
ATOM     34  C   UNL     1       5.728  10.493  -0.942  0.00  0.00    +0.024 C 
ATOM     35  C   UNL     1       4.296   9.976  -1.126  0.00  0.00    +0.106 C 
ATOM     36  N   UNL     1       3.580  10.118   0.143  0.00  0.00    -0.321 N 
ENDBRANCH  26  36
ENDBRANCH  22  26
ENDBRANCH   1  24
TORSDOF 8
