REMARK  Name = ZINC09409752
REMARK  13 active torsions:
REMARK  status: ('A' for Active; 'I' for Inactive)
REMARK    1  A    between atoms: C_1  and  C_2
REMARK    2  A    between atoms: C_6  and  O_29
REMARK    3  A    between atoms: C_7  and  C_28
REMARK    4  A    between atoms: C_12  and  C_13
REMARK    5  A    between atoms: C_13  and  C_14
REMARK    6  A    between atoms: C_14  and  C_15
REMARK    7  A    between atoms: N_17  and  C_18
REMARK    8  A    between atoms: C_21  and  N_24
REMARK    9  A    between atoms: C_25  and  C_27
REMARK   10  A    between atoms: O_29  and  C_30
REMARK   11  A    between atoms: C_30  and  C_31
REMARK   12  A    between atoms: C_32  and  C_33
REMARK   13  A    between atoms: C_32  and  C_34
REMARK                            x       y       z     vdW  Elec       q    Type
REMARK                         _______ _______ _______ _____ _____    ______ ____
ROOT
ATOM      1  C   UNL     1      -6.136   7.832  -0.448  0.00  0.00    +0.045 C 
ATOM      2  C   UNL     1      -6.462   8.396   0.911  0.00  0.00    -0.030 A 
ATOM      3  C   UNL     1      -7.649   9.230   1.114  0.00  0.00    +0.021 A 
ATOM      4  C   UNL     1      -8.512   9.525   0.052  0.00  0.00    +0.015 A 
ATOM      5  C   UNL     1      -9.608  10.309   0.268  0.00  0.00    +0.047 A 
ATOM      6  C   UNL     1      -9.874  10.818   1.538  0.00  0.00    +0.127 A 
ATOM      7  C   UNL     1      -9.031  10.536   2.599  0.00  0.00    +0.034 A 
ATOM      8  C   UNL     1      -7.912   9.740   2.398  0.00  0.00    +0.146 A 
ATOM      9  O   UNL     1      -7.077   9.453   3.420  0.00  0.00    -0.422 OA
ATOM     10  C   UNL     1      -5.991   8.686   3.242  0.00  0.00    +0.341 A 
ATOM     11  O   UNL     1      -5.266   8.453   4.193  0.00  0.00    -0.245 OA
ATOM     12  C   UNL     1      -5.667   8.142   1.982  0.00  0.00    +0.041 A 
ATOM     13  C   UNL     1      -9.328  11.090   3.969  0.00  0.00    +0.051 C 
ENDROOT
BRANCH  12  14
ATOM     14  C   UNL     1      -4.437   7.285   1.823  0.00  0.00    +0.052 C 
BRANCH  14  15
ATOM     15  C   UNL     1      -4.800   5.820   2.076  0.00  0.00    +0.101 C 
BRANCH  15  16
ATOM     16  C   UNL     1      -3.571   4.963   1.917  0.00  0.00    +0.218 C 
ATOM     17  O   UNL     1      -2.509   5.473   1.630  0.00  0.00    -0.275 OA
ATOM     18  N   UNL     1      -3.652   3.629   2.095  0.00  0.00    -0.285 N 
ATOM     19  H   UNL     1      -4.485   3.229   2.388  0.00  0.00    +0.155 HD
BRANCH  18  20
ATOM     20  C   UNL     1      -2.533   2.822   1.854  0.00  0.00    +0.033 A 
ATOM     21  C   UNL     1      -2.696   1.550   1.321  0.00  0.00    +0.025 A 
ATOM     22  C   UNL     1      -1.593   0.754   1.083  0.00  0.00    +0.025 A 
ATOM     23  C   UNL     1      -0.321   1.226   1.378  0.00  0.00    +0.033 A 
ATOM     24  C   UNL     1      -0.158   2.495   1.917  0.00  0.00    +0.025 A 
ATOM     25  C   UNL     1      -1.260   3.293   2.149  0.00  0.00    +0.025 A 
BRANCH  23  26
ATOM     26  N   UNL     1       0.799   0.419   1.137  0.00  0.00    -0.286 N 
ATOM     27  C   UNL     1       0.817  -0.406   0.071  0.00  0.00    +0.214 C 
ATOM     28  O   UNL     1      -0.164  -0.507  -0.635  0.00  0.00    -0.276 OA
ATOM     29  C   UNL     1       2.057  -1.203  -0.243  0.00  0.00    +0.109 C 
ATOM     30  H   UNL     1       1.558   0.451   1.739  0.00  0.00    +0.155 HD
ENDBRANCH  23  26
ENDBRANCH  18  20
ENDBRANCH  15  16
ENDBRANCH  14  15
ENDBRANCH  12  14
BRANCH   6  31
ATOM     31  O   UNL     1     -10.968  11.596   1.736  0.00  0.00    -0.488 OA
BRANCH  31  32
ATOM     32  C   UNL     1     -11.798  11.850   0.600  0.00  0.00    +0.256 C 
BRANCH  32  33
ATOM     33  C   UNL     1     -12.955  12.725   1.009  0.00  0.00    +0.012 C 
ATOM     34  C   UNL     1     -13.304  13.742   0.260  0.00  0.00    -0.076 C 
ATOM     35  C   UNL     1     -12.625  13.969  -1.066  0.00  0.00    +0.038 C 
ATOM     36  C   UNL     1     -14.385  14.684   0.724  0.00  0.00    +0.038 C 
ENDBRANCH  32  33
ENDBRANCH  31  32
ENDBRANCH   6  31
TORSDOF 8
