REMARK  Name = ZINC39693437
REMARK  10 active torsions:
REMARK  status: ('A' for Active; 'I' for Inactive)
REMARK    1  A    between atoms: C_1  and  C_2
REMARK    2  A    between atoms: C_2  and  C_3
REMARK    3  A    between atoms: C_2  and  C_4
REMARK    4  A    between atoms: C_2  and  O_5
REMARK    5  A    between atoms: O_5  and  C_6
REMARK    6  A    between atoms: N_8  and  C_9
REMARK    7  A    between atoms: C_9  and  C_10
REMARK    8  A    between atoms: C_10  and  N_11
REMARK    9  A    between atoms: C_12  and  C_14
REMARK   10  A    between atoms: C_25  and  C_27
REMARK                            x       y       z     vdW  Elec       q    Type
REMARK                         _______ _______ _______ _____ _____    ______ ____
ROOT
ATOM      1  C   UNL     1       8.691   0.109  -5.214  0.00  0.00    +0.100 C 
ATOM      2  C   UNL     1       9.271  -0.582  -3.960  0.00  0.00    +0.121 C 
ATOM      3  N   UNL     1       9.787  -1.881  -4.454  0.00  0.00    -0.296 N 
ATOM      4  C   UNL     1      10.394  -1.561  -5.768  0.00  0.00    +0.115 C 
ATOM      5  C   UNL     1       9.433  -0.533  -6.398  0.00  0.00    -0.004 C 
ATOM      6  C   UNL     1      10.220   0.524  -7.166  0.00  0.00    -0.010 C 
ATOM      7  C   UNL     1      10.902  -0.128  -8.372  0.00  0.00    -0.082 C 
ATOM      8  N   UNL     1       9.887  -0.737  -9.240  0.00  0.00    +0.379 N 
ATOM      9  C   UNL     1       9.198  -1.816  -8.523  0.00  0.00    -0.082 C 
ATOM     10  C   UNL     1       8.444  -1.235  -7.324  0.00  0.00    -0.010 C 
ATOM     11  C   UNL     1       9.721  -3.081  -3.844  0.00  0.00    +0.247 C 
ATOM     12  O   UNL     1       9.078  -3.208  -2.821  0.00  0.00    -0.270 OA
ATOM     13  H   UNL     1       9.216  -0.035  -9.514  0.00  0.00    -0.086 HD
ATOM     14  H   UNL     1      10.332  -1.112 -10.064  0.00  0.00    -0.086 HD
ENDROOT
BRANCH  11  15
ATOM     15  C   UNL     1      10.430  -4.243  -4.422  0.00  0.00    +0.037 A 
ATOM     16  C   UNL     1      11.491  -4.048  -5.307  0.00  0.00    +0.013 A 
ATOM     17  C   UNL     1      12.148  -5.137  -5.842  0.00  0.00    +0.001 A 
ATOM     18  C   UNL     1      11.757  -6.420  -5.502  0.00  0.00    +0.000 A 
ATOM     19  C   UNL     1      10.706  -6.620  -4.625  0.00  0.00    +0.001 A 
ATOM     20  C   UNL     1      10.044  -5.540  -4.079  0.00  0.00    +0.013 A 
ENDBRANCH  11  15
BRANCH   1  22
ATOM     21  N   UNL     1       6.425   0.697  -6.013  0.00  0.00    -0.314 N 
ATOM     22  C   UNL     1       7.211  -0.151  -5.319  0.00  0.00    +0.218 C 
ATOM     23  O   UNL     1       6.726  -1.123  -4.780  0.00  0.00    -0.275 OA
ATOM     24  H   UNL     1       6.812   1.474  -6.444  0.00  0.00    +0.149 HD
BRANCH  21  25
ATOM     25  C   UNL     1       4.986   0.444  -6.115  0.00  0.00    +0.123 C 
BRANCH  25  26
ATOM     26  C   UNL     1       4.332   1.547  -6.949  0.00  0.00    +0.126 C 
BRANCH  26  29
ATOM     27  C   UNL     1       2.107   2.141  -7.745  0.00  0.00    +0.401 C 
ATOM     28  O   UNL     1       2.592   3.115  -8.285  0.00  0.00    -0.226 OA
ATOM     29  N   UNL     1       2.892   1.294  -7.051  0.00  0.00    -0.280 N 
ATOM     30  H   UNL     1       2.505   0.516  -6.620  0.00  0.00    +0.152 HD
BRANCH  27  31
ATOM     31  O   UNL     1       0.784   1.909  -7.838  0.00  0.00    -0.445 OA
BRANCH  31  33
ATOM     32  C   UNL     1       0.524   2.894 -10.030  0.00  0.00    +0.055 C 
ATOM     33  C   UNL     1       0.012   2.848  -8.589  0.00  0.00    +0.107 C 
ATOM     34  C   UNL     1       0.141   4.236  -7.957  0.00  0.00    +0.055 C 
ATOM     35  C   UNL     1      -1.457   2.421  -8.584  0.00  0.00    +0.055 C 
ENDBRANCH  31  33
ENDBRANCH  27  31
ENDBRANCH  26  29
ENDBRANCH  25  26
ENDBRANCH  21  25
ENDBRANCH   1  22
TORSDOF 7
