REMARK  Name = ZINC21084508
REMARK  6 active torsions:
REMARK  status: ('A' for Active; 'I' for Inactive)
REMARK    1  A    between atoms: C_10  and  N_11
REMARK    2  A    between atoms: C_12  and  C_14
REMARK    3  A    between atoms: C_14  and  C_15
REMARK    4  A    between atoms: C_15  and  S_16
REMARK    5  A    between atoms: S_16  and  C_17
REMARK    6  A    between atoms: N_23  and  N_24
REMARK                            x       y       z     vdW  Elec       q    Type
REMARK                         _______ _______ _______ _____ _____    ______ ____
ROOT
ATOM      1  C   UNL     1       8.511  -0.753   0.235  0.00  0.00    +0.086 C 
ENDROOT
BRANCH   1   2
ATOM      2  C   UNL     1       7.334   0.221   0.150  0.00  0.00    +0.107 C 
BRANCH   2   4
ATOM      3  N   UNL     1       4.871   0.098  -0.039  0.00  0.00    -0.285 N 
ATOM      4  C   UNL     1       6.046  -0.555   0.048  0.00  0.00    +0.218 C 
ATOM      5  O   UNL     1       6.068  -1.768   0.043  0.00  0.00    -0.275 OA
ATOM      6  H   UNL     1       4.858   1.065  -0.116  0.00  0.00    +0.155 HD
BRANCH   3  16
ATOM      7  C   UNL     1       0.201   0.945  -1.757  0.00  0.00    +0.001 A 
ATOM      8  C   UNL     1       1.387   1.675  -1.788  0.00  0.00    +0.001 A 
ATOM      9  C   UNL     1       2.527   1.184  -1.228  0.00  0.00    +0.010 A 
ATOM     10  C   UNL     1       2.510  -0.076  -0.609  0.00  0.00    +0.003 A 
ATOM     11  C   UNL     1       1.304  -0.819  -0.576  0.00  0.00    -0.016 A 
ATOM     12  C   UNL     1       0.147  -0.280  -1.165  0.00  0.00    +0.008 A 
ATOM     13  C   UNL     1       1.286  -2.079   0.044  0.00  0.00    +0.008 A 
ATOM     14  C   UNL     1       2.422  -2.577   0.607  0.00  0.00    +0.002 A 
ATOM     15  C   UNL     1       3.612  -1.856   0.581  0.00  0.00    +0.024 A 
ATOM     16  C   UNL     1       3.672  -0.616  -0.018  0.00  0.00    +0.041 A 
ENDBRANCH   3  16
ENDBRANCH   2   4
ENDBRANCH   1   2
BRANCH   1  17
ATOM     17  S   UNL     1      10.061   0.181   0.359  0.00  0.00    -0.086 S 
BRANCH  17  18
ATOM     18  C   UNL     1      11.304  -1.065   0.447  0.00  0.00    +0.190 A 
ATOM     19  N   UNL     1      12.649  -0.852   0.557  0.00  0.00    -0.303 N 
ATOM     20  H   UNL     1      13.087   0.013   0.600  0.00  0.00    +0.171 HD
ATOM     21  C   UNL     1      13.268  -2.070   0.595  0.00  0.00    +0.235 A 
ATOM     22  N   UNL     1      12.345  -2.996   0.513  0.00  0.00    -0.111 NA
ATOM     23  N   UNL     1      11.100  -2.360   0.425  0.00  0.00    -0.121 NA
ATOM     24  N   UNL     1      14.635  -2.287   0.703  0.00  0.00    -0.205 N 
ATOM     25  H   UNL     1      15.243  -1.533   0.758  0.00  0.00    +0.177 HD
BRANCH  24  26
ATOM     26  N   UNL     1      15.136  -3.595   0.732  0.00  0.00    -0.189 NA
ATOM     27  C   UNL     1      16.385  -3.797   0.927  0.00  0.00    +0.037 C 
ATOM     28  C   UNL     1      17.353  -2.639   1.026  0.00  0.00    +0.052 C 
ATOM     29  C   UNL     1      18.180  -2.802   2.305  0.00  0.00    +0.006 C 
ATOM     30  C   UNL     1      18.844  -4.180   2.309  0.00  0.00    +0.001 C 
ATOM     31  C   UNL     1      17.773  -5.272   2.346  0.00  0.00    +0.006 C 
ATOM     32  C   UNL     1      16.930  -5.201   1.073  0.00  0.00    +0.052 C 
ENDBRANCH  24  26
ENDBRANCH  17  18
ENDBRANCH   1  17
TORSDOF 6
