REMARK  Name = ZINC19553586
REMARK  4 active torsions:
REMARK  status: ('A' for Active; 'I' for Inactive)
REMARK    1  A    between atoms: C_1  and  C_2
REMARK    2  A    between atoms: C_3  and  C_8
REMARK    3  A    between atoms: N_6  and  C_7
REMARK    4  A    between atoms: C_8  and  N_9
REMARK                            x       y       z     vdW  Elec       q    Type
REMARK                         _______ _______ _______ _____ _____    ______ ____
ROOT
ATOM      1  N   UNL     1       8.357   2.774   0.190  0.00  0.00    +0.383 N 
ATOM      2  C   UNL     1       8.057   1.339   0.268  0.00  0.00    -0.076 C 
ATOM      3  C   UNL     1       6.686   1.139   0.918  0.00  0.00    +0.016 C 
ATOM      4  C   UNL     1       5.624   1.868   0.094  0.00  0.00    +0.069 C 
ATOM      5  C   UNL     1       5.986   3.348  -0.028  0.00  0.00    +0.016 C 
ATOM      6  C   UNL     1       7.379   3.479  -0.648  0.00  0.00    -0.076 C 
ATOM      7  C   UNL     1       4.252   1.730   0.788  0.00  0.00    +0.069 C 
ATOM      8  C   UNL     1       3.600   0.585  -0.014  0.00  0.00    +0.099 C 
ATOM      9  C   UNL     1       4.180   0.800  -1.422  0.00  0.00    +0.192 C 
ATOM     10  O   UNL     1       5.521   1.278  -1.205  0.00  0.00    -0.371 OA
ATOM     11  C   UNL     1       2.106   0.708  -0.012  0.00  0.00    +0.049 A 
ATOM     12  C   UNL     1       1.324   1.792  -0.001  0.00  0.00    +0.025 A 
ATOM     13  C   UNL     1      -0.016   1.348   0.009  0.00  0.00    +0.020 A 
ATOM     14  C   UNL     1       0.002  -0.004   0.002  0.00  0.00    +0.092 A 
ATOM     15  N   UNL     1       1.293  -0.409  -0.015  0.00  0.00    -0.316 N 
ATOM     16  C   UNL     1       1.841  -1.701  -0.040  0.00  0.00    +0.067 A 
ATOM     17  C   UNL     1       1.067  -2.811  -0.321  0.00  0.00    +0.029 A 
ATOM     18  C   UNL     1       1.646  -4.067  -0.337  0.00  0.00    +0.022 A 
ATOM     19  C   UNL     1       2.997  -4.214  -0.076  0.00  0.00    +0.043 A 
ATOM     20  C   UNL     1       3.779  -3.107   0.207  0.00  0.00    +0.045 A 
ATOM     21  C   UNL     1       3.207  -1.846   0.229  0.00  0.00    +0.053 A 
ATOM     22  N   UNL     1       3.987  -0.717   0.524  0.00  0.00    -0.329 N 
ATOM     23 CL   UNL     1       3.716  -5.794  -0.102  0.00  0.00    -0.083 Cl
ATOM     24  H   UNL     1       4.883  -0.807   1.155  0.00  0.00    +0.147 HD
ATOM     25  H   UNL     1       8.284   3.187   1.208  0.00  0.00    -0.081 HD
ENDROOT
BRANCH   1  26
ATOM     26  C   UNL     1       9.726   3.000  -0.294  0.00  0.00    -0.040 C 
BRANCH  26  29
ATOM     27  C   UNL     1      10.652   4.380   2.356  0.00  0.00    +0.065 C 
ATOM     28  C   UNL     1      10.484   5.051   1.017  0.00  0.00    +0.037 A 
ATOM     29  C   UNL     1      10.084   4.455  -0.129  0.00  0.00    -0.024 A 
ATOM     30  C   UNL     1      10.066   5.426  -1.136  0.00  0.00    +0.136 A 
ATOM     31  N   UNL     1      10.433   6.566  -0.610  0.00  0.00    -0.179 NA
ATOM     32  N   UNL     1      10.706   6.355   0.747  0.00  0.00    -0.271 N 
ATOM     33  C   UNL     1      11.154   7.369   1.705  0.00  0.00    +0.172 C 
ENDBRANCH  26  29
ENDBRANCH   1  26
TORSDOF 2
