REMARK  Name = ZINC16493236
REMARK  8 active torsions:
REMARK  status: ('A' for Active; 'I' for Inactive)
REMARK    1  A    between atoms: C_6  and  C_7
REMARK    2  A    between atoms: C_7  and  C_8
REMARK    3  A    between atoms: C_18  and  C_19
REMARK    4  A    between atoms: C_18  and  N_60
REMARK    5  A    between atoms: C_19  and  N_20
REMARK    6  A    between atoms: C_21  and  C_23
REMARK    7  A    between atoms: C_24  and  C_25
REMARK    8  A    between atoms: C_28  and  N_31
REMARK                            x       y       z     vdW  Elec       q    Type
REMARK                         _______ _______ _______ _____ _____    ______ ____
ROOT
ATOM      1  C   UNL     1      -0.742   1.585  -1.213  0.00  0.00    +0.145 A 
ATOM      2  N   UNL     1      -0.417   2.739  -1.747  0.00  0.00    -0.208 NA
ATOM      3  C   UNL     1      -1.077   3.150  -2.821  0.00  0.00    +0.180 A 
ATOM      4  S   UNL     1      -2.190   1.842  -3.065  0.00  0.00    +0.049 S 
ATOM      5  N   UNL     1      -1.698   0.865  -1.748  0.00  0.00    -0.192 NA
ATOM      6  N   UNL     1      -0.919   4.313  -3.554  0.00  0.00    -0.312 N 
ATOM      7  C   UNL     1      -1.059   5.498  -2.696  0.00  0.00    +0.088 C 
ATOM      8  C   UNL     1      -0.799   6.758  -3.526  0.00  0.00    -0.059 C 
ATOM      9  C   UNL     1      -1.609   5.622  -5.504  0.00  0.00    -0.059 C 
ATOM     10  C   UNL     1      -1.869   4.363  -4.674  0.00  0.00    +0.088 C 
ATOM     11  N   UNL     1      -1.775   6.807  -4.635  0.00  0.00    +0.383 N 
ATOM     12  H   UNL     1      -2.724   6.805  -4.245  0.00  0.00    -0.082 HD
ENDROOT
BRANCH   1  13
ATOM     13  C   UNL     1      -0.013   1.086   0.008  0.00  0.00    +0.112 C 
BRANCH  13  19
ATOM     14  C   UNL     1      -0.359   2.779   1.818  0.00  0.00    +0.007 A 
ATOM     15  C   UNL     1      -1.009   3.228   2.953  0.00  0.00    +0.038 A 
ATOM     16  C   UNL     1      -2.012   2.463   3.524  0.00  0.00    +0.123 A 
ATOM     17  C   UNL     1      -2.367   1.252   2.955  0.00  0.00    +0.038 A 
ATOM     18  C   UNL     1      -1.719   0.807   1.817  0.00  0.00    +0.007 A 
ATOM     19  C   UNL     1      -0.718   1.572   1.248  0.00  0.00    -0.040 A 
ATOM     20  F   UNL     1      -2.644   2.899   4.635  0.00  0.00    -0.205 F 
ENDBRANCH  13  19
ENDBRANCH   1  13
BRANCH  11  21
ATOM     21  C   UNL     1      -1.581   8.043  -5.424  0.00  0.00    -0.060 C 
BRANCH  21  22
ATOM     22  C   UNL     1      -1.976   9.245  -4.563  0.00  0.00    +0.086 C 
BRANCH  22  23
ATOM     23  N   UNL     1      -1.809  10.476  -5.339  0.00  0.00    -0.314 N 
ATOM     24  C   UNL     1      -2.099  11.668  -4.781  0.00  0.00    +0.237 C 
ATOM     25  O   UNL     1      -2.499  11.722  -3.633  0.00  0.00    -0.271 OA
ATOM     26  H   UNL     1      -1.490  10.434  -6.254  0.00  0.00    +0.149 HD
BRANCH  24  27
ATOM     27  C   UNL     1      -1.932  12.899  -5.556  0.00  0.00    +0.068 C 
ATOM     28  C   UNL     1      -2.221  14.092  -4.998  0.00  0.00    +0.013 C 
BRANCH  28  29
ATOM     29  C   UNL     1      -2.054  15.329  -5.777  0.00  0.00    -0.025 A 
ATOM     30  C   UNL     1      -1.589  15.273  -7.094  0.00  0.00    +0.010 A 
ATOM     31  C   UNL     1      -1.438  16.436  -7.819  0.00  0.00    +0.033 A 
ATOM     32  C   UNL     1      -1.737  17.658  -7.243  0.00  0.00    +0.126 A 
ATOM     33  C   UNL     1      -2.193  17.723  -5.938  0.00  0.00    +0.033 A 
ATOM     34  C   UNL     1      -2.353  16.568  -5.201  0.00  0.00    +0.010 A 
BRANCH  32  35
ATOM     35  N   UNL     1      -1.567  18.903  -8.026  0.00  0.00    +0.056 N 
ATOM     36  O   UNL     1      -1.829  19.980  -7.522  0.00  0.00    -0.126 OA
ATOM     37  O   UNL     1      -1.166  18.849  -9.175  0.00  0.00    -0.126 OA
ENDBRANCH  32  35
ENDBRANCH  28  29
ENDBRANCH  24  27
ENDBRANCH  22  23
ENDBRANCH  21  22
ENDBRANCH  11  21
TORSDOF 8
