REMARK  Name = ZINC09349405
REMARK  7 active torsions:
REMARK  status: ('A' for Active; 'I' for Inactive)
REMARK    1  A    between atoms: C_4  and  O_7
REMARK    2  A    between atoms: O_7  and  C_8
REMARK    3  A    between atoms: C_12  and  C_14
REMARK    4  A    between atoms: C_14  and  C_16
REMARK    5  A    between atoms: C_14  and  N_32
REMARK    6  A    between atoms: C_16  and  C_17
REMARK    7  A    between atoms: C_25  and  C_27
REMARK                            x       y       z     vdW  Elec       q    Type
REMARK                         _______ _______ _______ _____ _____    ______ ____
ROOT
ATOM      1  C   UNL     1      -0.337   6.080  -3.015  0.00  0.00    +0.113 C 
ENDROOT
BRANCH   1   2
ATOM      2  N   UNL     1       1.125   5.995  -3.049  0.00  0.00    -0.292 N 
ATOM      3  C   UNL     1       1.788   6.249  -4.195  0.00  0.00    +0.298 C 
ATOM      4  O   UNL     1       1.182   6.638  -5.174  0.00  0.00    -0.253 OA
ATOM      5  N   UNL     1       3.123   6.073  -4.254  0.00  0.00    -0.313 N 
ATOM      6  H   UNL     1       1.615   5.755  -2.248  0.00  0.00    +0.151 HD
ATOM      7  H   UNL     1       3.606   5.763  -3.472  0.00  0.00    +0.146 HD
ATOM      8  H   UNL     1       3.600   6.256  -5.078  0.00  0.00    +0.146 HD
ENDBRANCH   1   2
BRANCH   1  13
ATOM      9  C   UNL     1      -2.154   9.349  -3.559  0.00  0.00    +0.129 A 
ATOM     10  C   UNL     1      -1.512  10.175  -2.648  0.00  0.00    +0.046 A 
ATOM     11  C   UNL     1      -0.493   9.673  -1.861  0.00  0.00    +0.004 A 
ATOM     12  C   UNL     1      -0.118   8.347  -1.977  0.00  0.00    +0.006 A 
ATOM     13  C   UNL     1      -0.753   7.524  -2.888  0.00  0.00    -0.023 A 
ATOM     14  C   UNL     1      -1.772   8.021  -3.677  0.00  0.00    +0.051 A 
BRANCH   9  15
ATOM     15  O   UNL     1      -3.157   9.840  -4.334  0.00  0.00    -0.456 OA
BRANCH  15  19
ATOM     16  C   UNL     1      -3.977  13.877  -4.111  0.00  0.00    +0.000 A 
ATOM     17  C   UNL     1      -2.857  13.437  -4.792  0.00  0.00    +0.004 A 
ATOM     18  C   UNL     1      -2.580  12.086  -4.869  0.00  0.00    +0.046 A 
ATOM     19  C   UNL     1      -3.427  11.170  -4.260  0.00  0.00    +0.128 A 
ATOM     20  C   UNL     1      -4.553  11.614  -3.582  0.00  0.00    +0.046 A 
ATOM     21  C   UNL     1      -4.822  12.966  -3.504  0.00  0.00    +0.004 A 
ENDBRANCH  15  19
ENDBRANCH   9  15
ENDBRANCH   1  13
BRANCH   1  22
ATOM     22  C   UNL     1      -0.867   5.290  -1.817  0.00  0.00    +0.123 C 
BRANCH  22  23
ATOM     23  C   UNL     1      -0.557   3.827  -2.005  0.00  0.00    +0.218 C 
ATOM     24  O   UNL     1       0.029   3.453  -2.998  0.00  0.00    -0.276 OA
ATOM     25  N   UNL     1      -0.932   2.933  -1.068  0.00  0.00    -0.298 N 
ATOM     26  C   UNL     1      -0.637   1.504  -1.237  0.00  0.00    +0.126 C 
ATOM     27  C   UNL     1       0.139   1.014  -0.009  0.00  0.00    +0.127 C 
ATOM     28  N   UNL     1      -0.567   1.452   1.203  0.00  0.00    -0.292 N 
ATOM     29  C   UNL     1      -0.866   2.882   1.371  0.00  0.00    +0.127 C 
ATOM     30  C   UNL     1      -1.642   3.371   0.142  0.00  0.00    +0.126 C 
ATOM     31  C   UNL     1      -0.939   0.559   2.141  0.00  0.00    +0.282 C 
ATOM     32  O   UNL     1      -0.795  -0.632   1.938  0.00  0.00    -0.267 OA
BRANCH  31  33
ATOM     33  C   UNL     1      -1.517   1.023   3.407  0.00  0.00    +0.189 A 
ATOM     34  C   UNL     1      -1.850   0.236   4.473  0.00  0.00    +0.054 A 
ATOM     35  C   UNL     1      -2.364   1.091   5.460  0.00  0.00    +0.042 A 
ATOM     36  C   UNL     1      -2.324   2.346   4.960  0.00  0.00    +0.196 A 
ATOM     37  O   UNL     1      -1.807   2.301   3.725  0.00  0.00    -0.458 OA
ENDBRANCH  31  33
ENDBRANCH  22  23
ENDBRANCH   1  22
TORSDOF 7
