REMARK  Name = ZINC22852210
REMARK  5 active torsions:
REMARK  status: ('A' for Active; 'I' for Inactive)
REMARK    1  A    between atoms: C_1  and  C_2
REMARK    2  A    between atoms: N_5  and  C_8
REMARK    3  A    between atoms: C_8  and  C_10
REMARK    4  A    between atoms: C_8  and  C_17
REMARK    5  A    between atoms: C_23  and  C_25
REMARK                            x       y       z     vdW  Elec       q    Type
REMARK                         _______ _______ _______ _____ _____    ______ ____
ROOT
ATOM      1  C   UNL     1      -0.750  -3.952   1.419  0.00  0.00    +0.006 C 
ENDROOT
BRANCH   1   2
ATOM      2  C   UNL     1      -0.034  -4.388   2.671  0.00  0.00    +0.050 A 
ATOM      3  C   UNL     1       0.981  -5.249   2.806  0.00  0.00    +0.282 A 
ATOM      4  N   UNL     1       1.508  -5.522   4.045  0.00  0.00    -0.169 N 
ATOM      5  C   UNL     1       0.951  -4.879   5.115  0.00  0.00    +0.200 A 
ATOM      6  S   UNL     1      -0.314  -3.884   4.362  0.00  0.00    -0.050 S 
ATOM      7  N   UNL     1       1.557  -5.241   6.211  0.00  0.00    -0.197 NA
ATOM      8  C   UNL     1       2.522  -6.122   5.913  0.00  0.00    +0.218 A 
ATOM      9  N   UNL     1       2.531  -6.325   4.613  0.00  0.00    -0.138 NA
ATOM     10  O   UNL     1       1.496  -5.861   1.706  0.00  0.00    -0.265 OA
BRANCH   8  11
ATOM     11  C   UNL     1       3.429  -6.764   6.888  0.00  0.00    +0.173 A 
ATOM     12  C   UNL     1       3.423  -6.566   8.233  0.00  0.00    +0.053 A 
ATOM     13  C   UNL     1       4.447  -7.373   8.766  0.00  0.00    +0.042 A 
ATOM     14  C   UNL     1       5.022  -8.017   7.731  0.00  0.00    +0.196 A 
ATOM     15  O   UNL     1       4.400  -7.651   6.599  0.00  0.00    -0.460 OA
ENDBRANCH   8  11
ENDBRANCH   1   2
BRANCH   1  20
ATOM     16  C   UNL     1      -0.019   1.526   0.010  0.00  0.00    +0.007 C 
ATOM     17  C   UNL     1       0.002  -0.004   0.002  0.00  0.00    -0.018 C 
ATOM     18  C   UNL     1      -1.434  -0.536   0.023  0.00  0.00    -0.015 C 
ATOM     19  C   UNL     1      -1.405  -2.064   0.095  0.00  0.00    -0.077 C 
ATOM     20  N   UNL     1      -0.707  -2.487   1.315  0.00  0.00    +0.387 N 
ATOM     21  C   UNL     1       0.691  -2.042   1.269  0.00  0.00    -0.077 C 
ATOM     22  C   UNL     1       0.743  -0.513   1.242  0.00  0.00    -0.015 C 
ATOM     23  H   UNL     1      -1.162  -2.082   2.119  0.00  0.00    -0.080 HD
ENDBRANCH   1  20
BRANCH   1  24
ATOM     24  C   UNL     1      -2.185  -4.410   1.475  0.00  0.00    -0.056 A 
ATOM     25  C   UNL     1      -3.111  -3.691   2.208  0.00  0.00    +0.005 A 
ATOM     26  C   UNL     1      -4.427  -4.109   2.260  0.00  0.00    +0.038 A 
ATOM     27  C   UNL     1      -4.818  -5.249   1.578  0.00  0.00    +0.123 A 
ATOM     28  C   UNL     1      -3.889  -5.969   0.845  0.00  0.00    +0.038 A 
ATOM     29  C   UNL     1      -2.575  -5.545   0.790  0.00  0.00    +0.005 A 
ATOM     30  F   UNL     1      -6.104  -5.660   1.629  0.00  0.00    -0.205 F 
ENDBRANCH   1  24
TORSDOF 4
