REMARK  Name = ZINC39668912
REMARK  6 active torsions:
REMARK  status: ('A' for Active; 'I' for Inactive)
REMARK    1  A    between atoms: C_1  and  O_2
REMARK    2  A    between atoms: O_2  and  C_3
REMARK    3  A    between atoms: C_8  and  C_9
REMARK    4  A    between atoms: C_13  and  C_22
REMARK    5  A    between atoms: N_24  and  C_25
REMARK    6  A    between atoms: C_25  and  C_26
REMARK                            x       y       z     vdW  Elec       q    Type
REMARK                         _______ _______ _______ _____ _____    ______ ____
ROOT
ATOM      1  C   UNL     1      -0.208  -2.772  -0.086  0.00  0.00    +0.250 C 
ATOM      2  O   UNL     1       0.851  -2.175  -0.118  0.00  0.00    -0.270 OA
ATOM      3  N   UNL     1      -0.222  -4.112   0.059  0.00  0.00    -0.296 N 
ATOM      4  C   UNL     1      -1.393  -5.018   0.013  0.00  0.00    +0.121 C 
ATOM      5  C   UNL     1      -0.892  -6.266  -0.747  0.00  0.00    +0.100 C 
ATOM      6  C   UNL     1       0.634  -6.257  -0.552  0.00  0.00    -0.004 C 
ATOM      7  C   UNL     1       0.932  -5.012   0.295  0.00  0.00    +0.115 C 
ATOM      8  C   UNL     1       1.338  -6.150  -1.902  0.00  0.00    -0.010 C 
ATOM      9  C   UNL     1       2.853  -6.201  -1.687  0.00  0.00    -0.082 C 
ATOM     10  N   UNL     1       3.213  -7.459  -1.023  0.00  0.00    +0.379 N 
ATOM     11  C   UNL     1       2.606  -7.513   0.313  0.00  0.00    -0.082 C 
ATOM     12  C   UNL     1       1.081  -7.517   0.182  0.00  0.00    -0.010 C 
ATOM     13  H   UNL     1       2.880  -8.236  -1.573  0.00  0.00    -0.086 HD
ATOM     14  H   UNL     1       4.217  -7.518  -0.937  0.00  0.00    -0.086 HD
ENDROOT
BRANCH   1  20
ATOM     15  C   UNL     1      -1.551  -0.887  -1.015  0.00  0.00    +0.132 A 
ATOM     16  C   UNL     1      -2.751  -0.200  -1.126  0.00  0.00    +0.046 A 
ATOM     17  C   UNL     1      -3.865  -0.638  -0.439  0.00  0.00    +0.004 A 
ATOM     18  C   UNL     1      -3.795  -1.764   0.365  0.00  0.00    +0.001 A 
ATOM     19  C   UNL     1      -2.611  -2.459   0.487  0.00  0.00    +0.017 A 
ATOM     20  C   UNL     1      -1.477  -2.030  -0.208  0.00  0.00    +0.078 A 
BRANCH  15  22
ATOM     21  C   UNL     1      -0.606   0.715  -2.493  0.00  0.00    +0.277 C 
ATOM     22  O   UNL     1      -0.455  -0.457  -1.690  0.00  0.00    -0.494 OA
ENDBRANCH  15  22
ENDBRANCH   1  20
BRANCH   5  23
ATOM     23  C   UNL     1      -1.491  -7.516  -0.156  0.00  0.00    +0.218 C 
ATOM     24  O   UNL     1      -1.763  -7.559   1.025  0.00  0.00    -0.275 OA
ATOM     25  N   UNL     1      -1.725  -8.587  -0.941  0.00  0.00    -0.312 N 
ATOM     26  H   UNL     1      -1.508  -8.553  -1.885  0.00  0.00    +0.149 HD
BRANCH  25  27
ATOM     27  C   UNL     1      -2.308  -9.802  -0.366  0.00  0.00    +0.140 C 
BRANCH  27  28
ATOM     28  C   UNL     1      -2.469 -10.858  -1.462  0.00  0.00    +0.165 C 
ATOM     29  C   UNL     1      -3.186 -12.057  -0.899  0.00  0.00    -0.014 A 
ATOM     30  C   UNL     1      -4.288 -11.851  -0.083  0.00  0.00    +0.006 A 
ATOM     31  C   UNL     1      -4.973 -12.926   0.447  0.00  0.00    +0.000 A 
ATOM     32  C   UNL     1      -4.559 -14.214   0.163  0.00  0.00    +0.000 A 
ATOM     33  C   UNL     1      -3.461 -14.421  -0.647  0.00  0.00    +0.004 A 
ATOM     34  C   UNL     1      -2.771 -13.342  -1.177  0.00  0.00    -0.040 A 
ATOM     35  C   UNL     1      -1.569 -13.606  -2.048  0.00  0.00    +0.063 C 
ATOM     36  C   UNL     1      -1.223 -12.349  -2.847  0.00  0.00    +0.165 C 
ATOM     37  O   UNL     1      -1.180 -11.239  -1.945  0.00  0.00    -0.370 OA
ENDBRANCH  27  28
ENDBRANCH  25  27
ENDBRANCH   5  23
TORSDOF 5
