REMARK  Name = ZINC06337126
REMARK  9 active torsions:
REMARK  status: ('A' for Active; 'I' for Inactive)
REMARK    1  A    between atoms: C_4  and  O_27
REMARK    2  A    between atoms: C_5  and  C_7
REMARK    3  A    between atoms: C_10  and  S_13
REMARK    4  A    between atoms: N_11  and  N_12
REMARK    5  A    between atoms: S_13  and  C_14
REMARK    6  A    between atoms: C_14  and  C_15
REMARK    7  A    between atoms: C_15  and  C_16
REMARK    8  A    between atoms: C_16  and  C_17
REMARK    9  A    between atoms: N_19  and  N_20
REMARK                            x       y       z     vdW  Elec       q    Type
REMARK                         _______ _______ _______ _____ _____    ______ ____
ROOT
ATOM      1  C   UNL     1       1.311  -2.186   0.629  0.00  0.00    +0.185 A 
ATOM      2  N   UNL     1       2.357  -2.938   0.374  0.00  0.00    -0.127 NA
ATOM      3  N   UNL     1       2.013  -4.176   0.350  0.00  0.00    -0.121 NA
ATOM      4  C   UNL     1       0.726  -4.291   0.589  0.00  0.00    +0.209 A 
ATOM      5  N   UNL     1       0.235  -3.030   0.780  0.00  0.00    -0.224 N 
ENDROOT
BRANCH   1  10
ATOM      6  C   UNL     1       0.093   1.332   1.122  0.00  0.00    +0.001 A 
ATOM      7  C   UNL     1       1.261   2.052   0.944  0.00  0.00    +0.004 A 
ATOM      8  C   UNL     1       2.447   1.401   0.663  0.00  0.00    +0.046 A 
ATOM      9  C   UNL     1       2.474   0.020   0.559  0.00  0.00    +0.128 A 
ATOM     10  C   UNL     1       1.294  -0.713   0.739  0.00  0.00    +0.062 A 
ATOM     11  C   UNL     1       0.103  -0.044   1.022  0.00  0.00    +0.015 A 
BRANCH   9  12
ATOM     12  O   UNL     1       3.639  -0.621   0.283  0.00  0.00    -0.506 OA
ATOM     13  H   UNL     1       4.147  -0.868   1.067  0.00  0.00    +0.292 HD
ENDBRANCH   9  12
ENDBRANCH   1  10
BRANCH   5  14
ATOM     14  N   UNL     1      -1.055  -2.680   1.060  0.00  0.00    -0.295 N 
ATOM     15  H   UNL     1      -1.579  -2.521   0.212  0.00  0.00    +0.163 HD
ATOM     16  H   UNL     1      -1.502  -3.378   1.635  0.00  0.00    +0.163 HD
ENDBRANCH   5  14
BRANCH   4  17
ATOM     17  S   UNL     1      -0.194  -5.792   0.655  0.00  0.00    -0.084 S 
BRANCH  17  18
ATOM     18  C   UNL     1       1.041  -7.079   0.326  0.00  0.00    +0.078 C 
BRANCH  18  19
ATOM     19  C   UNL     1       0.367  -8.452   0.355  0.00  0.00    +0.020 C 
BRANCH  19  20
ATOM     20  C   UNL     1       1.409  -9.537   0.077  0.00  0.00    +0.098 C 
BRANCH  20  21
ATOM     21  C   UNL     1       0.745 -10.890   0.105  0.00  0.00    +0.232 C 
ATOM     22  O   UNL     1      -0.445 -10.977   0.327  0.00  0.00    -0.274 OA
ATOM     23  N   UNL     1       1.473 -12.003  -0.115  0.00  0.00    -0.207 N 
ATOM     24  H   UNL     1       2.424 -11.933  -0.292  0.00  0.00    +0.177 HD
BRANCH  23  25
ATOM     25  N   UNL     1       0.855 -13.260  -0.088  0.00  0.00    -0.189 NA
ATOM     26  C   UNL     1       1.562 -14.322  -0.194  0.00  0.00    +0.037 C 
ATOM     27  C   UNL     1       3.073 -14.252  -0.196  0.00  0.00    +0.052 C 
ATOM     28  C   UNL     1       3.608 -15.240   0.847  0.00  0.00    +0.006 C 
ATOM     29  C   UNL     1       3.041 -16.633   0.564  0.00  0.00    +0.001 C 
ATOM     30  C   UNL     1       1.520 -16.616   0.726  0.00  0.00    +0.006 C 
ATOM     31  C   UNL     1       0.907 -15.681  -0.315  0.00  0.00    +0.052 C 
ENDBRANCH  23  25
ENDBRANCH  20  21
ENDBRANCH  19  20
ENDBRANCH  18  19
ENDBRANCH  17  18
ENDBRANCH   4  17
TORSDOF 9
