REMARK  Name = ZINC62038568
REMARK  6 active torsions:
REMARK  status: ('A' for Active; 'I' for Inactive)
REMARK    1  A    between atoms: C_1  and  C_2
REMARK    2  A    between atoms: C_2  and  C_4
REMARK    3  A    between atoms: C_2  and  S_15
REMARK    4  A    between atoms: N_6  and  C_7
REMARK    5  A    between atoms: C_12  and  O_13
REMARK    6  A    between atoms: S_15  and  C_16
REMARK                            x       y       z     vdW  Elec       q    Type
REMARK                         _______ _______ _______ _____ _____    ______ ____
ROOT
ATOM      1  C   UNL     1      -0.010   1.544  -0.007  0.00  0.00    +0.029 C 
ATOM      2  C   UNL     1       0.003   0.014  -0.005  0.00  0.00    +0.137 C 
ENDROOT
BRANCH   2   3
ATOM      3  C   UNL     1       0.708  -0.483  -1.241  0.00  0.00    +0.230 C 
ATOM      4  O   UNL     1       0.067  -0.778  -2.227  0.00  0.00    -0.274 OA
ATOM      5  N   UNL     1       2.051  -0.601  -1.250  0.00  0.00    -0.282 N 
ATOM      6  H   UNL     1       2.568  -0.304  -0.485  0.00  0.00    +0.155 HD
BRANCH   5   7
ATOM      7  C   UNL     1       2.699  -1.151  -2.363  0.00  0.00    +0.077 A 
ATOM      8  C   UNL     1       2.200  -0.927  -3.639  0.00  0.00    +0.047 A 
ATOM      9  C   UNL     1       2.842  -1.470  -4.736  0.00  0.00    +0.043 A 
ATOM     10  C   UNL     1       3.981  -2.238  -4.566  0.00  0.00    +0.023 A 
ATOM     11  C   UNL     1       4.482  -2.465  -3.298  0.00  0.00    +0.049 A 
ATOM     12  C   UNL     1       3.848  -1.919  -2.194  0.00  0.00    +0.138 A 
ATOM     13 CL   UNL     1       2.218  -1.189  -6.332  0.00  0.00    -0.083 Cl
BRANCH  12  14
ATOM     14  O   UNL     1       4.344  -2.137  -0.946  0.00  0.00    -0.505 OA
ATOM     15  H   UNL     1       3.991  -2.927  -0.515  0.00  0.00    +0.292 HD
ENDBRANCH  12  14
ENDBRANCH   5   7
ENDBRANCH   2   3
BRANCH   2  16
ATOM     16  S   UNL     1      -1.702  -0.605   0.009  0.00  0.00    -0.075 S 
BRANCH  16  17
ATOM     17  C   UNL     1      -2.337  -0.070   1.563  0.00  0.00    +0.171 A 
ATOM     18  N   UNL     1      -1.561   0.621   2.371  0.00  0.00    -0.185 NA
ATOM     19  C   UNL     1      -1.978   1.058   3.564  0.00  0.00    +0.282 A 
ATOM     20  O   UNL     1      -1.228   1.697   4.285  0.00  0.00    -0.265 OA
ATOM     21  C   UNL     1      -3.362   0.758   3.999  0.00  0.00    +0.075 A 
ATOM     22  C   UNL     1      -4.025   1.136   5.257  0.00  0.00    -0.023 A 
ATOM     23  C   UNL     1      -5.298   0.738   5.415  0.00  0.00    -0.004 A 
ATOM     24  S   UNL     1      -5.688  -0.146   3.922  0.00  0.00    -0.075 S 
ATOM     25  C   UNL     1      -4.129   0.024   3.098  0.00  0.00    +0.092 A 
ATOM     26  N   UNL     1      -3.623  -0.376   1.898  0.00  0.00    -0.328 N 
ATOM     27  C   UNL     1      -5.871   1.174   6.736  0.00  0.00    +0.043 C 
ATOM     28  C   UNL     1      -4.638   1.544   7.590  0.00  0.00    +0.010 C 
ATOM     29  C   UNL     1      -3.607   1.917   6.507  0.00  0.00    +0.037 C 
ATOM     30  H   UNL     1      -4.176  -0.883   1.284  0.00  0.00    +0.168 HD
ENDBRANCH  16  17
ENDBRANCH   2  16
TORSDOF 5
