REMARK  Name = ZINC12297458
REMARK  10 active torsions:
REMARK  status: ('A' for Active; 'I' for Inactive)
REMARK    1  A    between atoms: C_1  and  C_2
REMARK    2  A    between atoms: C_2  and  N_67
REMARK    3  A    between atoms: C_6  and  C_8
REMARK    4  A    between atoms: C_8  and  N_9
REMARK    5  A    between atoms: C_10  and  C_12
REMARK    6  A    between atoms: C_12  and  C_13
REMARK    7  A    between atoms: C_13  and  C_14
REMARK    8  A    between atoms: C_19  and  C_20
REMARK    9  A    between atoms: C_19  and  N_69
REMARK   10  A    between atoms: C_25  and  C_26
REMARK                            x       y       z     vdW  Elec       q    Type
REMARK                         _______ _______ _______ _____ _____    ______ ____
ROOT
ATOM      1  C   UNL     1      -0.102  -3.988  -4.204  0.00  0.00    -0.014 C 
ATOM      2  C   UNL     1      -0.765  -3.474  -5.485  0.00  0.00    -0.015 C 
ATOM      3  C   UNL     1       0.008  -3.997  -6.698  0.00  0.00    -0.078 C 
ATOM      4  C   UNL     1       0.684  -5.982  -5.484  0.00  0.00    -0.078 C 
ATOM      5  C   UNL     1      -0.068  -5.519  -4.235  0.00  0.00    -0.015 C 
ATOM      6  N   UNL     1      -0.017  -5.475  -6.683  0.00  0.00    +0.382 N 
ATOM      7  H   UNL     1      -0.993  -5.791  -6.656  0.00  0.00    -0.081 HD
ENDROOT
BRANCH   1   8
ATOM      8  C   UNL     1      -0.906  -3.519  -2.989  0.00  0.00    +0.012 C 
BRANCH   8   9
ATOM      9  C   UNL     1      -0.835  -1.994  -2.889  0.00  0.00    +0.096 C 
BRANCH   9  11
ATOM     10  N   UNL     1      -1.707  -0.218  -1.404  0.00  0.00    -0.317 N 
ATOM     11  C   UNL     1      -1.627  -1.532  -1.692  0.00  0.00    +0.213 C 
ATOM     12  O   UNL     1      -2.192  -2.343  -0.990  0.00  0.00    -0.276 OA
ATOM     13  H   UNL     1      -1.255   0.430  -1.966  0.00  0.00    +0.149 HD
BRANCH  10  14
ATOM     14  C   UNL     1      -2.477   0.231  -0.241  0.00  0.00    +0.089 C 
BRANCH  14  18
ATOM     15  C   UNL     1      -2.581   3.003   1.842  0.00  0.00    -0.078 C 
ATOM     16  C   UNL     1      -1.370   3.513   1.021  0.00  0.00    -0.020 C 
ATOM     17  C   UNL     1      -1.090   2.304   0.086  0.00  0.00    -0.016 C 
ATOM     18  C   UNL     1      -2.504   1.760  -0.207  0.00  0.00    -0.051 C 
ATOM     19  N   UNL     1      -3.387   2.239   0.869  0.00  0.00    +0.382 N 
ATOM     20  H   UNL     1      -4.108   2.851   0.470  0.00  0.00    -0.081 HD
BRANCH  19  22
ATOM     21  C   UNL     1      -4.874   1.597   2.722  0.00  0.00    -0.017 C 
ATOM     22  C   UNL     1      -4.045   1.088   1.542  0.00  0.00    -0.082 C 
ENDBRANCH  19  22
ENDBRANCH  14  18
ENDBRANCH  10  14
ENDBRANCH   9  11
ENDBRANCH   8   9
ENDBRANCH   1   8
BRANCH   6  23
ATOM     23  C   UNL     1       0.625  -6.003  -7.904  0.00  0.00    -0.042 C 
BRANCH  23  24
ATOM     24  C   UNL     1      -0.032  -5.384  -9.111  0.00  0.00    -0.053 A 
ATOM     25  C   UNL     1       0.637  -4.428  -9.848  0.00  0.00    +0.002 A 
ATOM     26  C   UNL     1       0.035  -3.858 -10.955  0.00  0.00    +0.000 A 
ATOM     27  C   UNL     1      -1.240  -4.242 -11.332  0.00  0.00    +0.001 A 
ATOM     28  C   UNL     1      -1.919  -5.197 -10.604  0.00  0.00    +0.012 A 
ATOM     29  C   UNL     1      -1.315  -5.780  -9.489  0.00  0.00    +0.019 A 
BRANCH  29  30
ATOM     30  C   UNL     1      -2.035  -6.809  -8.708  0.00  0.00    +0.135 A 
ATOM     31  C   UNL     1      -3.253  -6.659  -8.123  0.00  0.00    +0.050 A 
ATOM     32  C   UNL     1      -3.552  -7.882  -7.489  0.00  0.00    +0.042 A 
ATOM     33  C   UNL     1      -2.513  -8.709  -7.717  0.00  0.00    +0.196 A 
ATOM     34  O   UNL     1      -1.600  -8.059  -8.458  0.00  0.00    -0.463 OA
ENDBRANCH  29  30
ENDBRANCH  23  24
ENDBRANCH   6  23
TORSDOF 9
