REMARK  Name = ZINC30345996
REMARK  8 active torsions:
REMARK  status: ('A' for Active; 'I' for Inactive)
REMARK    1  A    between atoms: C_1  and  C_2
REMARK    2  A    between atoms: C_5  and  C_8
REMARK    3  A    between atoms: C_8  and  C_10
REMARK    4  A    between atoms: C_8  and  N_15
REMARK    5  A    between atoms: C_16  and  C_18
REMARK    6  A    between atoms: C_18  and  N_19
REMARK    7  A    between atoms: C_22  and  C_26
REMARK    8  A    between atoms: C_22  and  C_27
REMARK                            x       y       z     vdW  Elec       q    Type
REMARK                         _______ _______ _______ _____ _____    ______ ____
ROOT
ATOM      1  C   UNL     1       4.234   2.710  -3.146  0.00  0.00    +0.213 C 
ENDROOT
BRANCH   1   2
ATOM      2  N   UNL     1       4.098   2.229  -4.523  0.00  0.00    -0.215 N 
ATOM      3  C   UNL     1       3.158   2.660  -5.386  0.00  0.00    +0.254 C 
ATOM      4  O   UNL     1       2.296   3.486  -5.178  0.00  0.00    -0.272 OA
ATOM      5  C   UNL     1       3.401   1.895  -6.672  0.00  0.00    +0.168 C 
ATOM      6  N   UNL     1       4.559   1.042  -6.354  0.00  0.00    -0.279 N 
ATOM      7  C   UNL     1       4.897   1.312  -5.080  0.00  0.00    +0.310 C 
ATOM      8  O   UNL     1       5.822   0.779  -4.500  0.00  0.00    -0.252 OA
ATOM      9  C   UNL     1       2.182   1.042  -7.030  0.00  0.00    +0.050 C 
ATOM     10  H   UNL     1       4.965   0.360  -7.115  0.00  0.00    +0.152 HD
BRANCH   5  11
ATOM     11  C   UNL     1       3.732   2.841  -7.797  0.00  0.00    +0.138 A 
ATOM     12  C   UNL     1       4.523   2.549  -8.838  0.00  0.00    +0.056 A 
ATOM     13  C   UNL     1       4.560   3.753  -9.676  0.00  0.00    +0.020 A 
ATOM     14  C   UNL     1       5.188   4.088 -10.875  0.00  0.00    +0.011 A 
ATOM     15  C   UNL     1       5.016   5.337 -11.404  0.00  0.00    +0.001 A 
ATOM     16  C   UNL     1       4.221   6.271 -10.756  0.00  0.00    +0.004 A 
ATOM     17  C   UNL     1       3.592   5.958  -9.570  0.00  0.00    +0.047 A 
ATOM     18  C   UNL     1       3.754   4.695  -9.015  0.00  0.00    +0.135 A 
ATOM     19  O   UNL     1       3.282   4.104  -7.899  0.00  0.00    -0.457 OA
ENDBRANCH   5  11
ENDBRANCH   1   2
BRANCH   1  21
ATOM     20  N   UNL     1       3.373   2.108  -0.906  0.00  0.00    -0.303 N 
ATOM     21  C   UNL     1       3.402   1.850  -2.229  0.00  0.00    +0.232 C 
ATOM     22  O   UNL     1       2.760   0.926  -2.681  0.00  0.00    -0.274 OA
ATOM     23  H   UNL     1       3.955   2.946  -0.496  0.00  0.00    +0.150 HD
BRANCH  20  24
ATOM     24  C   UNL     1       2.565   1.272  -0.015  0.00  0.00    +0.140 C 
BRANCH  24  29
ATOM     25  C   UNL     1       4.748   1.486   5.331  0.00  0.00    +0.044 C 
ATOM     26  C   UNL     1       4.179   1.430   3.937  0.00  0.00    -0.050 A 
ATOM     27  C   UNL     1       3.708   0.233   3.430  0.00  0.00    +0.004 A 
ATOM     28  C   UNL     1       3.185   0.182   2.151  0.00  0.00    +0.006 A 
ATOM     29  C   UNL     1       3.134   1.328   1.379  0.00  0.00    -0.022 A 
ATOM     30  C   UNL     1       3.610   2.523   1.884  0.00  0.00    +0.006 A 
ATOM     31  C   UNL     1       4.128   2.575   3.164  0.00  0.00    +0.004 A 
ENDBRANCH  24  29
BRANCH  24  32
ATOM     32  C   UNL     1       1.146   1.780   0.001  0.00  0.00    +0.014 A 
ATOM     33  C   UNL     1      -0.013   1.076   0.008  0.00  0.00    +0.013 A 
ATOM     34  C   UNL     1      -1.213   1.761   0.017  0.00  0.00    +0.008 A 
ATOM     35  C   UNL     1      -1.196   3.116   0.030  0.00  0.00    +0.045 A 
ATOM     36  S   UNL     1       0.555   3.464   0.015  0.00  0.00    -0.099 S 
ENDBRANCH  24  32
ENDBRANCH  20  24
ENDBRANCH   1  21
TORSDOF 6
