REMARK  Name = ZINC04585199
REMARK  5 active torsions:
REMARK  status: ('A' for Active; 'I' for Inactive)
REMARK    1  A    between atoms: C_1  and  C_2
REMARK    2  A    between atoms: C_5  and  C_8
REMARK    3  A    between atoms: C_8  and  C_10
REMARK    4  A    between atoms: C_11  and  N_22
REMARK    5  A    between atoms: C_12  and  C_19
REMARK                            x       y       z     vdW  Elec       q    Type
REMARK                         _______ _______ _______ _____ _____    ______ ____
ROOT
ATOM      1  C   UNL     1      -0.288   5.198   0.032  0.00  0.00    +0.116 A 
ATOM      2  C   UNL     1      -1.669   5.388   0.058  0.00  0.00    +0.067 A 
ATOM      3  C   UNL     1      -2.266   4.112   0.057  0.00  0.00    +0.083 A 
ATOM      4  C   UNL     1      -1.219   3.162   0.030  0.00  0.00    +0.061 A 
ATOM      5  N   UNL     1      -0.031   3.834   0.016  0.00  0.00    -0.311 N 
ATOM      6  C   UNL     1       1.144   3.146  -0.011  0.00  0.00    +0.092 A 
ATOM      7  C   UNL     1       1.154   1.793  -0.023  0.00  0.00    +0.018 A 
ATOM      8  C   UNL     1      -0.050   1.079  -0.009  0.00  0.00    +0.003 A 
ATOM      9  C   UNL     1      -1.233   1.762   0.011  0.00  0.00    +0.027 A 
ENDROOT
BRANCH   3  10
ATOM     10  C   UNL     1      -3.700   3.825   0.079  0.00  0.00    +0.245 C 
ATOM     11  O   UNL     1      -4.279   3.695   1.143  0.00  0.00    -0.270 OA
ATOM     12  N   UNL     1      -4.381   3.702  -1.077  0.00  0.00    -0.325 N 
ATOM     13  H   UNL     1      -3.920   3.805  -1.925  0.00  0.00    +0.145 HD
ATOM     14  H   UNL     1      -5.332   3.511  -1.062  0.00  0.00    +0.145 HD
ENDBRANCH   3  10
BRANCH   2  15
ATOM     15  N   UNL     1      -2.330   6.605   0.081  0.00  0.00    -0.356 N 
ATOM     16  H   UNL     1      -3.298   6.632   0.023  0.00  0.00    +0.142 HD
ATOM     17  H   UNL     1      -1.825   7.430   0.154  0.00  0.00    +0.142 HD
ENDBRANCH   2  15
BRANCH   1  18
ATOM     18  C   UNL     1       0.682   6.218   0.025  0.00  0.00    +0.212 C 
ATOM     19  O   UNL     1       1.027   6.724  -1.029  0.00  0.00    -0.285 OA
BRANCH  18  24
ATOM     20  C   UNL     1       3.022   7.999   4.974  0.00  0.00    +0.044 C 
ATOM     21  C   UNL     1       2.409   7.533   3.678  0.00  0.00    -0.050 A 
ATOM     22  C   UNL     1       2.718   8.184   2.497  0.00  0.00    +0.004 A 
ATOM     23  C   UNL     1       2.161   7.761   1.308  0.00  0.00    +0.012 A 
ATOM     24  C   UNL     1       1.284   6.676   1.298  0.00  0.00    +0.024 A 
ATOM     25  C   UNL     1       0.972   6.028   2.494  0.00  0.00    +0.012 A 
ATOM     26  C   UNL     1       1.540   6.456   3.675  0.00  0.00    +0.004 A 
ENDBRANCH  18  24
ENDBRANCH   1  18
TORSDOF 4
