REMARK  Name = ZINC58592959
REMARK  10 active torsions:
REMARK  status: ('A' for Active; 'I' for Inactive)
REMARK    1  A    between atoms: C_1  and  C_2
REMARK    2  A    between atoms: C_2  and  C_3
REMARK    3  A    between atoms: C_3  and  C_5
REMARK    4  A    between atoms: C_3  and  N_12
REMARK    5  A    between atoms: C_13  and  C_15
REMARK    6  A    between atoms: C_15  and  O_16
REMARK    7  A    between atoms: O_16  and  C_17
REMARK    8  A    between atoms: C_20  and  S_26
REMARK    9  A    between atoms: C_22  and  N_23
REMARK   10  A    between atoms: S_26  and  N_29
REMARK                            x       y       z     vdW  Elec       q    Type
REMARK                         _______ _______ _______ _____ _____    ______ ____
ROOT
ATOM      1  O   UNL     1      -3.869   2.748   2.584  0.00  0.00    -0.480 OA
ENDROOT
BRANCH   1   2
ATOM      2  C   UNL     1      -4.509   3.249   3.674  0.00  0.00    +0.151 A 
ATOM      3  C   UNL     1      -4.611   2.488   4.830  0.00  0.00    +0.050 A 
ATOM      4  C   UNL     1      -5.261   2.999   5.936  0.00  0.00    +0.032 A 
ATOM      5  C   UNL     1      -5.809   4.268   5.892  0.00  0.00    +0.107 A 
ATOM      6  C   UNL     1      -5.710   5.027   4.742  0.00  0.00    +0.065 A 
ATOM      7  C   UNL     1      -5.056   4.523   3.634  0.00  0.00    +0.169 A 
BRANCH   7   8
ATOM      8  N   UNL     1      -4.944   5.339   2.405  0.00  0.00    +0.060 N 
ATOM      9  O   UNL     1      -5.421   6.449   2.371  0.00  0.00    -0.126 OA
ATOM     10  O   UNL     1      -4.376   4.895   1.434  0.00  0.00    -0.126 OA
ENDBRANCH   7   8
BRANCH   5  11
ATOM     11  S   UNL     1      -6.638   4.917   7.306  0.00  0.00    +0.056 S 
ATOM     12  O   UNL     1      -7.537   5.908   6.829  0.00  0.00    -0.153 OA
ATOM     13  O   UNL     1      -7.071   3.800   8.071  0.00  0.00    -0.153 OA
BRANCH  11  14
ATOM     14  N   UNL     1      -5.504   5.705   8.219  0.00  0.00    -0.204 NA
ATOM     15  H   UNL     1      -4.580   5.736   7.924  0.00  0.00    +0.144 HD
ATOM     16  H   UNL     1      -5.763   6.136   9.048  0.00  0.00    +0.144 HD
ENDBRANCH  11  14
ENDBRANCH   5  11
ENDBRANCH   1   2
BRANCH   1  17
ATOM     17  C   UNL     1      -3.330   1.430   2.696  0.00  0.00    +0.324 C 
BRANCH  17  19
ATOM     18  N   UNL     1      -2.082  -0.162   1.273  0.00  0.00    -0.306 N 
ATOM     19  C   UNL     1      -2.664   1.047   1.400  0.00  0.00    +0.251 C 
ATOM     20  O   UNL     1      -2.651   1.827   0.471  0.00  0.00    -0.272 OA
ATOM     21  H   UNL     1      -2.092  -0.785   2.016  0.00  0.00    +0.149 HD
BRANCH  18  22
ATOM     22  C   UNL     1      -1.433  -0.534   0.013  0.00  0.00    +0.103 C 
BRANCH  22  23
ATOM     23  C   UNL     1      -1.416  -2.035  -0.119  0.00  0.00    -0.027 A 
ATOM     24  C   UNL     1      -1.159  -2.823   0.987  0.00  0.00    +0.007 A 
ATOM     25  C   UNL     1      -1.143  -4.199   0.867  0.00  0.00    +0.020 A 
ATOM     26  C   UNL     1      -1.384  -4.789  -0.361  0.00  0.00    +0.041 A 
ATOM     27  C   UNL     1      -1.641  -4.000  -1.468  0.00  0.00    +0.020 A 
ATOM     28  C   UNL     1      -1.663  -2.623  -1.345  0.00  0.00    +0.007 A 
ATOM     29 CL   UNL     1      -1.363  -6.518  -0.514  0.00  0.00    -0.084 Cl
ENDBRANCH  22  23
BRANCH  22  31
ATOM     30  C   UNL     1      -0.019   1.526   0.010  0.00  0.00    +0.006 C 
ATOM     31  C   UNL     1       0.002  -0.004   0.002  0.00  0.00    +0.024 C 
ENDBRANCH  22  31
ENDBRANCH  18  22
ENDBRANCH  17  19
ENDBRANCH   1  17
TORSDOF 9
