REMARK  Name = ZINC26201781
REMARK  8 active torsions:
REMARK  status: ('A' for Active; 'I' for Inactive)
REMARK    1  A    between atoms: C_1  and  C_2
REMARK    2  A    between atoms: C_2  and  C_4
REMARK    3  A    between atoms: C_2  and  N_19
REMARK    4  A    between atoms: N_6  and  C_7
REMARK    5  A    between atoms: C_7  and  C_8
REMARK    6  A    between atoms: C_8  and  C_9
REMARK    7  A    between atoms: N_22  and  S_25
REMARK    8  A    between atoms: S_25  and  C_28
REMARK                            x       y       z     vdW  Elec       q    Type
REMARK                         _______ _______ _______ _____ _____    ______ ____
ROOT
ATOM      1  C   UNL     1      -5.781  -2.612  -1.726  0.00  0.00    -0.004 C 
ATOM      2  C   UNL     1      -4.668  -3.239  -2.568  0.00  0.00    +0.016 C 
ENDROOT
BRANCH   2   3
ATOM      3  N   UNL     1      -5.145  -3.432  -3.944  0.00  0.00    +0.389 N 
ATOM      4  C   UNL     1      -5.546  -2.154  -4.546  0.00  0.00    -0.060 C 
ATOM      5  C   UNL     1      -5.863  -2.370  -6.030  0.00  0.00    +0.091 C 
ATOM      6  N   UNL     1      -6.855  -3.450  -6.144  0.00  0.00    -0.180 NA
ATOM      7  C   UNL     1      -6.585  -4.718  -5.450  0.00  0.00    +0.091 C 
ATOM      8  C   UNL     1      -6.240  -4.410  -3.989  0.00  0.00    -0.060 C 
ATOM      9  H   UNL     1      -4.312  -3.835  -4.539  0.00  0.00    -0.081 HD
BRANCH   6  10
ATOM     10  S   UNL     1      -8.239  -3.244  -7.030  0.00  0.00    +0.061 S 
ATOM     11  O   UNL     1      -7.964  -2.224  -7.981  0.00  0.00    -0.153 OA
ATOM     12  O   UNL     1      -8.675  -4.541  -7.409  0.00  0.00    -0.153 OA
BRANCH  10  13
ATOM     13  C   UNL     1      -9.464  -2.599  -5.940  0.00  0.00    +0.108 A 
ATOM     14  C   UNL     1     -10.290  -3.460  -5.242  0.00  0.00    +0.029 A 
ATOM     15  C   UNL     1     -11.249  -2.955  -4.383  0.00  0.00    +0.005 A 
ATOM     16  C   UNL     1     -11.389  -1.589  -4.229  0.00  0.00    +0.038 A 
ATOM     17  C   UNL     1     -10.566  -0.726  -4.931  0.00  0.00    +0.125 A 
ATOM     18  C   UNL     1      -9.602  -1.232  -5.788  0.00  0.00    +0.066 A 
ATOM     19  F   UNL     1     -10.702   0.610  -4.782  0.00  0.00    -0.205 F 
ENDBRANCH  10  13
ENDBRANCH   6  10
ENDBRANCH   2   3
BRANCH   2  20
ATOM     20  C   UNL     1      -3.469  -2.326  -2.575  0.00  0.00    +0.199 C 
ATOM     21  O   UNL     1      -3.052  -1.881  -3.623  0.00  0.00    -0.278 OA
ATOM     22  N   UNL     1      -2.859  -2.005  -1.417  0.00  0.00    -0.316 N 
ATOM     23  H   UNL     1      -3.237  -2.410  -0.466  0.00  0.00    +0.149 HD
BRANCH  22  24
ATOM     24  C   UNL     1      -1.694  -1.118  -1.424  0.00  0.00    +0.109 C 
BRANCH  24  25
ATOM     25  C   UNL     1      -1.197  -0.917   0.009  0.00  0.00    +0.056 C 
BRANCH  25  26
ATOM     26  C   UNL     1       0.002  -0.004   0.002  0.00  0.00    -0.021 A 
ATOM     27  C   UNL     1       1.291  -0.379  -0.012  0.00  0.00    +0.087 A 
ATOM     28  N   UNL     1       2.098   0.726  -0.014  0.00  0.00    -0.360 N 
ATOM     29  H   UNL     1       3.192   0.608  -0.025  0.00  0.00    +0.165 HD
ATOM     30  C   UNL     1       1.329   1.868  -0.001  0.00  0.00    +0.047 A 
ATOM     31  C   UNL     1      -0.018   1.461   0.010  0.00  0.00    +0.003 A 
ATOM     32  C   UNL     1      -1.034   2.417   0.030  0.00  0.00    +0.010 A 
ATOM     33  C   UNL     1      -0.716   3.746   0.030  0.00  0.00    +0.001 A 
ATOM     34  C   UNL     1       0.611   4.153   0.019  0.00  0.00    +0.002 A 
ATOM     35  C   UNL     1       1.631   3.225   0.004  0.00  0.00    +0.026 A 
ENDBRANCH  25  26
ENDBRANCH  24  25
ENDBRANCH  22  24
ENDBRANCH   2  20
TORSDOF 7
