REMARK  Name = ZINC39154623
REMARK  6 active torsions:
REMARK  status: ('A' for Active; 'I' for Inactive)
REMARK    1  A    between atoms: C_1  and  C_2
REMARK    2  A    between atoms: C_2  and  O_3
REMARK    3  A    between atoms: O_3  and  C_4
REMARK    4  A    between atoms: C_8  and  C_10
REMARK    5  A    between atoms: C_26  and  C_28
REMARK    6  A    between atoms: C_26  and  C_29
REMARK                            x       y       z     vdW  Elec       q    Type
REMARK                         _______ _______ _______ _____ _____    ______ ____
ROOT
ATOM      1  C   UNL     1       2.222  -4.257  -3.827  0.00  0.00    +0.222 C 
ATOM      2  N   UNL     1       2.014  -3.383  -4.989  0.00  0.00    -0.242 NA
ATOM      3  C   UNL     1       1.385  -4.074  -5.902  0.00  0.00    +0.150 C 
ATOM      4  C   UNL     1       0.938  -3.651  -7.259  0.00  0.00    +0.048 A 
ATOM      5  C   UNL     1       1.097  -2.350  -7.902  0.00  0.00    -0.020 A 
ATOM      6  C   UNL     1       0.598  -2.218  -9.152  0.00  0.00    +0.021 A 
ATOM      7  S   UNL     1      -0.097  -3.801  -9.531  0.00  0.00    -0.075 S 
ATOM      8  C   UNL     1       0.286  -4.627  -8.007  0.00  0.00    +0.084 A 
ATOM      9  N   UNL     1       0.073  -5.889  -7.519  0.00  0.00    -0.262 N 
ATOM     10  C   UNL     1       0.488  -6.236  -6.289  0.00  0.00    +0.326 C 
ATOM     11  O   UNL     1       0.279  -7.365  -5.889  0.00  0.00    -0.251 OA
ATOM     12  N   UNL     1       1.131  -5.361  -5.486  0.00  0.00    -0.168 N 
ATOM     13  N   UNL     1       1.621  -5.546  -4.214  0.00  0.00    -0.203 NA
ATOM     14  C   UNL     1       0.642  -0.985  -9.999  0.00  0.00    +0.203 C 
ATOM     15  O   UNL     1       1.012   0.117  -9.154  0.00  0.00    -0.368 OA
ATOM     16  C   UNL     1       2.150  -0.153  -8.331  0.00  0.00    +0.068 C 
ATOM     17  C   UNL     1       1.785  -1.161  -7.237  0.00  0.00    +0.071 C 
ATOM     18  C   UNL     1       2.627   1.149  -7.682  0.00  0.00    +0.041 C 
ATOM     19  C   UNL     1       3.275  -0.727  -9.195  0.00  0.00    +0.041 C 
ATOM     20  H   UNL     1       0.884  -5.807  -3.577  0.00  0.00    +0.148 HD
ATOM     21  H   UNL     1      -0.385  -6.542  -8.071  0.00  0.00    +0.157 HD
ENDROOT
BRANCH   1  26
ATOM     22  C   UNL     1       0.777  -1.810  -1.336  0.00  0.00    +0.121 A 
ATOM     23  C   UNL     1       0.243  -2.669  -0.386  0.00  0.00    +0.045 A 
ATOM     24  C   UNL     1       0.351  -4.036  -0.554  0.00  0.00    +0.004 A 
ATOM     25  C   UNL     1       0.991  -4.548  -1.667  0.00  0.00    +0.007 A 
ATOM     26  C   UNL     1       1.525  -3.695  -2.615  0.00  0.00    -0.004 A 
ATOM     27  C   UNL     1       1.414  -2.327  -2.455  0.00  0.00    +0.052 A 
BRANCH  22  28
ATOM     28  O   UNL     1       0.671  -0.465  -1.174  0.00  0.00    -0.492 OA
BRANCH  28  30
ATOM     29  C   UNL     1      -0.019   1.526   0.010  0.00  0.00    +0.048 C 
ATOM     30  C   UNL     1       0.002  -0.004   0.002  0.00  0.00    +0.225 C 
ENDBRANCH  28  30
ENDBRANCH  22  28
ENDBRANCH   1  26
TORSDOF 3
