REMARK  Name = ZINC51124068
REMARK  7 active torsions:
REMARK  status: ('A' for Active; 'I' for Inactive)
REMARK    1  A    between atoms: C_1  and  C_2
REMARK    2  A    between atoms: C_5  and  C_7
REMARK    3  A    between atoms: C_7  and  C_9
REMARK    4  A    between atoms: C_7  and  N_10
REMARK    5  A    between atoms: C_11  and  C_13
REMARK    6  A    between atoms: C_18  and  N_19
REMARK    7  A    between atoms: N_19  and  N_20
REMARK                            x       y       z     vdW  Elec       q    Type
REMARK                         _______ _______ _______ _____ _____    ______ ____
ROOT
ATOM      1  N   UNL     1       2.231  -4.145  -0.883  0.00  0.00    -0.304 N 
ATOM      2  C   UNL     1       2.552  -5.314  -1.472  0.00  0.00    +0.248 C 
ATOM      3  O   UNL     1       1.885  -6.307  -1.256  0.00  0.00    -0.270 OA
ATOM      4  H   UNL     1       2.764  -3.353  -1.056  0.00  0.00    +0.150 HD
ENDROOT
BRANCH   2   5
ATOM      5  C   UNL     1       3.711  -5.388  -2.380  0.00  0.00    +0.079 A 
ATOM      6  C   UNL     1       4.413  -4.230  -2.736  0.00  0.00    +0.033 A 
ATOM      7  C   UNL     1       5.495  -4.354  -3.590  0.00  0.00    +0.037 A 
ATOM      8  C   UNL     1       5.848  -5.605  -4.066  0.00  0.00    +0.128 A 
ATOM      9  N   UNL     1       5.174  -6.684  -3.719  0.00  0.00    -0.237 NA
ATOM     10  C   UNL     1       4.135  -6.623  -2.900  0.00  0.00    +0.144 A 
ATOM     11 BR   UNL     1       6.481  -2.825  -4.106  0.00  0.00    -0.049 Br
BRANCH  10  12
ATOM     12  N   UNL     1       3.460  -7.781  -2.558  0.00  0.00    -0.267 N 
ATOM     13  H   UNL     1       2.650  -7.731  -2.027  0.00  0.00    +0.167 HD
BRANCH  12  14
ATOM     14  N   UNL     1       3.934  -8.994  -2.969  0.00  0.00    -0.255 NA
ATOM     15  H   UNL     1       3.340  -9.743  -2.646  0.00  0.00    +0.140 HD
ATOM     16  H   UNL     1       4.036  -9.021  -3.973  0.00  0.00    +0.140 HD
ENDBRANCH  12  14
ENDBRANCH  10  12
ENDBRANCH   2   5
BRANCH   1  17
ATOM     17  C   UNL     1       1.079  -4.071   0.019  0.00  0.00    +0.107 C 
ATOM     18  C   UNL     1       1.505  -4.496   1.426  0.00  0.00    +0.033 C 
BRANCH  17  23
ATOM     19  C   UNL     1       0.084   1.504   0.155  0.00  0.00    +0.051 C 
ATOM     20  C   UNL     1       0.087  -0.003   0.122  0.00  0.00    -0.013 A 
ATOM     21  C   UNL     1      -0.965  -0.858   0.114  0.00  0.00    +0.011 A 
ATOM     22  C   UNL     1      -0.722  -2.218   0.080  0.00  0.00    +0.013 A 
ATOM     23  C   UNL     1       0.560  -2.657   0.057  0.00  0.00    +0.010 A 
ATOM     24  S   UNL     1       1.475  -1.124   0.075  0.00  0.00    -0.097 S 
ENDBRANCH  17  23
ENDBRANCH   1  17
TORSDOF 5
