REMARK  Name = ZINC67305426
REMARK  6 active torsions:
REMARK  status: ('A' for Active; 'I' for Inactive)
REMARK    1  A    between atoms: C_1  and  C_2
REMARK    2  A    between atoms: C_2  and  C_4
REMARK    3  A    between atoms: C_2  and  N_14
REMARK    4  A    between atoms: C_4  and  C_5
REMARK    5  A    between atoms: C_5  and  C_6
REMARK    6  A    between atoms: C_15  and  C_17
REMARK                            x       y       z     vdW  Elec       q    Type
REMARK                         _______ _______ _______ _____ _____    ______ ____
ROOT
ATOM      1  N   UNL     1       0.688  -0.476  -1.203  0.00  0.00    -0.312 N 
ATOM      2  C   UNL     1       0.006  -0.608  -2.358  0.00  0.00    +0.216 C 
ATOM      3  O   UNL     1      -1.175  -0.336  -2.400  0.00  0.00    -0.276 OA
ATOM      4  H   UNL     1       1.632  -0.695  -1.170  0.00  0.00    +0.149 HD
ENDROOT
BRANCH   2   5
ATOM      5  C   UNL     1       0.712  -1.094  -3.598  0.00  0.00    +0.075 C 
ATOM      6  C   UNL     1       1.850  -0.133  -3.947  0.00  0.00    +0.015 C 
ATOM      7  C   UNL     1       2.573  -0.634  -5.200  0.00  0.00    +0.036 C 
ATOM      8  C   UNL     1       1.587  -0.723  -6.359  0.00  0.00    +0.112 C 
ATOM      9  C   UNL     1       0.433  -1.658  -6.016  0.00  0.00    +0.036 C 
ATOM     10  C   UNL     1      -0.282  -1.153  -4.761  0.00  0.00    +0.015 C 
ATOM     11  C   UNL     1       1.065   0.650  -6.715  0.00  0.00    +0.244 C 
ATOM     12  O   UNL     1       0.434   1.403  -6.004  0.00  0.00    -0.273 OA
ATOM     13  N   UNL     1       1.450   0.863  -7.990  0.00  0.00    -0.238 N 
ATOM     14  C   UNL     1       2.135  -0.179  -8.479  0.00  0.00    +0.307 C 
ATOM     15  O   UNL     1       2.586  -0.222  -9.607  0.00  0.00    -0.252 OA
ATOM     16  N   UNL     1       2.268  -1.173  -7.580  0.00  0.00    -0.285 N 
ATOM     17  H   UNL     1       1.255   1.670  -8.492  0.00  0.00    +0.159 HD
ATOM     18  H   UNL     1       2.723  -2.019  -7.713  0.00  0.00    +0.151 HD
ENDBRANCH   2   5
BRANCH   1  20
ATOM     19  C   UNL     1      -0.019   1.526   0.010  0.00  0.00    +0.028 C 
ATOM     20  C   UNL     1       0.002  -0.004   0.002  0.00  0.00    +0.070 C 
BRANCH  20  21
ATOM     21  C   UNL     1       0.742  -0.511   1.242  0.00  0.00    +0.026 C 
BRANCH  21  22
ATOM     22  C   UNL     1       0.655  -2.037   1.299  0.00  0.00    +0.037 C 
BRANCH  22  23
ATOM     23  C   UNL     1       1.384  -2.537   2.519  0.00  0.00    -0.044 A 
ATOM     24  C   UNL     1       2.731  -2.841   2.443  0.00  0.00    +0.006 A 
ATOM     25  C   UNL     1       3.401  -3.299   3.562  0.00  0.00    +0.041 A 
ATOM     26  C   UNL     1       2.725  -3.453   4.760  0.00  0.00    +0.158 A 
ATOM     27  C   UNL     1       1.375  -3.147   4.836  0.00  0.00    +0.159 A 
ATOM     28  C   UNL     1       0.707  -2.684   3.715  0.00  0.00    +0.045 A 
ATOM     29  F   UNL     1       0.713  -3.297   6.004  0.00  0.00    -0.202 F 
ATOM     30  F   UNL     1       3.380  -3.901   5.853  0.00  0.00    -0.202 F 
ENDBRANCH  22  23
ENDBRANCH  21  22
ENDBRANCH  20  21
ENDBRANCH   1  20
TORSDOF 5
