REMARK  Name = ZINC36637455
REMARK  12 active torsions:
REMARK  status: ('A' for Active; 'I' for Inactive)
REMARK    1  A    between atoms: C_1  and  C_2
REMARK    2  A    between atoms: C_2  and  O_3
REMARK    3  A    between atoms: O_3  and  C_4
REMARK    4  A    between atoms: N_13  and  C_14
REMARK    5  A    between atoms: C_14  and  C_15
REMARK    6  A    between atoms: C_15  and  N_16
REMARK    7  A    between atoms: N_16  and  C_17
REMARK    8  A    between atoms: N_16  and  C_18
REMARK    9  A    between atoms: C_19  and  C_21
REMARK   10  A    between atoms: C_24  and  S_27
REMARK   11  A    between atoms: S_27  and  N_30
REMARK   12  A    between atoms: C_35  and  C_37
REMARK                            x       y       z     vdW  Elec       q    Type
REMARK                         _______ _______ _______ _____ _____    ______ ____
ROOT
ATOM      1  C   UNL     1      -1.066  -0.075  -3.121  0.00  0.00    +0.147 A 
ATOM      2  C   UNL     1      -1.899  -0.638  -2.182  0.00  0.00    +0.048 A 
ATOM      3  C   UNL     1      -1.935  -2.010  -1.976  0.00  0.00    +0.005 A 
ATOM      4  C   UNL     1      -1.117  -2.830  -2.731  0.00  0.00    +0.017 A 
ATOM      5  C   UNL     1      -0.282  -2.278  -3.672  0.00  0.00    +0.044 A 
ATOM      6  C   UNL     1      -0.219  -0.889  -3.915  0.00  0.00    +0.122 A 
ATOM      7  N   UNL     1       0.648  -0.501  -4.876  0.00  0.00    -0.221 NA
ATOM      8  C   UNL     1       1.384  -1.355  -5.548  0.00  0.00    +0.168 A 
ATOM      9  S   UNL     1       0.902  -2.919  -4.831  0.00  0.00    -0.052 S 
ATOM     10  N   UNL     1       2.307  -1.106  -6.551  0.00  0.00    -0.248 N 
ATOM     11  C   UNL     1       2.541   0.159  -6.952  0.00  0.00    +0.252 C 
ATOM     12  O   UNL     1       1.984   1.086  -6.397  0.00  0.00    -0.270 OA
ENDROOT
BRANCH  11  13
ATOM     13  C   UNL     1       3.475   0.419  -8.067  0.00  0.00    +0.037 A 
ATOM     14  C   UNL     1       3.488  -0.420  -9.182  0.00  0.00    +0.015 A 
ATOM     15  C   UNL     1       4.362  -0.171 -10.220  0.00  0.00    +0.029 A 
ATOM     16  C   UNL     1       5.226   0.908 -10.157  0.00  0.00    +0.106 A 
ATOM     17  C   UNL     1       5.219   1.744  -9.054  0.00  0.00    +0.029 A 
ATOM     18  C   UNL     1       4.346   1.510  -8.012  0.00  0.00    +0.015 A 
BRANCH  16  19
ATOM     19  S   UNL     1       6.340   1.218 -11.486  0.00  0.00    +0.061 S 
ATOM     20  O   UNL     1       7.494   1.820 -10.916  0.00  0.00    -0.153 OA
ATOM     21  O   UNL     1       6.403   0.022 -12.251  0.00  0.00    -0.153 OA
BRANCH  19  22
ATOM     22  N   UNL     1       5.639   2.363 -12.455  0.00  0.00    -0.174 NA
ATOM     23  C   UNL     1       6.014   3.779 -12.334  0.00  0.00    +0.110 C 
ATOM     24  C   UNL     1       6.429   4.299 -13.714  0.00  0.00    +0.017 C 
ATOM     25  C   UNL     1       5.303   4.031 -14.715  0.00  0.00    +0.003 C 
ATOM     26  C   UNL     1       5.060   2.523 -14.820  0.00  0.00    +0.020 C 
ATOM     27  C   UNL     1       4.634   1.982 -13.457  0.00  0.00    +0.077 C 
ATOM     28  C   UNL     1       4.528   0.457 -13.523  0.00  0.00    +0.026 C 
ENDBRANCH  19  22
ENDBRANCH  16  19
ENDBRANCH  11  13
BRANCH   1  29
ATOM     29  O   UNL     1      -1.060   1.273  -3.293  0.00  0.00    -0.490 OA
BRANCH  29  31
ATOM     30  C   UNL     1      -1.791   3.523  -2.797  0.00  0.00    +0.048 C 
ATOM     31  C   UNL     1      -1.936   2.037  -2.462  0.00  0.00    +0.226 C 
ENDBRANCH  29  31
ENDBRANCH   1  29
BRANCH  10  32
ATOM     32  C   UNL     1       3.028  -2.218  -7.175  0.00  0.00    +0.097 C 
BRANCH  32  33
ATOM     33  C   UNL     1       2.089  -2.967  -8.123  0.00  0.00    -0.060 C 
BRANCH  33  34
ATOM     34  N   UNL     1       2.847  -3.987  -8.859  0.00  0.00    +0.377 N 
ATOM     35  C   UNL     1       3.342  -5.002  -7.920  0.00  0.00    -0.097 C 
ATOM     36  C   UNL     1       1.974  -4.624  -9.854  0.00  0.00    -0.097 C 
ATOM     37  H   UNL     1       3.629  -3.552  -9.327  0.00  0.00    -0.083 HD
ENDBRANCH  33  34
ENDBRANCH  32  33
ENDBRANCH  10  32
TORSDOF 8
