REMARK  Name = ZINC13521556
REMARK  11 active torsions:
REMARK  status: ('A' for Active; 'I' for Inactive)
REMARK    1  A    between atoms: C_1  and  C_2
REMARK    2  A    between atoms: C_2  and  O_3
REMARK    3  A    between atoms: O_3  and  C_4
REMARK    4  A    between atoms: C_4  and  C_6
REMARK    5  A    between atoms: C_7  and  C_23
REMARK    6  A    between atoms: C_12  and  C_14
REMARK    7  A    between atoms: C_17  and  O_22
REMARK    8  A    between atoms: C_18  and  O_20
REMARK    9  A    between atoms: O_20  and  C_21
REMARK   10  A    between atoms: C_23  and  S_24
REMARK   11  A    between atoms: S_24  and  C_27
REMARK                            x       y       z     vdW  Elec       q    Type
REMARK                         _______ _______ _______ _____ _____    ______ ____
ROOT
ATOM      1  C   UNL     1       1.578  -2.281  -2.243  0.00  0.00    +0.080 C 
ATOM      2  C   UNL     1       1.848  -3.582  -2.485  0.00  0.00    +0.045 C 
ATOM      3  N   UNL     1       2.423  -3.976  -3.659  0.00  0.00    -0.271 N 
ATOM      4  C   UNL     1       2.757  -3.131  -4.642  0.00  0.00    +0.304 C 
ATOM      5  O   UNL     1       3.265  -3.577  -5.653  0.00  0.00    -0.252 OA
ATOM      6  N   UNL     1       2.550  -1.803  -4.548  0.00  0.00    -0.288 N 
ATOM      7  C   UNL     1       1.929  -1.276  -3.321  0.00  0.00    +0.144 C 
ATOM      8  H   UNL     1       2.598  -4.921  -3.788  0.00  0.00    +0.156 HD
ATOM      9  H   UNL     1       2.801  -1.209  -5.272  0.00  0.00    +0.151 HD
ENDROOT
BRANCH   7  10
ATOM     10  C   UNL     1       2.874  -0.265  -2.725  0.00  0.00    -0.019 A 
ATOM     11  C   UNL     1       4.190  -0.612  -2.481  0.00  0.00    +0.009 A 
ATOM     12  C   UNL     1       5.061   0.311  -1.934  0.00  0.00    +0.049 A 
ATOM     13  C   UNL     1       4.616   1.588  -1.629  0.00  0.00    +0.158 A 
ATOM     14  C   UNL     1       3.292   1.937  -1.874  0.00  0.00    +0.162 A 
ATOM     15  C   UNL     1       2.425   1.008  -2.427  0.00  0.00    +0.055 A 
BRANCH  14  16
ATOM     16  O   UNL     1       2.850   3.188  -1.576  0.00  0.00    -0.491 OA
ATOM     17  C   UNL     1       1.458   3.446  -1.765  0.00  0.00    +0.277 C 
ENDBRANCH  14  16
BRANCH  13  18
ATOM     18  O   UNL     1       5.472   2.497  -1.090  0.00  0.00    -0.503 OA
ATOM     19  H   UNL     1       5.941   3.032  -1.745  0.00  0.00    +0.292 HD
ENDBRANCH  13  18
ENDBRANCH   7  10
BRANCH   1  20
ATOM     20  C   UNL     1       0.983  -1.871  -1.027  0.00  0.00    +0.339 C 
ATOM     21  O   UNL     1      -0.206  -1.617  -0.987  0.00  0.00    -0.245 OA
BRANCH  20  22
ATOM     22  O   UNL     1       1.734  -1.762   0.089  0.00  0.00    -0.462 OA
BRANCH  22  24
ATOM     23  C   UNL     1       2.067  -1.268   2.431  0.00  0.00    +0.048 C 
ATOM     24  C   UNL     1       1.049  -1.454   1.305  0.00  0.00    +0.229 C 
ENDBRANCH  22  24
ENDBRANCH  20  22
ENDBRANCH   1  20
BRANCH   2  25
ATOM     25  C   UNL     1       1.511  -4.615  -1.441  0.00  0.00    +0.223 C 
BRANCH  25  26
ATOM     26  S   UNL     1       0.030  -5.530  -1.952  0.00  0.00    +0.002 S 
ATOM     27  O   UNL     1      -1.106  -4.677  -1.927  0.00  0.00    -0.169 OA
ATOM     28  O   UNL     1       0.316  -6.323  -3.097  0.00  0.00    -0.169 OA
BRANCH  26  29
ATOM     29  C   UNL     1      -0.252  -6.694  -0.659  0.00  0.00    +0.089 A 
ATOM     30  C   UNL     1       0.330  -7.946  -0.717  0.00  0.00    +0.027 A 
ATOM     31  C   UNL     1       0.109  -8.858   0.298  0.00  0.00    +0.002 A 
ATOM     32  C   UNL     1      -0.696  -8.519   1.369  0.00  0.00    +0.000 A 
ATOM     33  C   UNL     1      -1.278  -7.266   1.427  0.00  0.00    +0.002 A 
ATOM     34  C   UNL     1      -1.052  -6.352   0.415  0.00  0.00    +0.027 A 
ENDBRANCH  26  29
ENDBRANCH  25  26
ENDBRANCH   2  25
TORSDOF 9
