REMARK  Name = ZINC63383942
REMARK  6 active torsions:
REMARK  status: ('A' for Active; 'I' for Inactive)
REMARK    1  A    between atoms: C_1  and  N_2
REMARK    2  A    between atoms: C_3  and  O_36
REMARK    3  A    between atoms: C_5  and  C_19
REMARK    4  A    between atoms: N_9  and  C_12
REMARK    5  A    between atoms: C_26  and  O_31
REMARK    6  A    between atoms: O_31  and  C_32
REMARK                            x       y       z     vdW  Elec       q    Type
REMARK                         _______ _______ _______ _____ _____    ______ ____
ROOT
ATOM      1  C   UNL     1      -4.346  -1.219   2.162  0.00  0.00    +0.136 C 
ATOM      2  N   UNL     1      -3.337  -1.211   1.100  0.00  0.00    -0.262 N 
ATOM      3  C   UNL     1      -2.798  -2.480   0.607  0.00  0.00    +0.219 C 
ATOM      4  C   UNL     1      -1.316  -2.307   0.265  0.00  0.00    +0.142 C 
ATOM      5  C   UNL     1      -1.138  -1.046  -0.543  0.00  0.00    +0.236 C 
ATOM      6  O   UNL     1      -0.292  -0.996  -1.410  0.00  0.00    -0.274 OA
ATOM      7  N   UNL     1      -1.919   0.022  -0.302  0.00  0.00    -0.194 N 
ATOM      8  C   UNL     1      -2.924  -0.041   0.588  0.00  0.00    +0.317 C 
ATOM      9  O   UNL     1      -3.470   0.987   0.941  0.00  0.00    -0.252 OA
ENDROOT
BRANCH   4  10
ATOM     10  C   UNL     1      -0.501  -2.208   1.556  0.00  0.00    +0.096 C 
ATOM     11  C   UNL     1      -0.481  -3.567   2.259  0.00  0.00    +0.124 C 
ATOM     12  C   UNL     1       0.197  -3.340   3.605  0.00  0.00    -0.036 C 
ATOM     13  C   UNL     1       1.191  -4.214   3.676  0.00  0.00    +0.003 A 
ATOM     14  C   UNL     1       2.143  -4.538   4.750  0.00  0.00    +0.055 A 
ATOM     15  C   UNL     1       3.066  -5.500   4.479  0.00  0.00    +0.121 A 
ATOM     16  C   UNL     1       3.152  -6.182   3.256  0.00  0.00    +0.047 A 
ATOM     17  C   UNL     1       2.324  -5.967   2.202  0.00  0.00    +0.029 A 
ATOM     18  C   UNL     1       1.278  -4.950   2.377  0.00  0.00    +0.043 A 
ATOM     19  N   UNL     1       0.331  -4.555   1.550  0.00  0.00    -0.376 N 
ATOM     20  C   UNL     1      -0.230  -2.225   4.529  0.00  0.00    +0.048 C 
ATOM     21  C   UNL     1      -0.324  -0.958   3.659  0.00  0.00    +0.085 C 
ATOM     22  N   UNL     1      -1.122  -1.227   2.460  0.00  0.00    -0.310 NA
ATOM     23  H   UNL     1      -1.340  -0.371   1.971  0.00  0.00    +0.122 HD
ATOM     24  H   UNL     1       0.192  -4.855   0.638  0.00  0.00    +0.160 HD
BRANCH  15  25
ATOM     25  O   UNL     1       3.959  -5.821   5.452  0.00  0.00    -0.495 OA
ATOM     26  C   UNL     1       4.919  -6.834   5.144  0.00  0.00    +0.277 C 
ENDBRANCH  15  25
ENDBRANCH   4  10
BRANCH   7  27
ATOM     27  C   UNL     1      -1.685   1.220  -0.993  0.00  0.00    +0.045 A 
ATOM     28  C   UNL     1      -2.354   1.479  -2.182  0.00  0.00    +0.025 A 
ATOM     29  C   UNL     1      -2.121   2.659  -2.861  0.00  0.00    +0.022 A 
ATOM     30  C   UNL     1      -1.221   3.582  -2.358  0.00  0.00    +0.041 A 
ATOM     31  C   UNL     1      -0.552   3.325  -1.174  0.00  0.00    +0.022 A 
ATOM     32  C   UNL     1      -0.787   2.150  -0.488  0.00  0.00    +0.025 A 
ATOM     33 CL   UNL     1      -0.930   5.064  -3.214  0.00  0.00    -0.084 Cl
ENDBRANCH   7  27
BRANCH   3  34
ATOM     34  O   UNL     1      -2.939  -3.482   1.617  0.00  0.00    -0.373 OA
ATOM     35  H   UNL     1      -3.854  -3.645   1.883  0.00  0.00    +0.212 HD
ENDBRANCH   3  34
TORSDOF 4
