REMARK  Name = ZINC35451018
REMARK  12 active torsions:
REMARK  status: ('A' for Active; 'I' for Inactive)
REMARK    1  A    between atoms: C_1  and  C_2
REMARK    2  A    between atoms: C_2  and  C_3
REMARK    3  A    between atoms: C_3  and  C_4
REMARK    4  A    between atoms: C_4  and  S_5
REMARK    5  A    between atoms: S_5  and  C_6
REMARK    6  A    between atoms: C_13  and  C_25
REMARK    7  A    between atoms: C_19  and  C_23
REMARK    8  A    between atoms: C_19  and  C_24
REMARK    9  A    between atoms: C_27  and  O_33
REMARK   10  A    between atoms: C_30  and  O_31
REMARK   11  A    between atoms: O_31  and  C_32
REMARK   12  A    between atoms: O_33  and  C_34
REMARK                            x       y       z     vdW  Elec       q    Type
REMARK                         _______ _______ _______ _____ _____    ______ ____
ROOT
ATOM      1  C   UNL     1       1.579  -4.396   2.548  0.00  0.00    +0.171 A 
ATOM      2  N   UNL     1       0.978  -4.931   1.505  0.00  0.00    -0.208 NA
ATOM      3  C   UNL     1       0.912  -6.258   1.352  0.00  0.00    +0.135 A 
ATOM      4  C   UNL     1       1.484  -7.090   2.299  0.00  0.00    +0.069 A 
ATOM      5  C   UNL     1       2.119  -6.516   3.407  0.00  0.00    +0.258 A 
ATOM      6  O   UNL     1       2.632  -7.219   4.263  0.00  0.00    -0.267 OA
ATOM      7  N   UNL     1       2.158  -5.170   3.508  0.00  0.00    -0.302 N 
ATOM      8  C   UNL     1       1.431  -8.580   2.143  0.00  0.00    +0.096 C 
ATOM      9  C   UNL     1       0.370  -8.992   1.154  0.00  0.00    +0.024 C 
ATOM     10  C   UNL     1      -0.149  -8.107   0.277  0.00  0.00    +0.017 C 
ATOM     11  N   UNL     1       0.273  -6.806   0.257  0.00  0.00    -0.302 N 
ATOM     12  C   UNL     1      -1.215  -8.524  -0.707  0.00  0.00    +0.058 C 
ATOM     13  C   UNL     1      -1.026  -9.997  -1.077  0.00  0.00    -0.023 C 
ATOM     14  C   UNL     1      -1.097 -10.831   0.206  0.00  0.00    +0.086 C 
ATOM     15  C   UNL     1      -0.060 -10.331   1.173  0.00  0.00    +0.162 C 
ATOM     16  O   UNL     1       0.415 -11.098   1.987  0.00  0.00    -0.292 OA
ATOM     17  C   UNL     1      -2.133 -10.433  -2.038  0.00  0.00    +0.011 C 
ATOM     18  C   UNL     1       0.339 -10.190  -1.742  0.00  0.00    +0.011 C 
ATOM     19  H   UNL     1       0.122  -6.263  -0.532  0.00  0.00    +0.153 HD
ATOM     20  H   UNL     1       2.596  -4.755   4.267  0.00  0.00    +0.171 HD
ENDROOT
BRANCH   8  21
ATOM     21  C   UNL     1       2.771  -9.073   1.661  0.00  0.00    +0.010 A 
ATOM     22  C   UNL     1       3.283  -8.620   0.461  0.00  0.00    +0.053 A 
ATOM     23  C   UNL     1       4.516  -9.073   0.017  0.00  0.00    +0.121 A 
ATOM     24  C   UNL     1       5.236  -9.982   0.779  0.00  0.00    +0.049 A 
ATOM     25  C   UNL     1       4.725 -10.435   1.979  0.00  0.00    +0.049 A 
ATOM     26  C   UNL     1       3.493  -9.978   2.425  0.00  0.00    +0.124 A 
BRANCH  26  27
ATOM     27  O   UNL     1       2.992 -10.420   3.609  0.00  0.00    -0.495 OA
ATOM     28  C   UNL     1       3.789 -11.351   4.344  0.00  0.00    +0.277 C 
ENDBRANCH  26  27
BRANCH  23  29
ATOM     29  O   UNL     1       5.020  -8.627  -1.165  0.00  0.00    -0.495 OA
ATOM     30  C   UNL     1       6.295  -9.135  -1.560  0.00  0.00    +0.277 C 
ENDBRANCH  23  29
ENDBRANCH   8  21
BRANCH   1  31
ATOM     31  S   UNL     1       1.640  -2.642   2.703  0.00  0.00    -0.088 S 
BRANCH  31  32
ATOM     32  C   UNL     1       0.763  -2.041   1.233  0.00  0.00    +0.077 C 
BRANCH  32  33
ATOM     33  C   UNL     1       0.742  -0.511   1.242  0.00  0.00    +0.011 C 
BRANCH  33  35
ATOM     34  C   UNL     1      -0.019   1.526   0.010  0.00  0.00    +0.004 C 
ATOM     35  C   UNL     1       0.002  -0.004   0.002  0.00  0.00    -0.003 C 
ENDBRANCH  33  35
ENDBRANCH  32  33
ENDBRANCH  31  32
ENDBRANCH   1  31
TORSDOF 7
