REMARK  Name = ZINC35403771
REMARK  8 active torsions:
REMARK  status: ('A' for Active; 'I' for Inactive)
REMARK    1  A    between atoms: C_1  and  C_2
REMARK    2  A    between atoms: C_2  and  C_3
REMARK    3  A    between atoms: C_7  and  C_37
REMARK    4  A    between atoms: C_8  and  N_9
REMARK    5  A    between atoms: C_14  and  C_31
REMARK    6  A    between atoms: C_17  and  C_22
REMARK    7  A    between atoms: C_17  and  C_28
REMARK    8  A    between atoms: C_37  and  C_38
REMARK                            x       y       z     vdW  Elec       q    Type
REMARK                         _______ _______ _______ _____ _____    ______ ____
ROOT
ATOM      1  N   UNL     1       3.597   0.930  -0.393  0.00  0.00    -0.209 N 
ATOM      2  C   UNL     1       4.198   2.108  -0.025  0.00  0.00    +0.229 C 
ATOM      3  O   UNL     1       4.001   3.214  -0.481  0.00  0.00    -0.275 OA
ATOM      4  C   UNL     1       5.116   1.736   1.026  0.00  0.00    +0.078 C 
ATOM      5  C   UNL     1       5.876   2.344   2.127  0.00  0.00    -0.019 C 
ATOM      6  N   UNL     1       6.221   1.190   3.021  0.00  0.00    +0.399 N 
ATOM      7  C   UNL     1       5.542  -0.027   2.469  0.00  0.00    +0.074 C 
ATOM      8  C   UNL     1       4.317   0.584   1.755  0.00  0.00    +0.091 C 
ATOM      9  C   UNL     1       3.822  -0.080   0.499  0.00  0.00    +0.229 C 
ATOM     10  O   UNL     1       3.659  -1.267   0.316  0.00  0.00    -0.275 OA
ATOM     11  H   UNL     1       7.220   1.051   3.030  0.00  0.00    -0.083 HD
ATOM     12  H   UNL     1       5.891   1.371   3.957  0.00  0.00    -0.083 HD
ENDROOT
BRANCH   1  18
ATOM     13  C   UNL     1       1.448   0.894  -1.498  0.00  0.00    -0.026 A 
ATOM     14  C   UNL     1       0.695   0.752  -2.647  0.00  0.00    +0.005 A 
ATOM     15  C   UNL     1       1.316   0.490  -3.855  0.00  0.00    +0.001 A 
ATOM     16  C   UNL     1       2.692   0.370  -3.916  0.00  0.00    +0.005 A 
ATOM     17  C   UNL     1       3.450   0.512  -2.770  0.00  0.00    -0.026 A 
ATOM     18  C   UNL     1       2.830   0.780  -1.557  0.00  0.00    +0.050 A 
BRANCH  13  20
ATOM     19  C   UNL     1       0.758   2.689   0.068  0.00  0.00    +0.009 C 
ATOM     20  C   UNL     1       0.770   1.180  -0.183  0.00  0.00    +0.033 C 
ENDBRANCH  13  20
BRANCH  17  21
ATOM     21  C   UNL     1       4.950   0.382  -2.837  0.00  0.00    +0.033 C 
ATOM     22  C   UNL     1       5.351  -1.062  -2.524  0.00  0.00    +0.009 C 
ENDBRANCH  17  21
ENDBRANCH   1  18
BRANCH   7  23
ATOM     23  C   UNL     1       6.446  -0.752   1.505  0.00  0.00    -0.047 A 
ATOM     24  C   UNL     1       7.614  -0.154   1.070  0.00  0.00    +0.003 A 
ATOM     25  C   UNL     1       8.443  -0.819   0.186  0.00  0.00    +0.000 A 
ATOM     26  C   UNL     1       8.105  -2.081  -0.263  0.00  0.00    +0.000 A 
ATOM     27  C   UNL     1       6.937  -2.679   0.173  0.00  0.00    +0.000 A 
ATOM     28  C   UNL     1       6.110  -2.017   1.060  0.00  0.00    +0.003 A 
ENDBRANCH   7  23
BRANCH   5  29
ATOM     29  C   UNL     1       5.026   3.348   2.862  0.00  0.00    -0.022 A 
ATOM     30  C   UNL     1       5.009   4.698   2.748  0.00  0.00    +0.011 A 
ATOM     31  C   UNL     1       4.134   5.427   3.534  0.00  0.00    +0.028 A 
ATOM     32  C   UNL     1       3.320   4.768   4.395  0.00  0.00    +0.078 A 
ATOM     33  S   UNL     1       3.774   3.066   4.104  0.00  0.00    -0.083 S 
ATOM     34 CL   UNL     1       2.138   5.411   5.491  0.00  0.00    -0.076 Cl
ENDBRANCH   5  29
BRANCH   7  35
ATOM     35  C   UNL     1       5.101  -0.943   3.581  0.00  0.00    +0.350 C 
ATOM     36  O   UNL     1       5.340  -0.653   4.741  0.00  0.00    -0.248 OA
ATOM     37  O   UNL     1       4.504  -1.974   3.321  0.00  0.00    -0.248 OA
ENDBRANCH   7  35
TORSDOF 6
