REMARK  Name = ZINC12884351
REMARK  10 active torsions:
REMARK  status: ('A' for Active; 'I' for Inactive)
REMARK    1  A    between atoms: C_1  and  C_2
REMARK    2  A    between atoms: N_13  and  C_26
REMARK    3  A    between atoms: C_14  and  S_16
REMARK    4  A    between atoms: S_16  and  C_17
REMARK    5  A    between atoms: C_17  and  C_18
REMARK    6  A    between atoms: C_18  and  C_19
REMARK    7  A    between atoms: N_24  and  C_25
REMARK    8  A    between atoms: C_26  and  C_27
REMARK    9  A    between atoms: C_27  and  C_28
REMARK   10  A    between atoms: C_27  and  C_29
REMARK                            x       y       z     vdW  Elec       q    Type
REMARK                         _______ _______ _______ _____ _____    ______ ____
ROOT
ATOM      1  C   UNL     1      -0.759   1.596  -1.226  0.00  0.00    +0.008 C 
ATOM      2  C   UNL     1      -0.013   1.086   0.008  0.00  0.00    -0.009 C 
ATOM      3  C   UNL     1      -0.710   1.583   1.277  0.00  0.00    +0.008 C 
ATOM      4  C   UNL     1      -0.125   0.880   2.502  0.00  0.00    +0.037 C 
ATOM      5  C   UNL     1       1.393   1.037   2.484  0.00  0.00    -0.023 A 
ATOM      6  C   UNL     1       2.037   1.368   1.341  0.00  0.00    -0.004 A 
ATOM      7  S   UNL     1       3.756   1.439   1.778  0.00  0.00    -0.073 S 
ATOM      8  C   UNL     1       3.610   1.025   3.488  0.00  0.00    +0.117 A 
ATOM      9  C   UNL     1       2.219   0.844   3.665  0.00  0.00    +0.076 A 
ATOM     10  C   UNL     1       1.766   0.492   4.978  0.00  0.00    +0.263 A 
ATOM     11  O   UNL     1       0.587   0.316   5.230  0.00  0.00    -0.267 OA
ATOM     12  N   UNL     1       2.729   0.369   5.922  0.00  0.00    -0.287 N 
ATOM     13  C   UNL     1       4.051   0.561   5.661  0.00  0.00    +0.173 A 
ATOM     14  N   UNL     1       4.505   0.887   4.458  0.00  0.00    -0.216 NA
ATOM     15  C   UNL     1       1.426   1.621  -0.003  0.00  0.00    +0.046 C 
ENDROOT
BRANCH  13  16
ATOM     16  S   UNL     1       5.208   0.369   6.976  0.00  0.00    -0.087 S 
BRANCH  16  17
ATOM     17  C   UNL     1       6.748   0.728   6.095  0.00  0.00    +0.086 C 
BRANCH  17  18
ATOM     18  C   UNL     1       7.927   0.619   7.064  0.00  0.00    +0.107 C 
BRANCH  18  19
ATOM     19  C   UNL     1       9.209   0.918   6.330  0.00  0.00    +0.221 C 
ATOM     20  O   UNL     1       9.183   1.190   5.149  0.00  0.00    -0.275 OA
ATOM     21  N   UNL     1      10.386   0.881   6.987  0.00  0.00    -0.240 N 
ATOM     22  C   UNL     1      11.532   1.148   6.331  0.00  0.00    +0.306 C 
ATOM     23  O   UNL     1      11.505   1.422   5.147  0.00  0.00    -0.252 OA
ATOM     24  N   UNL     1      12.709   1.112   6.988  0.00  0.00    -0.302 N 
ATOM     25  C   UNL     1      13.955   1.402   6.274  0.00  0.00    +0.129 C 
ATOM     26  H   UNL     1      10.407   0.663   7.932  0.00  0.00    +0.159 HD
ATOM     27  H   UNL     1      12.730   0.893   7.932  0.00  0.00    +0.150 HD
ENDBRANCH  18  19
ENDBRANCH  17  18
ENDBRANCH  16  17
ENDBRANCH  13  16
BRANCH  12  28
ATOM     28  C   UNL     1       2.330   0.012   7.285  0.00  0.00    +0.130 C 
BRANCH  28  29
ATOM     29  C   UNL     1       2.051   1.286   8.085  0.00  0.00    +0.003 C 
ATOM     30  C   UNL     1       0.844   2.010   7.487  0.00  0.00    +0.009 C 
ATOM     31  C   UNL     1       1.756   0.920   9.541  0.00  0.00    +0.009 C 
ENDBRANCH  28  29
ENDBRANCH  12  28
TORSDOF 6
