REMARK  Name = ZINC38985179
REMARK  7 active torsions:
REMARK  status: ('A' for Active; 'I' for Inactive)
REMARK    1  A    between atoms: C_1  and  C_2
REMARK    2  A    between atoms: C_2  and  C_4
REMARK    3  A    between atoms: C_4  and  S_5
REMARK    4  A    between atoms: S_5  and  C_6
REMARK    5  A    between atoms: C_10  and  C_14
REMARK    6  A    between atoms: N_12  and  N_13
REMARK    7  A    between atoms: C_17  and  C_20
REMARK                            x       y       z     vdW  Elec       q    Type
REMARK                         _______ _______ _______ _____ _____    ______ ____
ROOT
ATOM      1  C   UNL     1      -3.553  -1.675   1.512  0.00  0.00    +0.214 C 
ATOM      2  N   UNL     1      -3.244  -3.047   1.049  0.00  0.00    -0.228 NA
ATOM      3  N   UNL     1      -4.352  -3.386   0.141  0.00  0.00    -0.234 NA
ATOM      4  C   UNL     1      -4.616  -2.103  -0.560  0.00  0.00    +0.185 C 
ATOM      5  N   UNL     1      -4.428  -1.070   0.486  0.00  0.00    -0.197 NA
ATOM      6  H   UNL     1      -3.203  -3.690   1.825  0.00  0.00    +0.143 HD
ATOM      7  H   UNL     1      -5.164  -3.689   0.659  0.00  0.00    +0.143 HD
ENDROOT
BRANCH   4   8
ATOM      8  C   UNL     1      -6.049  -2.070  -1.096  0.00  0.00    +0.187 C 
ATOM      9  C   UNL     1      -6.290  -3.225  -2.052  0.00  0.00    +0.034 C 
ATOM     10  C   UNL     1      -6.584  -2.620  -3.220  0.00  0.00    +0.091 C 
ATOM     11  N   UNL     1      -6.547  -1.270  -3.077  0.00  0.00    -0.154 NA
ATOM     12  N   UNL     1      -6.263  -0.882  -1.938  0.00  0.00    -0.176 NA
BRANCH  10  13
ATOM     13  C   UNL     1      -6.902  -3.329  -4.484  0.00  0.00    +0.002 A 
ATOM     14  C   UNL     1      -6.916  -4.723  -4.519  0.00  0.00    +0.011 A 
ATOM     15  C   UNL     1      -7.213  -5.378  -5.697  0.00  0.00    +0.020 A 
ATOM     16  C   UNL     1      -7.494  -4.653  -6.843  0.00  0.00    +0.041 A 
ATOM     17  C   UNL     1      -7.481  -3.269  -6.813  0.00  0.00    +0.020 A 
ATOM     18  C   UNL     1      -7.192  -2.605  -5.638  0.00  0.00    +0.011 A 
ATOM     19 CL   UNL     1      -7.865  -5.483  -8.322  0.00  0.00    -0.084 Cl
ENDBRANCH  10  13
ENDBRANCH   4   8
BRANCH   5  20
ATOM     20  N   UNL     1      -5.702  -0.669   1.059  0.00  0.00    -0.264 NA
ATOM     21  H   UNL     1      -5.571   0.008   1.795  0.00  0.00    +0.137 HD
ATOM     22  H   UNL     1      -6.323  -0.314   0.347  0.00  0.00    +0.137 HD
ENDBRANCH   5  20
BRANCH   1  23
ATOM     23  S   UNL     1      -2.023  -0.713   1.670  0.00  0.00    -0.120 S 
BRANCH  23  24
ATOM     24  C   UNL     1      -1.293  -0.775   0.010  0.00  0.00    +0.101 C 
BRANCH  24  26
ATOM     25  C   UNL     1      -0.018   1.503   0.010  0.00  0.00    +0.039 C 
ATOM     26  C   UNL     1       0.002  -0.004   0.002  0.00  0.00    -0.070 C 
ATOM     27  C   UNL     1       1.145  -0.644  -0.012  0.00  0.00    +0.008 C 
ENDBRANCH  24  26
ENDBRANCH  23  24
ENDBRANCH   1  23
TORSDOF 6
