REMARK  Name = ZINC39758628
REMARK  8 active torsions:
REMARK  status: ('A' for Active; 'I' for Inactive)
REMARK    1  A    between atoms: C_4  and  C_7
REMARK    2  A    between atoms: C_7  and  C_9
REMARK    3  A    between atoms: C_7  and  N_16
REMARK    4  A    between atoms: C_9  and  C_10
REMARK    5  A    between atoms: C_17  and  C_19
REMARK    6  A    between atoms: C_19  and  O_20
REMARK    7  A    between atoms: O_20  and  C_21
REMARK    8  A    between atoms: C_21  and  C_22
REMARK                            x       y       z     vdW  Elec       q    Type
REMARK                         _______ _______ _______ _____ _____    ______ ____
ROOT
ATOM      1  N   UNL     1       3.630  -1.873   0.845  0.00  0.00    -0.306 N 
ATOM      2  C   UNL     1       4.751  -2.385   1.391  0.00  0.00    +0.239 C 
ATOM      3  O   UNL     1       5.828  -1.880   1.151  0.00  0.00    -0.273 OA
ATOM      4  H   UNL     1       2.769  -2.277   1.038  0.00  0.00    +0.149 HD
ENDROOT
BRANCH   1   5
ATOM      5  C   UNL     1       3.711  -0.707  -0.038  0.00  0.00    +0.110 C 
BRANCH   5   9
ATOM      6  C   UNL     1      -0.017   1.378   0.010  0.00  0.00    +0.000 A 
ATOM      7  C   UNL     1       1.171   2.086   0.002  0.00  0.00    +0.000 A 
ATOM      8  C   UNL     1       2.377   1.411  -0.013  0.00  0.00    +0.005 A 
ATOM      9  C   UNL     1       2.396   0.029  -0.020  0.00  0.00    -0.027 A 
ATOM     10  C   UNL     1       1.208  -0.679  -0.012  0.00  0.00    +0.005 A 
ATOM     11  C   UNL     1       0.002  -0.004   0.002  0.00  0.00    +0.000 A 
ENDBRANCH   5   9
BRANCH   5  12
ATOM     12  C   UNL     1       4.019  -1.168  -1.464  0.00  0.00    +0.099 C 
BRANCH  12  13
ATOM     13  C   UNL     1       5.389  -1.794  -1.504  0.00  0.00    +0.086 A 
ATOM     14  N   UNL     1       6.523  -1.153  -1.736  0.00  0.00    -0.350 N 
ATOM     15  H   UNL     1       6.613  -0.203  -1.909  0.00  0.00    +0.166 HD
ATOM     16  C   UNL     1       7.531  -2.048  -1.692  0.00  0.00    +0.101 A 
ATOM     17  C   UNL     1       6.988  -3.253  -1.427  0.00  0.00    +0.101 A 
ATOM     18  N   UNL     1       5.655  -3.076  -1.309  0.00  0.00    -0.350 N 
ATOM     19  H   UNL     1       5.005  -3.769  -1.116  0.00  0.00    +0.166 HD
ENDBRANCH  12  13
ENDBRANCH   5  12
ENDBRANCH   1   5
BRANCH   2  20
ATOM     20  C   UNL     1       4.668  -3.585   2.299  0.00  0.00    +0.255 C 
BRANCH  20  21
ATOM     21  O   UNL     1       5.979  -3.935   2.747  0.00  0.00    -0.368 OA
BRANCH  21  22
ATOM     22  C   UNL     1       6.012  -5.067   3.619  0.00  0.00    +0.194 C 
BRANCH  22  23
ATOM     23  C   UNL     1       7.458  -5.349   4.033  0.00  0.00    +0.159 C 
ATOM     24  N   UNL     1       8.067  -4.170   4.663  0.00  0.00    -0.329 N 
ATOM     25  C   UNL     1       9.176  -3.605   4.034  0.00  0.00    +0.042 A 
ATOM     26  C   UNL     1       9.887  -2.479   4.487  0.00  0.00    +0.024 A 
ATOM     27  C   UNL     1      10.972  -1.996   3.793  0.00  0.00    +0.002 A 
ATOM     28  C   UNL     1      11.400  -2.600   2.625  0.00  0.00    +0.001 A 
ATOM     29  C   UNL     1      10.718  -3.710   2.156  0.00  0.00    +0.016 A 
ATOM     30  C   UNL     1       9.633  -4.193   2.852  0.00  0.00    +0.031 A 
ATOM     31  S   UNL     1       8.537  -5.565   2.561  0.00  0.00    -0.099 S 
ATOM     32  H   UNL     1       7.711  -3.799   5.485  0.00  0.00    +0.147 HD
ENDBRANCH  22  23
ENDBRANCH  21  22
ENDBRANCH  20  21
ENDBRANCH   2  20
TORSDOF 8
