REMARK  Name = ZINC41802994
REMARK  8 active torsions:
REMARK  status: ('A' for Active; 'I' for Inactive)
REMARK    1  A    between atoms: C_1  and  C_2
REMARK    2  A    between atoms: C_2  and  C_3
REMARK    3  A    between atoms: C_3  and  C_4
REMARK    4  A    between atoms: C_3  and  C_11
REMARK    5  A    between atoms: C_3  and  N_14
REMARK    6  A    between atoms: N_14  and  C_15
REMARK    7  A    between atoms: C_15  and  C_17
REMARK    8  A    between atoms: C_15  and  C_18
REMARK                            x       y       z     vdW  Elec       q    Type
REMARK                         _______ _______ _______ _____ _____    ______ ____
ROOT
ATOM      1  C   UNL     1      -1.880  -0.537   0.154  0.00  0.00    +0.062 C 
ENDROOT
BRANCH   1   2
ATOM      2  C   UNL     1      -3.000   0.436   0.419  0.00  0.00    -0.048 A 
ATOM      3  C   UNL     1      -3.535   1.174  -0.621  0.00  0.00    +0.004 A 
ATOM      4  C   UNL     1      -4.562   2.066  -0.379  0.00  0.00    +0.015 A 
ATOM      5  C   UNL     1      -5.056   2.221   0.904  0.00  0.00    +0.018 A 
ATOM      6  C   UNL     1      -4.520   1.483   1.944  0.00  0.00    +0.015 A 
ATOM      7  C   UNL     1      -3.496   0.587   1.700  0.00  0.00    +0.004 A 
ATOM      8 BR   UNL     1      -6.461   3.441   1.236  0.00  0.00    -0.050 Br
ENDBRANCH   1   2
BRANCH   1   9
ATOM      9  C   UNL     1      -2.319  -1.925   0.540  0.00  0.00    +0.350 C 
ATOM     10  O   UNL     1      -1.934  -2.418   1.587  0.00  0.00    -0.248 OA
ATOM     11  O   UNL     1      -3.060  -2.557  -0.194  0.00  0.00    -0.248 OA
ENDBRANCH   1   9
BRANCH   1  12
ATOM     12  N   UNL     1      -1.536  -0.511  -1.274  0.00  0.00    +0.399 N 
ATOM     13  H   UNL     1      -2.320  -0.845  -1.815  0.00  0.00    -0.083 HD
ATOM     14  H   UNL     1      -1.316   0.434  -1.550  0.00  0.00    -0.083 HD
BRANCH  12  15
ATOM     15  C   UNL     1      -0.373  -1.375  -1.513  0.00  0.00    -0.005 C 
ATOM     16  C   UNL     1      -0.763  -2.835  -1.272  0.00  0.00    -0.006 C 
BRANCH  15  17
ATOM     17  C   UNL     1       0.092  -1.209  -2.937  0.00  0.00    +0.091 A 
ATOM     18  C   UNL     1       1.373  -1.163  -3.346  0.00  0.00    +0.043 A 
ATOM     19  C   UNL     1       1.349  -0.998  -4.750  0.00  0.00    +0.041 A 
ATOM     20  C   UNL     1       0.055  -0.954  -5.115  0.00  0.00    +0.195 A 
ATOM     21  O   UNL     1      -0.702  -1.088  -4.014  0.00  0.00    -0.469 OA
ENDBRANCH  15  17
ENDBRANCH  12  15
ENDBRANCH   1  12
BRANCH   1  23
ATOM     22  C   UNL     1      -0.209   1.269   0.588  0.00  0.00    +0.003 C 
ATOM     23  C   UNL     1      -0.655  -0.141   0.980  0.00  0.00    +0.000 C 
ENDBRANCH   1  23
TORSDOF 6
