REMARK  Name = ZINC40658408
REMARK  6 active torsions:
REMARK  status: ('A' for Active; 'I' for Inactive)
REMARK    1  A    between atoms: C_1  and  C_2
REMARK    2  A    between atoms: C_11  and  N_12
REMARK    3  A    between atoms: C_14  and  N_30
REMARK    4  A    between atoms: C_15  and  N_19
REMARK    5  A    between atoms: N_19  and  N_20
REMARK    6  A    between atoms: C_21  and  C_23
REMARK                            x       y       z     vdW  Elec       q    Type
REMARK                         _______ _______ _______ _____ _____    ______ ____
ROOT
ATOM      1  N   UNL     1       0.063  -4.885  -1.143  0.00  0.00    -0.297 N 
ATOM      2  C   UNL     1       0.187  -6.266  -1.088  0.00  0.00    +0.159 A 
ATOM      3  C   UNL     1       0.302  -7.012  -2.257  0.00  0.00    +0.207 A 
ATOM      4  C   UNL     1       0.424  -8.394  -2.147  0.00  0.00    +0.171 A 
ATOM      5  N   UNL     1       0.426  -8.949  -0.937  0.00  0.00    -0.217 NA
ATOM      6  C   UNL     1       0.315  -8.207   0.147  0.00  0.00    +0.225 A 
ATOM      7  N   UNL     1       0.203  -6.896   0.085  0.00  0.00    -0.218 NA
ATOM      8  H   UNL     1      -0.032  -4.441  -2.000  0.00  0.00    +0.154 HD
ENDROOT
BRANCH   1  19
ATOM      9  C   UNL     1      -2.363   0.939   0.385  0.00  0.00    +0.063 C 
ATOM     10  C   UNL     1      -1.717  -0.418   0.277  0.00  0.00    +0.013 A 
ATOM     11  C   UNL     1      -1.772  -1.100  -0.935  0.00  0.00    +0.021 A 
ATOM     12  C   UNL     1      -1.190  -2.332  -1.051  0.00  0.00    +0.013 A 
ATOM     13  C   UNL     1      -0.549  -2.872   0.077  0.00  0.00    +0.020 A 
ATOM     14  C   UNL     1      -0.529  -2.125   1.280  0.00  0.00    +0.048 A 
ATOM     15  N   UNL     1      -1.112  -0.922   1.326  0.00  0.00    -0.358 N 
ATOM     16  C   UNL     1       0.112  -2.662   2.410  0.00  0.00    +0.026 A 
ATOM     17  C   UNL     1       0.705  -3.886   2.341  0.00  0.00    +0.004 A 
ATOM     18  C   UNL     1       0.691  -4.627   1.164  0.00  0.00    +0.024 A 
ATOM     19  C   UNL     1       0.073  -4.137   0.032  0.00  0.00    +0.042 A 
ATOM     20  H   UNL     1      -1.091  -0.415   2.152  0.00  0.00    +0.166 HD
ENDBRANCH   1  19
BRANCH   3  21
ATOM     21  N   UNL     1       0.294  -6.353  -3.582  0.00  0.00    +0.063 N 
ATOM     22  O   UNL     1       1.333  -5.988  -4.082  0.00  0.00    -0.126 OA
ATOM     23  O   UNL     1      -0.751  -6.179  -4.165  0.00  0.00    -0.126 OA
ENDBRANCH   3  21
BRANCH   4  24
ATOM     24  N   UNL     1       0.541  -9.181  -3.282  0.00  0.00    -0.246 N 
ATOM     25  H   UNL     1       0.538  -8.770  -4.161  0.00  0.00    +0.172 HD
BRANCH  24  26
ATOM     26  N   UNL     1       0.663 -10.572  -3.160  0.00  0.00    -0.231 N 
ATOM     27  C   UNL     1       0.777 -11.338  -4.263  0.00  0.00    +0.261 C 
ATOM     28  O   UNL     1       0.773 -10.822  -5.364  0.00  0.00    -0.269 OA
ATOM     29  H   UNL     1       0.666 -10.983  -2.282  0.00  0.00    +0.173 HD
BRANCH  27  30
ATOM     30  C   UNL     1       0.906 -12.804  -4.135  0.00  0.00    +0.052 A 
ATOM     31  C   UNL     1       0.905 -13.400  -2.872  0.00  0.00    +0.014 A 
ATOM     32  C   UNL     1       1.025 -14.770  -2.759  0.00  0.00    +0.001 A 
ATOM     33  C   UNL     1       1.147 -15.553  -3.893  0.00  0.00    +0.001 A 
ATOM     34  C   UNL     1       1.150 -14.970  -5.147  0.00  0.00    +0.016 A 
ATOM     35  C   UNL     1       1.024 -13.601  -5.276  0.00  0.00    +0.030 A 
ATOM     36 BR   UNL     1       1.019 -12.806  -6.992  0.00  0.00    -0.050 Br
ENDBRANCH  27  30
ENDBRANCH  24  26
ENDBRANCH   4  24
TORSDOF 5
