REMARK  Name = ZINC01375956
REMARK  11 active torsions:
REMARK  status: ('A' for Active; 'I' for Inactive)
REMARK    1  A    between atoms: C_1  and  C_2
REMARK    2  A    between atoms: C_2  and  C_3
REMARK    3  A    between atoms: C_3  and  C_5
REMARK    4  A    between atoms: C_3  and  N_18
REMARK    5  A    between atoms: N_9  and  C_10
REMARK    6  A    between atoms: C_10  and  C_11
REMARK    7  A    between atoms: N_18  and  C_19
REMARK    8  A    between atoms: N_18  and  C_27
REMARK    9  A    between atoms: C_19  and  C_20
REMARK   10  A    between atoms: C_20  and  C_21
REMARK   11  A    between atoms: C_27  and  C_28
REMARK                            x       y       z     vdW  Elec       q    Type
REMARK                         _______ _______ _______ _____ _____    ______ ____
ROOT
ATOM      1  N   UNL     1      -3.692  -0.502  -1.312  0.00  0.00    +0.389 N 
ATOM      2  H   UNL     1      -3.618  -0.934  -2.221  0.00  0.00    -0.080 HD
ENDROOT
BRANCH   1   3
ATOM      3  C   UNL     1      -2.469  -0.769  -0.543  0.00  0.00    +0.003 C 
BRANCH   3   4
ATOM      4  C   UNL     1      -2.550  -0.069   0.789  0.00  0.00    +0.138 A 
ATOM      5  N   UNL     1      -3.642   0.229   1.451  0.00  0.00    -0.115 NA
ATOM      6  N   UNL     1      -3.297   0.821   2.542  0.00  0.00    -0.023 NA
ATOM      7  N   UNL     1      -2.014   0.908   2.593  0.00  0.00    -0.044 NA
ATOM      8  N   UNL     1      -1.517   0.366   1.533  0.00  0.00    -0.226 N 
BRANCH   8   9
ATOM      9  C   UNL     1      -0.095   0.249   1.200  0.00  0.00    +0.182 C 
BRANCH   9  10
ATOM     10  C   UNL     1       0.377   1.528   0.558  0.00  0.00    -0.026 A 
ATOM     11  C   UNL     1       0.409   1.639  -0.820  0.00  0.00    +0.008 A 
ATOM     12  C   UNL     1       0.841   2.811  -1.410  0.00  0.00    +0.038 A 
ATOM     13  C   UNL     1       1.243   3.875  -0.620  0.00  0.00    +0.123 A 
ATOM     14  C   UNL     1       1.212   3.763   0.759  0.00  0.00    +0.038 A 
ATOM     15  C   UNL     1       0.774   2.592   1.347  0.00  0.00    +0.008 A 
ATOM     16  F   UNL     1       1.667   5.022  -1.196  0.00  0.00    -0.205 F 
ENDBRANCH   9  10
ENDBRANCH   8   9
ENDBRANCH   3   4
BRANCH   3  18
ATOM     17  C   UNL     1      -2.200  -2.982  -1.672  0.00  0.00    +0.002 C 
ATOM     18  C   UNL     1      -2.325  -2.275  -0.320  0.00  0.00    -0.011 C 
ENDBRANCH   3  18
ENDBRANCH   1   3
BRANCH   1  19
ATOM     19  C   UNL     1      -3.862   0.949  -1.473  0.00  0.00    -0.073 C 
BRANCH  19  20
ATOM     20  C   UNL     1      -2.713   1.508  -2.314  0.00  0.00    +0.016 C 
BRANCH  20  21
ATOM     21  C   UNL     1      -2.911   2.988  -2.514  0.00  0.00    -0.049 A 
ATOM     22  C   UNL     1      -3.643   3.447  -3.593  0.00  0.00    +0.003 A 
ATOM     23  C   UNL     1      -3.825   4.805  -3.777  0.00  0.00    +0.000 A 
ATOM     24  C   UNL     1      -3.275   5.704  -2.882  0.00  0.00    +0.000 A 
ATOM     25  C   UNL     1      -2.543   5.244  -1.803  0.00  0.00    +0.000 A 
ATOM     26  C   UNL     1      -2.365   3.886  -1.617  0.00  0.00    +0.003 A 
ENDBRANCH  20  21
ENDBRANCH  19  20
ENDBRANCH   1  19
BRANCH   1  27
ATOM     27  C   UNL     1      -4.850  -1.055  -0.598  0.00  0.00    -0.037 C 
BRANCH  27  28
ATOM     28  C   UNL     1      -6.079  -0.928  -1.461  0.00  0.00    +0.001 A 
ATOM     29  C   UNL     1      -6.473  -1.972  -2.235  0.00  0.00    +0.017 A 
ATOM     30  C   UNL     1      -7.670  -1.817  -3.060  0.00  0.00    +0.002 A 
ATOM     31  C   UNL     1      -8.122  -2.860  -3.879  0.00  0.00    +0.059 A 
ATOM     32  C   UNL     1      -9.252  -2.685  -4.646  0.00  0.00    +0.167 A 
ATOM     33  C   UNL     1      -9.949  -1.471  -4.609  0.00  0.00    +0.168 A 
ATOM     34  C   UNL     1      -9.510  -0.436  -3.804  0.00  0.00    +0.075 A 
ATOM     35  C   UNL     1      -8.371  -0.597  -3.024  0.00  0.00    +0.053 A 
ATOM     36  N   UNL     1      -7.918   0.425  -2.215  0.00  0.00    -0.322 N 
ATOM     37  H   UNL     1      -8.402   1.266  -2.190  0.00  0.00    +0.169 HD
ATOM     38  C   UNL     1      -6.819   0.271  -1.456  0.00  0.00    +0.251 A 
ATOM     39  O   UNL     1      -6.450   1.194  -0.750  0.00  0.00    -0.268 OA
ATOM     40  O   UNL     1     -11.018  -1.560  -5.452  0.00  0.00    -0.453 OA
ATOM     41  C   UNL     1     -10.739  -2.680  -6.312  0.00  0.00    +0.466 C 
ATOM     42  O   UNL     1      -9.891  -3.525  -5.513  0.00  0.00    -0.453 OA
ENDBRANCH  27  28
ENDBRANCH   1  27
TORSDOF 10
