REMARK  Name = ZINC60341846
REMARK  11 active torsions:
REMARK  status: ('A' for Active; 'I' for Inactive)
REMARK    1  A    between atoms: C_1  and  C_2
REMARK    2  A    between atoms: C_2  and  N_3
REMARK    3  A    between atoms: C_6  and  C_13
REMARK    4  A    between atoms: C_8  and  C_10
REMARK    5  A    between atoms: N_15  and  C_16
REMARK    6  A    between atoms: C_16  and  C_17
REMARK    7  A    between atoms: C_17  and  C_18
REMARK    8  A    between atoms: C_17  and  C_19
REMARK    9  A    between atoms: C_17  and  N_20
REMARK   10  A    between atoms: C_22  and  C_29
REMARK   11  A    between atoms: C_25  and  C_28
REMARK                            x       y       z     vdW  Elec       q    Type
REMARK                         _______ _______ _______ _____ _____    ______ ____
ROOT
ATOM      1  N   UNL     1       0.677   1.602  -2.478  0.00  0.00    -0.278 N 
ATOM      2  C   UNL     1       0.121   0.462  -3.033  0.00  0.00    +0.151 A 
ATOM      3  C   UNL     1       0.719  -0.083  -4.183  0.00  0.00    +0.094 A 
ATOM      4  C   UNL     1       0.174  -1.239  -4.763  0.00  0.00    +0.054 A 
ATOM      5  C   UNL     1      -0.954  -1.798  -4.157  0.00  0.00    +0.037 A 
ATOM      6  C   UNL     1      -1.481  -1.198  -3.025  0.00  0.00    +0.047 A 
ATOM      7  N   UNL     1      -0.946  -0.113  -2.504  0.00  0.00    -0.233 NA
ATOM      8  C   UNL     1       1.907   0.584  -4.742  0.00  0.00    +0.264 A 
ATOM      9  O   UNL     1       2.458   0.149  -5.736  0.00  0.00    -0.267 OA
ATOM     10  N   UNL     1       2.368   1.693  -4.122  0.00  0.00    -0.274 N 
ATOM     11  H   UNL     1       3.149   2.147  -4.474  0.00  0.00    +0.173 HD
ATOM     12  C   UNL     1       1.759   2.178  -3.028  0.00  0.00    +0.331 A 
ATOM     13  O   UNL     1       2.209   3.180  -2.510  0.00  0.00    -0.246 OA
ENDROOT
BRANCH   4  14
ATOM     14  C   UNL     1       0.773  -1.845  -5.975  0.00  0.00    +0.245 C 
ATOM     15  O   UNL     1       1.962  -2.093  -6.006  0.00  0.00    -0.270 OA
ATOM     16  N   UNL     1      -0.001  -2.122  -7.044  0.00  0.00    -0.313 N 
ATOM     17  H   UNL     1      -0.950  -1.924  -7.019  0.00  0.00    +0.149 HD
BRANCH  16  18
ATOM     18  C   UNL     1       0.592  -2.721  -8.242  0.00  0.00    +0.092 C 
BRANCH  18  19
ATOM     19  C   UNL     1      -0.470  -2.823  -9.339  0.00  0.00    -0.055 C 
ATOM     20  C   UNL     1      -0.948  -1.420  -9.719  0.00  0.00    -0.008 C 
ATOM     21  C   UNL     1       0.132  -3.507 -10.568  0.00  0.00    -0.008 C 
BRANCH  19  22
ATOM     22  N   UNL     1      -1.607  -3.612  -8.847  0.00  0.00    +0.384 N 
ATOM     23  C   UNL     1      -1.155  -4.969  -8.518  0.00  0.00    -0.075 C 
ATOM     24  C   UNL     1      -2.318  -5.770  -7.930  0.00  0.00    -0.031 C 
ATOM     25  C   UNL     1      -3.452  -5.843  -8.957  0.00  0.00    +0.003 C 
ATOM     26  C   UNL     1      -3.865  -4.421  -9.348  0.00  0.00    -0.031 C 
ATOM     27  C   UNL     1      -2.645  -3.670  -9.884  0.00  0.00    -0.075 C 
ATOM     28  C   UNL     1      -4.945  -4.483 -10.431  0.00  0.00    +0.005 C 
ATOM     29  C   UNL     1      -2.821  -5.081  -6.660  0.00  0.00    +0.005 C 
ATOM     30  H   UNL     1      -1.985  -3.175  -8.020  0.00  0.00    -0.081 HD
ENDBRANCH  19  22
ENDBRANCH  18  19
ENDBRANCH  16  18
ENDBRANCH   4  14
BRANCH   6  31
ATOM     31  C   UNL     1      -2.698  -1.803  -2.374  0.00  0.00    +0.038 C 
ATOM     32  C   UNL     1      -3.513  -2.806  -3.193  0.00  0.00    +0.010 C 
ATOM     33  C   UNL     1      -4.067  -1.405  -2.928  0.00  0.00    +0.010 C 
ENDBRANCH   6  31
BRANCH   1  35
ATOM     34  C   UNL     1      -0.991   3.209  -1.694  0.00  0.00    +0.027 C 
ATOM     35  C   UNL     1       0.074   2.191  -1.280  0.00  0.00    +0.125 C 
ENDBRANCH   1  35
TORSDOF 6
