REMARK  Name = ZINC13500180
REMARK  12 active torsions:
REMARK  status: ('A' for Active; 'I' for Inactive)
REMARK    1  A    between atoms: C_1  and  C_2
REMARK    2  A    between atoms: C_2  and  C_3
REMARK    3  A    between atoms: C_3  and  C_4
REMARK    4  A    between atoms: C_4  and  C_6
REMARK    5  A    between atoms: C_4  and  N_76
REMARK    6  A    between atoms: N_10  and  C_11
REMARK    7  A    between atoms: C_17  and  C_18
REMARK    8  A    between atoms: C_17  and  N_76
REMARK    9  A    between atoms: C_22  and  O_30
REMARK   10  A    between atoms: O_30  and  C_31
REMARK   11  A    between atoms: C_31  and  C_32
REMARK   12  A    between atoms: C_33  and  N_76
REMARK                            x       y       z     vdW  Elec       q    Type
REMARK                         _______ _______ _______ _____ _____    ______ ____
ROOT
ATOM      1  N   UNL     1      -2.845   0.759  -0.977  0.00  0.00    +0.391 N 
ATOM      2  H   UNL     1      -2.722   1.635  -1.498  0.00  0.00    -0.080 HD
ENDROOT
BRANCH   1   3
ATOM      3  C   UNL     1      -1.700  -0.132  -1.257  0.00  0.00    -0.067 C 
ATOM      4  C   UNL     1      -1.920  -1.529  -0.642  0.00  0.00    -0.015 C 
ATOM      5  C   UNL     1      -0.512  -1.956  -0.155  0.00  0.00    -0.002 C 
ATOM      6  C   UNL     1       0.081  -0.629   0.382  0.00  0.00    -0.002 C 
ATOM      7  C   UNL     1      -0.428   0.440  -0.607  0.00  0.00    -0.015 C 
ENDBRANCH   1   3
BRANCH   1   8
ATOM      8  C   UNL     1      -4.104   0.116  -1.410  0.00  0.00    +0.003 C 
BRANCH   8   9
ATOM      9  C   UNL     1      -3.852  -0.679  -2.666  0.00  0.00    +0.138 A 
ATOM     10  N   UNL     1      -3.128  -0.308  -3.694  0.00  0.00    -0.115 NA
ATOM     11  N   UNL     1      -3.155  -1.260  -4.562  0.00  0.00    -0.023 NA
ATOM     12  N   UNL     1      -3.883  -2.224  -4.118  0.00  0.00    -0.044 NA
ATOM     13  N   UNL     1      -4.331  -1.903  -2.951  0.00  0.00    -0.228 N 
BRANCH  13  14
ATOM     14  C   UNL     1      -5.198  -2.720  -2.098  0.00  0.00    +0.111 C 
ATOM     15  C   UNL     1      -4.496  -4.040  -1.773  0.00  0.00    +0.027 C 
ATOM     16  C   UNL     1      -5.402  -4.893  -0.881  0.00  0.00    +0.002 C 
ATOM     17  C   UNL     1      -6.715  -5.179  -1.613  0.00  0.00    +0.000 C 
ATOM     18  C   UNL     1      -7.416  -3.858  -1.938  0.00  0.00    +0.002 C 
ATOM     19  C   UNL     1      -6.511  -3.006  -2.829  0.00  0.00    +0.027 C 
ENDBRANCH  13  14
ENDBRANCH   8   9
BRANCH   8  20
ATOM     20  C   UNL     1      -5.137   1.207  -1.696  0.00  0.00    -0.008 C 
BRANCH  20  22
ATOM     21  C   UNL     1      -6.206   3.283  -0.806  0.00  0.00    +0.004 C 
ATOM     22  C   UNL     1      -5.104   2.247  -0.574  0.00  0.00    -0.005 C 
ENDBRANCH  20  22
ENDBRANCH   8  20
ENDBRANCH   1   8
BRANCH   1  23
ATOM     23  C   UNL     1      -2.906   1.065   0.468  0.00  0.00    -0.036 C 
BRANCH  23  24
ATOM     24  C   UNL     1      -3.287  -0.164   1.253  0.00  0.00    +0.001 A 
ATOM     25  C   UNL     1      -2.351  -0.812   1.988  0.00  0.00    +0.017 A 
ATOM     26  C   UNL     1      -2.751  -2.006   2.735  0.00  0.00    +0.002 A 
ATOM     27  C   UNL     1      -1.827  -2.718   3.508  0.00  0.00    +0.055 A 
ATOM     28  C   UNL     1      -2.239  -3.839   4.200  0.00  0.00    +0.121 A 
ATOM     29  C   UNL     1      -3.565  -4.261   4.131  0.00  0.00    +0.047 A 
ATOM     30  C   UNL     1      -4.484  -3.568   3.374  0.00  0.00    +0.030 A 
ATOM     31  C   UNL     1      -4.090  -2.436   2.669  0.00  0.00    +0.049 A 
ATOM     32  N   UNL     1      -4.995  -1.727   1.905  0.00  0.00    -0.322 N 
ATOM     33  H   UNL     1      -5.918  -2.024   1.860  0.00  0.00    +0.169 HD
ATOM     34  C   UNL     1      -4.618  -0.632   1.223  0.00  0.00    +0.251 A 
ATOM     35  O   UNL     1      -5.444  -0.031   0.559  0.00  0.00    -0.268 OA
BRANCH  28  36
ATOM     36  O   UNL     1      -1.346  -4.535   4.952  0.00  0.00    -0.492 OA
BRANCH  36  37
ATOM     37  C   UNL     1      -1.837  -5.686   5.643  0.00  0.00    +0.225 C 
ATOM     38  C   UNL     1      -0.696  -6.334   6.430  0.00  0.00    +0.048 C 
ENDBRANCH  36  37
ENDBRANCH  28  36
ENDBRANCH  23  24
ENDBRANCH   1  23
TORSDOF 10
