REMARK  Name = ZINC32602783
REMARK  10 active torsions:
REMARK  status: ('A' for Active; 'I' for Inactive)
REMARK    1  A    between atoms: C_1  and  C_2
REMARK    2  A    between atoms: C_2  and  C_4
REMARK    3  A    between atoms: C_2  and  N_15
REMARK    4  A    between atoms: C_16  and  C_18
REMARK    5  A    between atoms: C_18  and  C_20
REMARK    6  A    between atoms: C_18  and  N_31
REMARK    7  A    between atoms: C_20  and  C_21
REMARK    8  A    between atoms: C_32  and  O_34
REMARK    9  A    between atoms: O_34  and  C_35
REMARK   10  A    between atoms: C_35  and  C_36
REMARK                            x       y       z     vdW  Elec       q    Type
REMARK                         _______ _______ _______ _____ _____    ______ ____
ROOT
ATOM      1  C   UNL     1       6.280  -3.054  -1.590  0.00  0.00    +0.166 C 
ENDROOT
BRANCH   1   3
ATOM      2  N   UNL     1       4.792  -1.393  -0.522  0.00  0.00    -0.302 N 
ATOM      3  C   UNL     1       5.981  -1.663  -1.095  0.00  0.00    +0.234 C 
ATOM      4  O   UNL     1       6.811  -0.786  -1.211  0.00  0.00    -0.274 OA
ATOM      5  H   UNL     1       4.039  -2.188  -0.416  0.00  0.00    +0.150 HD
BRANCH   2   7
ATOM      6  C   UNL     1       5.055   0.127   1.377  0.00  0.00    +0.038 C 
ATOM      7  C   UNL     1       4.501  -0.040  -0.040  0.00  0.00    +0.160 C 
BRANCH   7   8
ATOM      8  C   UNL     1       3.010   0.178  -0.025  0.00  0.00    +0.269 C 
ATOM      9  O   UNL     1       2.261  -0.770  -0.023  0.00  0.00    -0.269 OA
ATOM     10  N   UNL     1       2.512   1.431  -0.014  0.00  0.00    -0.178 N 
ATOM     11  C   UNL     1       1.179   1.790   0.000  0.00  0.00    +0.098 A 
ATOM     12  C   UNL     1      -0.013   1.076   0.008  0.00  0.00    +0.030 A 
ATOM     13  C   UNL     1      -1.213   1.752   0.017  0.00  0.00    +0.002 A 
ATOM     14  C   UNL     1      -1.238   3.140   0.031  0.00  0.00    +0.002 A 
ATOM     15  C   UNL     1      -0.078   3.858   0.024  0.00  0.00    +0.032 A 
ATOM     16  C   UNL     1       1.155   3.194   0.008  0.00  0.00    +0.113 A 
ATOM     17  N   UNL     1       2.439   3.626  -0.001  0.00  0.00    -0.129 NA
ATOM     18  N   UNL     1       3.247   2.625  -0.014  0.00  0.00    -0.057 NA
ENDBRANCH   7   8
ENDBRANCH   2   7
ENDBRANCH   1   3
BRANCH   1  19
ATOM     19  N   UNL     1       7.627  -3.088  -2.166  0.00  0.00    -0.269 N 
ATOM     20  C   UNL     1       7.939  -4.014  -3.095  0.00  0.00    +0.401 C 
ATOM     21  O   UNL     1       7.104  -4.820  -3.454  0.00  0.00    -0.226 OA
ATOM     22  H   UNL     1       8.383  -2.359  -1.841  0.00  0.00    +0.153 HD
BRANCH  20  23
ATOM     23  O   UNL     1       9.177  -4.045  -3.624  0.00  0.00    -0.446 OA
BRANCH  23  24
ATOM     24  C   UNL     1       9.443  -5.069  -4.619  0.00  0.00    +0.269 C 
BRANCH  24  25
ATOM     25  C   UNL     1      10.868  -4.950  -5.094  0.00  0.00    -0.010 A 
ATOM     26  C   UNL     1      11.170  -4.150  -6.181  0.00  0.00    +0.007 A 
ATOM     27  C   UNL     1      12.478  -4.037  -6.614  0.00  0.00    +0.000 A 
ATOM     28  C   UNL     1      13.482  -4.732  -5.966  0.00  0.00    +0.000 A 
ATOM     29  C   UNL     1      13.180  -5.536  -4.883  0.00  0.00    +0.000 A 
ATOM     30  C   UNL     1      11.872  -5.645  -4.447  0.00  0.00    +0.007 A 
ENDBRANCH  24  25
ENDBRANCH  23  24
ENDBRANCH  20  23
ENDBRANCH   1  19
BRANCH   1  31
ATOM     31  C   UNL     1       6.200  -4.040  -0.423  0.00  0.00    +0.069 C 
BRANCH  31  32
ATOM     32  C   UNL     1       6.378  -5.445  -0.939  0.00  0.00    -0.020 A 
ATOM     33  C   UNL     1       5.400  -6.304  -1.267  0.00  0.00    +0.087 A 
ATOM     34  N   UNL     1       5.942  -7.485  -1.696  0.00  0.00    -0.360 N 
ATOM     35  H   UNL     1       5.285  -8.310  -2.009  0.00  0.00    +0.165 HD
ATOM     36  C   UNL     1       7.316  -7.413  -1.653  0.00  0.00    +0.047 A 
ATOM     37  C   UNL     1       7.649  -6.129  -1.182  0.00  0.00    +0.003 A 
ATOM     38  C   UNL     1       8.990  -5.770  -1.029  0.00  0.00    +0.010 A 
ATOM     39  C   UNL     1       9.973  -6.665  -1.347  0.00  0.00    +0.001 A 
ATOM     40  C   UNL     1       9.649  -7.930  -1.818  0.00  0.00    +0.002 A 
ATOM     41  C   UNL     1       8.333  -8.307  -1.972  0.00  0.00    +0.026 A 
ENDBRANCH  31  32
ENDBRANCH   1  31
TORSDOF 9
