REMARK  Name = ZINC36005307
REMARK  10 active torsions:
REMARK  status: ('A' for Active; 'I' for Inactive)
REMARK    1  A    between atoms: C_1  and  C_2
REMARK    2  A    between atoms: C_2  and  O_3
REMARK    3  A    between atoms: O_3  and  C_4
REMARK    4  A    between atoms: C_4  and  C_6
REMARK    5  A    between atoms: C_7  and  C_23
REMARK    6  A    between atoms: N_8  and  C_22
REMARK    7  A    between atoms: C_12  and  C_14
REMARK    8  A    between atoms: C_23  and  N_24
REMARK    9  A    between atoms: C_28  and  C_31
REMARK   10  A    between atoms: C_32  and  C_34
REMARK                            x       y       z     vdW  Elec       q    Type
REMARK                         _______ _______ _______ _____ _____    ______ ____
ROOT
ATOM      1  C   UNL     1      -3.142  -2.443  -0.214  0.00  0.00    +0.080 C 
ATOM      2  C   UNL     1      -3.572  -3.724  -0.219  0.00  0.00    +0.041 C 
ATOM      3  N   UNL     1      -4.898  -4.022  -0.091  0.00  0.00    -0.260 N 
ATOM      4  C   UNL     1      -5.858  -3.098   0.046  0.00  0.00    +0.307 C 
ATOM      5  O   UNL     1      -7.013  -3.462   0.154  0.00  0.00    -0.252 OA
ATOM      6  N   UNL     1      -5.584  -1.779   0.070  0.00  0.00    -0.288 N 
ATOM      7  C   UNL     1      -4.181  -1.351  -0.055  0.00  0.00    +0.145 C 
ATOM      8  C   UNL     1      -5.294  -5.433  -0.105  0.00  0.00    +0.139 C 
ATOM      9  H   UNL     1      -6.295  -1.126   0.170  0.00  0.00    +0.151 HD
ENDROOT
BRANCH   7  10
ATOM     10  C   UNL     1      -4.082  -0.439  -1.251  0.00  0.00    -0.003 A 
ATOM     11  C   UNL     1      -4.863  -0.676  -2.367  0.00  0.00    +0.007 A 
ATOM     12  C   UNL     1      -4.773   0.160  -3.464  0.00  0.00    +0.002 A 
ATOM     13  C   UNL     1      -3.903   1.234  -3.447  0.00  0.00    +0.021 A 
ATOM     14  C   UNL     1      -3.121   1.472  -2.331  0.00  0.00    +0.060 A 
ATOM     15  C   UNL     1      -3.216   0.638  -1.229  0.00  0.00    +0.064 A 
ATOM     16 CL   UNL     1      -2.241   0.941   0.175  0.00  0.00    -0.082 Cl
ATOM     17 CL   UNL     1      -2.028   2.821  -2.308  0.00  0.00    -0.082 Cl
ENDBRANCH   7  10
BRANCH   1  18
ATOM     18  C   UNL     1      -1.768  -2.132  -0.346  0.00  0.00    +0.339 C 
ATOM     19  O   UNL     1      -1.119  -1.816   0.633  0.00  0.00    -0.245 OA
BRANCH  18  20
ATOM     20  O   UNL     1      -1.178  -2.187  -1.558  0.00  0.00    -0.462 OA
BRANCH  20  22
ATOM     21  C   UNL     1       0.701  -1.948  -3.059  0.00  0.00    +0.048 C 
ATOM     22  C   UNL     1       0.234  -1.970  -1.602  0.00  0.00    +0.229 C 
ENDBRANCH  20  22
ENDBRANCH  18  20
ENDBRANCH   1  18
BRANCH   2  23
ATOM     23  C   UNL     1      -2.572  -4.841  -0.370  0.00  0.00    +0.136 C 
BRANCH  23  24
ATOM     24  N   UNL     1      -2.569  -5.662   0.848  0.00  0.00    -0.294 NA
ATOM     25  C   UNL     1      -2.076  -4.895   2.000  0.00  0.00    +0.104 C 
ATOM     26  C   UNL     1      -2.258  -5.723   3.276  0.00  0.00    +0.123 C 
ATOM     27  N   UNL     1      -1.615  -7.032   3.080  0.00  0.00    -0.296 N 
ATOM     28  C   UNL     1      -1.957  -7.801   1.873  0.00  0.00    +0.087 C 
ATOM     29  C   UNL     1      -1.787  -6.891   0.652  0.00  0.00    +0.107 C 
ATOM     30  C   UNL     1      -1.026  -9.008   1.753  0.00  0.00    +0.029 C 
ATOM     31  C   UNL     1      -0.738  -7.514   3.982  0.00  0.00    +0.219 C 
ATOM     32  O   UNL     1      -0.153  -8.553   3.763  0.00  0.00    -0.275 OA
BRANCH  31  33
ATOM     33  C   UNL     1      -0.482  -6.760   5.262  0.00  0.00    +0.075 C 
ATOM     34  C   UNL     1       0.892  -6.112   5.438  0.00  0.00    +0.013 C 
ATOM     35  C   UNL     1       0.525  -7.359   6.245  0.00  0.00    +0.013 C 
ENDBRANCH  31  33
ENDBRANCH  23  24
ENDBRANCH   2  23
TORSDOF 7
