REMARK  Name = ZINC36142601
REMARK  2 active torsions:
REMARK  status: ('A' for Active; 'I' for Inactive)
REMARK    1  A    between atoms: C_1  and  C_2
REMARK    2  A    between atoms: C_6  and  N_8
REMARK                            x       y       z     vdW  Elec       q    Type
REMARK                         _______ _______ _______ _____ _____    ______ ____
ROOT
ATOM      1  C   UNL     1      -0.018   1.503   0.010  0.00  0.00    +0.044 C 
ATOM      2  C   UNL     1       0.002  -0.004   0.002  0.00  0.00    -0.048 A 
ATOM      3  C   UNL     1       0.006  -0.684  -1.197  0.00  0.00    +0.018 A 
ATOM      4  C   UNL     1       0.027  -2.081  -1.201  0.00  0.00    +0.061 A 
ATOM      5  C   UNL     1       0.047  -2.791   0.007  0.00  0.00    +0.152 A 
ATOM      6  C   UNL     1       0.039  -2.086   1.210  0.00  0.00    +0.068 A 
ATOM      7  C   UNL     1       0.023  -0.700   1.200  0.00  0.00    +0.029 A 
ATOM      8  O   UNL     1       0.081  -4.145   0.017  0.00  0.00    -0.483 OA
ATOM      9  C   UNL     1      -0.385  -4.850  -1.133  0.00  0.00    +0.118 C 
ATOM     10  C   UNL     1      -0.084  -6.342  -0.979  0.00  0.00    +0.048 C 
ATOM     11  C   UNL     1      -0.796  -6.878   0.265  0.00  0.00    +0.004 C 
ATOM     12  C   UNL     1      -2.305  -6.673   0.117  0.00  0.00    +0.000 C 
ATOM     13  C   UNL     1      -2.606  -5.181  -0.041  0.00  0.00    +0.004 C 
ATOM     14  C   UNL     1      -1.894  -4.646  -1.285  0.00  0.00    +0.048 C 
ATOM     15  C   UNL     1       0.327  -4.315  -2.384  0.00  0.00    +0.127 C 
ATOM     16  C   UNL     1       0.024  -2.829  -2.471  0.00  0.00    +0.171 C 
ATOM     17  O   UNL     1      -0.208  -2.287  -3.531  0.00  0.00    -0.292 OA
ENDROOT
BRANCH   6  18
ATOM     18  N   UNL     1       0.054  -2.777   2.428  0.00  0.00    -0.355 N 
ATOM     19  H   UNL     1       0.069  -3.747   2.435  0.00  0.00    +0.142 HD
ATOM     20  H   UNL     1       0.048  -2.286   3.264  0.00  0.00    +0.142 HD
ENDBRANCH   6  18
TORSDOF 1
