REMARK  Name = ZINC14697619
REMARK  10 active torsions:
REMARK  status: ('A' for Active; 'I' for Inactive)
REMARK    1  A    between atoms: C_4  and  C_7
REMARK    2  A    between atoms: C_7  and  N_8
REMARK    3  A    between atoms: C_9  and  N_36
REMARK    4  A    between atoms: C_10  and  N_17
REMARK    5  A    between atoms: N_17  and  C_18
REMARK    6  A    between atoms: C_18  and  C_19
REMARK    7  A    between atoms: C_19  and  C_20
REMARK    8  A    between atoms: C_26  and  C_28
REMARK    9  A    between atoms: C_28  and  S_29
REMARK   10  A    between atoms: S_29  and  C_30
REMARK                            x       y       z     vdW  Elec       q    Type
REMARK                         _______ _______ _______ _____ _____    ______ ____
ROOT
ATOM      1  N   UNL     1       0.416   3.506  -1.113  0.00  0.00    -0.276 N 
ATOM      2  C   UNL     1       0.426   2.131  -1.150  0.00  0.00    +0.128 A 
ATOM      3  C   UNL     1       0.074   1.425  -0.018  0.00  0.00    +0.140 A 
ATOM      4  C   UNL     1      -0.277   2.135   1.145  0.00  0.00    +0.277 A 
ATOM      5  O   UNL     1      -0.589   1.536   2.160  0.00  0.00    -0.266 OA
ATOM      6  N   UNL     1      -0.267   3.483   1.129  0.00  0.00    -0.273 N 
ATOM      7  H   UNL     1      -0.516   3.989   1.954  0.00  0.00    +0.173 HD
ATOM      8  C   UNL     1       0.075   4.155   0.015  0.00  0.00    +0.331 A 
ATOM      9  O   UNL     1       0.076   5.370   0.028  0.00  0.00    -0.246 OA
ENDROOT
BRANCH   3  10
ATOM     10  N   UNL     1       0.071   0.014  -0.025  0.00  0.00    -0.263 N 
ATOM     11  C   UNL     1      -1.091  -0.659   0.112  0.00  0.00    +0.230 C 
ATOM     12  O   UNL     1      -2.142  -0.054   0.152  0.00  0.00    -0.274 OA
BRANCH  10  13
ATOM     13  C   UNL     1       1.329  -0.721  -0.182  0.00  0.00    +0.118 C 
BRANCH  13  14
ATOM     14  C   UNL     1       1.874  -1.098   1.197  0.00  0.00    +0.050 C 
BRANCH  14  15
ATOM     15  C   UNL     1       3.168  -1.854   1.036  0.00  0.00    -0.072 C 
ATOM     16  C   UNL     1       4.274  -1.186   1.110  0.00  0.00    -0.028 C 
ATOM     17  C   UNL     1       5.636  -1.797   0.960  0.00  0.00    +0.027 C 
ATOM     18  C   UNL     1       5.556  -3.314   1.137  0.00  0.00    +0.004 C 
ATOM     19  C   UNL     1       4.425  -3.847   0.248  0.00  0.00    +0.005 C 
ATOM     20  C   UNL     1       3.094  -3.335   0.805  0.00  0.00    +0.030 C 
ENDBRANCH  14  15
ENDBRANCH  13  14
ENDBRANCH  10  13
BRANCH  11  21
ATOM     21  C   UNL     1      -1.083  -2.163   0.217  0.00  0.00    +0.170 C 
BRANCH  21  22
ATOM     22  S   UNL     1      -2.785  -2.765   0.392  0.00  0.00    -0.116 S 
BRANCH  22  23
ATOM     23  C   UNL     1      -2.608  -4.515   0.500  0.00  0.00    +0.008 A 
ATOM     24  C   UNL     1      -1.346  -5.093   0.437  0.00  0.00    +0.015 A 
ATOM     25  C   UNL     1      -1.211  -6.464   0.529  0.00  0.00    +0.001 A 
ATOM     26  C   UNL     1      -2.331  -7.263   0.672  0.00  0.00    +0.000 A 
ATOM     27  C   UNL     1      -3.589  -6.692   0.729  0.00  0.00    +0.001 A 
ATOM     28  C   UNL     1      -3.731  -5.321   0.644  0.00  0.00    +0.015 A 
ENDBRANCH  22  23
ENDBRANCH  21  22
ENDBRANCH  11  21
ENDBRANCH   3  10
BRANCH   2  29
ATOM     29  N   UNL     1       0.779   1.469  -2.301  0.00  0.00    -0.343 N 
ATOM     30  H   UNL     1       0.833   0.500  -2.307  0.00  0.00    +0.144 HD
ATOM     31  H   UNL     1       0.976   1.970  -3.108  0.00  0.00    +0.144 HD
ENDBRANCH   2  29
BRANCH   1  32
ATOM     32  C   UNL     1       0.784   4.269  -2.309  0.00  0.00    +0.163 C 
BRANCH  32  36
ATOM     33  C   UNL     1       4.994   4.993  -2.297  0.00  0.00    +0.000 A 
ATOM     34  C   UNL     1       4.490   3.853  -2.896  0.00  0.00    +0.000 A 
ATOM     35  C   UNL     1       3.128   3.619  -2.900  0.00  0.00    +0.005 A 
ATOM     36  C   UNL     1       2.269   4.524  -2.304  0.00  0.00    -0.028 A 
ATOM     37  C   UNL     1       2.773   5.666  -1.710  0.00  0.00    +0.005 A 
ATOM     38  C   UNL     1       4.135   5.898  -1.701  0.00  0.00    +0.000 A 
ENDBRANCH  32  36
ENDBRANCH   1  32
TORSDOF 10
