REMARK  Name = ZINC20206627
REMARK  9 active torsions:
REMARK  status: ('A' for Active; 'I' for Inactive)
REMARK    1  A    between atoms: C_1  and  C_2
REMARK    2  A    between atoms: C_2  and  S_3
REMARK    3  A    between atoms: S_3  and  C_6
REMARK    4  A    between atoms: C_14  and  C_15
REMARK    5  A    between atoms: C_18  and  O_23
REMARK    6  A    between atoms: C_19  and  O_21
REMARK    7  A    between atoms: O_21  and  C_22
REMARK    8  A    between atoms: O_23  and  C_24
REMARK    9  A    between atoms: C_24  and  C_25
REMARK                            x       y       z     vdW  Elec       q    Type
REMARK                         _______ _______ _______ _____ _____    ______ ____
ROOT
ATOM      1  C   UNL     1      -2.835   1.778   2.062  0.00  0.00    +0.257 C 
ATOM      2  N   UNL     1      -3.387   2.892   1.694  0.00  0.00    -0.174 NA
ATOM      3  S   UNL     1      -4.514   2.432   0.542  0.00  0.00    +0.049 S 
ATOM      4  C   UNL     1      -4.293   0.781   0.590  0.00  0.00    +0.183 C 
ATOM      5  N   UNL     1      -4.922  -0.178  -0.052  0.00  0.00    -0.152 NA
ATOM      6  C   UNL     1      -4.607  -1.462   0.200  0.00  0.00    +0.273 C 
ATOM      7  O   UNL     1      -5.079  -2.365  -0.472  0.00  0.00    -0.268 OA
ATOM      8  C   UNL     1      -3.672  -1.753   1.316  0.00  0.00    +0.079 C 
ATOM      9  C   UNL     1      -3.682  -2.961   1.976  0.00  0.00    +0.024 C 
ATOM     10  C   UNL     1      -2.723  -0.663   1.682  0.00  0.00    +0.138 C 
ATOM     11  N   UNL     1      -1.520  -0.881   2.139  0.00  0.00    -0.284 NA
ATOM     12  N   UNL     1      -3.251   0.628   1.481  0.00  0.00    -0.201 N 
ATOM     13  H   UNL     1      -1.203  -1.791   2.255  0.00  0.00    +0.188 HD
ENDROOT
BRANCH   9  14
ATOM     14  C   UNL     1      -4.747  -3.931   1.712  0.00  0.00    -0.021 A 
ATOM     15  C   UNL     1      -4.455  -5.303   1.674  0.00  0.00    +0.012 A 
ATOM     16  C   UNL     1      -5.459  -6.212   1.426  0.00  0.00    +0.050 A 
ATOM     17  C   UNL     1      -6.761  -5.775   1.213  0.00  0.00    +0.162 A 
ATOM     18  C   UNL     1      -7.059  -4.412   1.249  0.00  0.00    +0.162 A 
ATOM     19  C   UNL     1      -6.062  -3.493   1.503  0.00  0.00    +0.057 A 
BRANCH  18  20
ATOM     20  O   UNL     1      -8.335  -3.990   1.039  0.00  0.00    -0.491 OA
ATOM     21  C   UNL     1      -8.569  -2.582   1.089  0.00  0.00    +0.277 C 
ENDBRANCH  18  20
BRANCH  17  22
ATOM     22  O   UNL     1      -7.745  -6.677   0.969  0.00  0.00    -0.484 OA
BRANCH  22  23
ATOM     23  C   UNL     1      -7.371  -8.056   0.946  0.00  0.00    +0.264 C 
BRANCH  23  24
ATOM     24  C   UNL     1      -8.586  -8.901   0.663  0.00  0.00    -0.010 A 
ATOM     25  C   UNL     1      -9.364  -9.363   1.707  0.00  0.00    +0.010 A 
ATOM     26  C   UNL     1     -10.479 -10.139   1.449  0.00  0.00    +0.039 A 
ATOM     27  C   UNL     1     -10.815 -10.453   0.143  0.00  0.00    +0.123 A 
ATOM     28  C   UNL     1     -10.035  -9.989  -0.902  0.00  0.00    +0.039 A 
ATOM     29  C   UNL     1      -8.924  -9.210  -0.642  0.00  0.00    +0.010 A 
ATOM     30  F   UNL     1     -11.905 -11.211  -0.111  0.00  0.00    -0.205 F 
ENDBRANCH  23  24
ENDBRANCH  22  23
ENDBRANCH  17  22
ENDBRANCH   9  14
BRANCH   1  31
ATOM     31  S   UNL     1      -1.567   1.761   3.286  0.00  0.00    +0.029 S 
ATOM     32  O   UNL     1      -1.749   0.534   3.980  0.00  0.00    -0.167 OA
ATOM     33  O   UNL     1      -1.701   3.003   3.963  0.00  0.00    -0.167 OA
BRANCH  31  35
ATOM     34  C   UNL     1       1.168   1.708   3.320  0.00  0.00    +0.028 C 
ATOM     35  C   UNL     1      -0.014   1.725   2.349  0.00  0.00    +0.172 C 
ENDBRANCH  31  35
ENDBRANCH   1  31
TORSDOF 7
