REMARK  Name = ZINC09223975
REMARK  7 active torsions:
REMARK  status: ('A' for Active; 'I' for Inactive)
REMARK    1  A    between atoms: C_1  and  N_2
REMARK    2  A    between atoms: N_2  and  C_3
REMARK    3  A    between atoms: C_4  and  N_19
REMARK    4  A    between atoms: N_5  and  C_12
REMARK    5  A    between atoms: C_12  and  C_13
REMARK    6  A    between atoms: C_20  and  C_22
REMARK    7  A    between atoms: C_29  and  C_31
REMARK                            x       y       z     vdW  Elec       q    Type
REMARK                         _______ _______ _______ _____ _____    ______ ____
ROOT
ATOM      1  C   UNL     1       3.575  -2.220   0.228  0.00  0.00    +0.138 C 
ATOM      2  N   UNL     1       3.522  -0.769   0.423  0.00  0.00    -0.267 N 
ATOM      3  C   UNL     1       4.632  -0.023   0.242  0.00  0.00    +0.224 C 
ATOM      4  O   UNL     1       5.656  -0.544  -0.149  0.00  0.00    -0.275 OA
ENDROOT
BRANCH   2   5
ATOM      5  C   UNL     1       2.311  -0.152   0.800  0.00  0.00    +0.139 A 
ATOM      6  C   UNL     1       1.245  -0.105  -0.075  0.00  0.00    +0.128 A 
ATOM      7  N   UNL     1       0.077   0.503   0.322  0.00  0.00    -0.276 N 
ATOM      8  C   UNL     1      -0.025   1.047   1.548  0.00  0.00    +0.331 A 
ATOM      9  O   UNL     1      -1.064   1.585   1.878  0.00  0.00    -0.246 OA
ATOM     10  N   UNL     1       1.003   1.011   2.414  0.00  0.00    -0.273 N 
ATOM     11  H   UNL     1       0.901   1.422   3.320  0.00  0.00    +0.173 HD
ATOM     12  C   UNL     1       2.169   0.426   2.075  0.00  0.00    +0.277 A 
ATOM     13  O   UNL     1       3.095   0.400   2.868  0.00  0.00    -0.266 OA
BRANCH   6  14
ATOM     14  N   UNL     1       1.349  -0.660  -1.328  0.00  0.00    -0.343 N 
ATOM     15  H   UNL     1       0.569  -0.709  -1.903  0.00  0.00    +0.144 HD
ATOM     16  H   UNL     1       2.202  -1.004  -1.637  0.00  0.00    +0.144 HD
ENDBRANCH   6  14
BRANCH   7  17
ATOM     17  C   UNL     1      -1.063   0.560  -0.597  0.00  0.00    +0.163 C 
BRANCH  17  18
ATOM     18  C   UNL     1      -0.981   1.819  -1.421  0.00  0.00    -0.028 A 
ATOM     19  C   UNL     1      -1.586   2.978  -0.975  0.00  0.00    +0.005 A 
ATOM     20  C   UNL     1      -1.507   4.134  -1.729  0.00  0.00    +0.000 A 
ATOM     21  C   UNL     1      -0.831   4.128  -2.935  0.00  0.00    +0.000 A 
ATOM     22  C   UNL     1      -0.231   2.966  -3.384  0.00  0.00    +0.000 A 
ATOM     23  C   UNL     1      -0.306   1.812  -2.627  0.00  0.00    +0.005 A 
ENDBRANCH  17  18
ENDBRANCH   7  17
ENDBRANCH   2   5
BRANCH   3  24
ATOM     24  C   UNL     1       4.599   1.457   0.524  0.00  0.00    +0.093 C 
ATOM     25  C   UNL     1       6.031   1.991   0.617  0.00  0.00    +0.016 C 
ATOM     26  C   UNL     1       5.999   3.487   0.936  0.00  0.00    +0.020 C 
ATOM     27  C   UNL     1       5.277   4.231  -0.192  0.00  0.00    +0.108 C 
ATOM     28  N   UNL     1       3.952   3.627  -0.385  0.00  0.00    -0.297 N 
ATOM     29  C   UNL     1       3.862   2.178  -0.609  0.00  0.00    +0.120 C 
ATOM     30  C   UNL     1       2.840   4.388  -0.356  0.00  0.00    +0.247 C 
ATOM     31  O   UNL     1       1.744   3.865  -0.416  0.00  0.00    -0.270 OA
BRANCH  30  32
ATOM     32  C   UNL     1       2.953   5.857  -0.252  0.00  0.00    +0.037 A 
ATOM     33  C   UNL     1       2.071   6.572   0.562  0.00  0.00    +0.014 A 
ATOM     34  C   UNL     1       2.185   7.943   0.660  0.00  0.00    +0.021 A 
ATOM     35  C   UNL     1       3.164   8.612  -0.056  0.00  0.00    +0.041 A 
ATOM     36  C   UNL     1       4.037   7.909  -0.870  0.00  0.00    +0.021 A 
ATOM     37  C   UNL     1       3.937   6.538  -0.971  0.00  0.00    +0.014 A 
ATOM     38 CL   UNL     1       3.296  10.339   0.066  0.00  0.00    -0.084 Cl
ENDBRANCH  30  32
ENDBRANCH   3  24
TORSDOF 6
