REMARK  Name = ZINC62581778
REMARK  10 active torsions:
REMARK  status: ('A' for Active; 'I' for Inactive)
REMARK    1  A    between atoms: C_1  and  C_2
REMARK    2  A    between atoms: C_5  and  C_8
REMARK    3  A    between atoms: C_8  and  C_10
REMARK    4  A    between atoms: C_8  and  N_33
REMARK    5  A    between atoms: C_10  and  N_11
REMARK    6  A    between atoms: C_12  and  C_14
REMARK    7  A    between atoms: N_17  and  S_20
REMARK    8  A    between atoms: S_20  and  C_23
REMARK    9  A    between atoms: N_33  and  C_34
REMARK   10  A    between atoms: N_33  and  C_35
REMARK                            x       y       z     vdW  Elec       q    Type
REMARK                         _______ _______ _______ _____ _____    ______ ____
ROOT
ATOM      1  C   UNL     1       1.458  -8.690   1.113  0.00  0.00    +0.077 C 
ATOM      2  C   UNL     1       0.498  -8.780   2.301  0.00  0.00    +0.030 C 
ATOM      3  C   UNL     1       0.158 -10.250   2.567  0.00  0.00    +0.110 C 
ATOM      4  N   UNL     1       1.408 -11.000   2.744  0.00  0.00    -0.177 NA
ATOM      5  C   UNL     1       2.439 -10.910   1.701  0.00  0.00    +0.110 C 
ATOM      6  C   UNL     1       2.754  -9.433   1.445  0.00  0.00    +0.030 C 
ENDROOT
BRANCH   1   8
ATOM      7  N   UNL     1       0.774  -6.390   0.509  0.00  0.00    -0.316 N 
ATOM      8  C   UNL     1       1.768  -7.243   0.827  0.00  0.00    +0.216 C 
ATOM      9  O   UNL     1       2.913  -6.845   0.883  0.00  0.00    -0.276 OA
ATOM     10  H   UNL     1      -0.141  -6.708   0.465  0.00  0.00    +0.149 HD
BRANCH   7  11
ATOM     11  C   UNL     1       1.075  -4.984   0.231  0.00  0.00    +0.093 C 
BRANCH  11  12
ATOM     12  C   UNL     1      -0.229  -4.220  -0.007  0.00  0.00    -0.021 C 
BRANCH  12  17
ATOM     13  C   UNL     1      -2.812  -6.249  -4.761  0.00  0.00    +0.044 C 
ATOM     14  C   UNL     1      -2.139  -5.720  -3.521  0.00  0.00    -0.050 A 
ATOM     15  C   UNL     1      -2.566  -6.132  -2.273  0.00  0.00    +0.003 A 
ATOM     16  C   UNL     1      -1.948  -5.647  -1.136  0.00  0.00    +0.002 A 
ATOM     17  C   UNL     1      -0.902  -4.750  -1.247  0.00  0.00    -0.059 A 
ATOM     18  C   UNL     1      -0.474  -4.338  -2.495  0.00  0.00    +0.002 A 
ATOM     19  C   UNL     1      -1.089  -4.827  -3.632  0.00  0.00    +0.003 A 
ENDBRANCH  12  17
BRANCH  12  20
ATOM     20  N   UNL     1       0.065  -2.792  -0.182  0.00  0.00    +0.382 N 
ATOM     21  C   UNL     1      -1.182  -2.065  -0.455  0.00  0.00    -0.096 C 
ATOM     22  C   UNL     1       0.680  -2.265   1.044  0.00  0.00    -0.096 C 
ATOM     23  H   UNL     1       0.701  -2.671  -0.956  0.00  0.00    -0.082 HD
ENDBRANCH  12  20
ENDBRANCH  11  12
ENDBRANCH   7  11
ENDBRANCH   1   8
BRANCH   4  24
ATOM     24  S   UNL     1       1.652 -11.929   4.093  0.00  0.00    +0.061 S 
ATOM     25  O   UNL     1       3.058 -12.050   4.255  0.00  0.00    -0.153 OA
ATOM     26  O   UNL     1       0.811 -11.399   5.108  0.00  0.00    -0.153 OA
BRANCH  24  27
ATOM     27  C   UNL     1       1.046 -13.543   3.730  0.00  0.00    +0.109 A 
ATOM     28  C   UNL     1      -0.274 -13.861   3.993  0.00  0.00    +0.032 A 
ATOM     29  C   UNL     1      -0.752 -15.126   3.711  0.00  0.00    +0.051 A 
ATOM     30  C   UNL     1       0.091 -16.081   3.162  0.00  0.00    +0.162 A 
ATOM     31  C   UNL     1       1.417 -15.761   2.895  0.00  0.00    +0.164 A 
ATOM     32  C   UNL     1       1.890 -14.488   3.178  0.00  0.00    +0.078 A 
ATOM     33  O   UNL     1       2.259 -16.681   2.349  0.00  0.00    -0.485 OA
ATOM     34  C   UNL     1       1.849 -18.051   2.420  0.00  0.00    +0.270 C 
ATOM     35  C   UNL     1       0.376 -18.135   1.997  0.00  0.00    +0.270 C 
ATOM     36  O   UNL     1      -0.394 -17.324   2.892  0.00  0.00    -0.485 OA
ENDBRANCH  24  27
ENDBRANCH   4  24
TORSDOF 7
