REMARK  Name = ZINC12020010
REMARK  7 active torsions:
REMARK  status: ('A' for Active; 'I' for Inactive)
REMARK    1  A    between atoms: C_1  and  C_2
REMARK    2  A    between atoms: C_2  and  C_3
REMARK    3  A    between atoms: C_3  and  C_22
REMARK    4  A    between atoms: N_6  and  C_10
REMARK    5  A    between atoms: C_10  and  C_11
REMARK    6  A    between atoms: C_27  and  C_28
REMARK    7  A    between atoms: C_27  and  N_67
REMARK                            x       y       z     vdW  Elec       q    Type
REMARK                         _______ _______ _______ _____ _____    ______ ____
ROOT
ATOM      1  C   UNL     1      -3.683  -1.664  -5.090  0.00  0.00    +0.115 C 
ATOM      2  C   UNL     1      -2.468  -2.349  -5.683  0.00  0.00    +0.247 C 
ATOM      3  O   UNL     1      -1.351  -1.891  -5.794  0.00  0.00    -0.273 OA
ATOM      4  N   UNL     1      -2.892  -3.575  -6.061  0.00  0.00    -0.221 N 
ATOM      5  C   UNL     1      -4.191  -3.753  -5.793  0.00  0.00    +0.309 C 
ATOM      6  O   UNL     1      -4.799  -4.775  -6.044  0.00  0.00    -0.252 OA
ATOM      7  N   UNL     1      -4.749  -2.673  -5.215  0.00  0.00    -0.285 N 
ATOM      8  H   UNL     1      -5.673  -2.579  -4.936  0.00  0.00    +0.151 HD
ENDROOT
BRANCH   1   9
ATOM      9  C   UNL     1      -3.441  -1.317  -3.619  0.00  0.00    +0.018 C 
ATOM     10  C   UNL     1      -2.970  -2.567  -2.870  0.00  0.00    -0.013 C 
ATOM     11  C   UNL     1      -2.671  -2.200  -1.415  0.00  0.00    -0.078 C 
ATOM     12  C   UNL     1      -2.081   0.064  -2.046  0.00  0.00    -0.078 C 
ATOM     13  C   UNL     1      -2.363  -0.235  -3.520  0.00  0.00    -0.013 C 
ATOM     14  N   UNL     1      -1.609  -1.172  -1.387  0.00  0.00    +0.384 N 
ATOM     15  H   UNL     1      -0.789  -1.527  -1.893  0.00  0.00    -0.081 HD
BRANCH  14  16
ATOM     16  C   UNL     1      -1.222  -0.883   0.009  0.00  0.00    -0.003 C 
BRANCH  16  17
ATOM     17  C   UNL     1       0.002  -0.004   0.002  0.00  0.00    +0.090 A 
ATOM     18  C   UNL     1      -0.016   1.336   0.009  0.00  0.00    +0.051 A 
ATOM     19  C   UNL     1       1.388   1.764  -0.002  0.00  0.00    +0.020 A 
ATOM     20  C   UNL     1       2.030   3.002  -0.001  0.00  0.00    +0.011 A 
ATOM     21  C   UNL     1       3.396   3.057  -0.013  0.00  0.00    +0.001 A 
ATOM     22  C   UNL     1       4.146   1.889  -0.027  0.00  0.00    +0.004 A 
ATOM     23  C   UNL     1       3.529   0.657  -0.028  0.00  0.00    +0.047 A 
ATOM     24  C   UNL     1       2.142   0.579  -0.015  0.00  0.00    +0.135 A 
ATOM     25  O   UNL     1       1.270  -0.450  -0.013  0.00  0.00    -0.462 OA
ENDBRANCH  16  17
ENDBRANCH  14  16
ENDBRANCH   1   9
BRANCH   1  27
ATOM     26  C   UNL     1      -4.394  -0.797  -7.322  0.00  0.00    +0.006 C 
ATOM     27  C   UNL     1      -4.036  -0.407  -5.887  0.00  0.00    +0.032 C 
ENDBRANCH   1  27
BRANCH   4  28
ATOM     28  C   UNL     1      -2.036  -4.584  -6.688  0.00  0.00    +0.166 C 
BRANCH  28  29
ATOM     29  C   UNL     1      -2.077  -4.415  -8.209  0.00  0.00    +0.229 C 
ATOM     30  C   UNL     1      -1.205  -5.489  -8.873  0.00  0.00    +0.275 C 
ATOM     31  O   UNL     1      -1.277  -5.311 -10.291  0.00  0.00    -0.485 OA
ATOM     32  C   UNL     1      -2.515  -5.120 -10.822  0.00  0.00    +0.162 A 
ATOM     33  C   UNL     1      -2.707  -5.295 -12.185  0.00  0.00    +0.049 A 
ATOM     34  C   UNL     1      -3.957  -5.099 -12.739  0.00  0.00    +0.004 A 
ATOM     35  C   UNL     1      -5.021  -4.727 -11.938  0.00  0.00    +0.004 A 
ATOM     36  C   UNL     1      -4.837  -4.552 -10.579  0.00  0.00    +0.049 A 
ATOM     37  C   UNL     1      -3.585  -4.749 -10.016  0.00  0.00    +0.163 A 
ATOM     38  O   UNL     1      -3.420  -4.576  -8.676  0.00  0.00    -0.480 OA
ENDBRANCH  28  29
ENDBRANCH   4  28
TORSDOF 6
