REMARK  Name = ZINC43573953
REMARK  4 active torsions:
REMARK  status: ('A' for Active; 'I' for Inactive)
REMARK    1  A    between atoms: C_1  and  C_2
REMARK    2  A    between atoms: C_13  and  O_15
REMARK    3  A    between atoms: C_19  and  C_26
REMARK    4  A    between atoms: C_22  and  O_25
REMARK                            x       y       z     vdW  Elec       q    Type
REMARK                         _______ _______ _______ _____ _____    ______ ____
ROOT
ATOM      1  C   UNL     1      -0.019   1.526   0.010  0.00  0.00    +0.014 C 
ATOM      2  C   UNL     1       0.002  -0.004   0.002  0.00  0.00    -0.003 C 
ATOM      3  C   UNL     1       0.608  -0.559  -1.290  0.00  0.00    +0.010 C 
ATOM      4  C   UNL     1       2.112  -0.306  -1.326  0.00  0.00    +0.005 C 
ATOM      5  C   UNL     1       2.769  -1.061  -0.163  0.00  0.00    +0.003 C 
ATOM      6  C   UNL     1       2.231  -0.499   1.150  0.00  0.00    +0.000 C 
ATOM      7  C   UNL     1       0.735  -0.576   1.227  0.00  0.00    +0.001 C 
ATOM      8  C   UNL     1       0.232  -2.029   1.302  0.00  0.00    +0.007 C 
ATOM      9  C   UNL     1      -1.266  -1.911   0.939  0.00  0.00    +0.032 C 
ATOM     10  C   UNL     1      -1.422  -0.607   0.134  0.00  0.00    +0.121 C 
ATOM     11  C   UNL     1       2.853  -1.287   2.309  0.00  0.00    +0.031 C 
ATOM     12  C   UNL     1       4.349  -1.236   2.198  0.00  0.00    -0.027 C 
ATOM     13  C   UNL     1       4.971  -1.069   1.069  0.00  0.00    -0.065 C 
ATOM     14  C   UNL     1       4.277  -0.889  -0.246  0.00  0.00    -0.008 C 
ATOM     15  C   UNL     1       4.863  -1.872  -1.263  0.00  0.00    +0.014 C 
ATOM     16  C   UNL     1       6.381  -1.691  -1.324  0.00  0.00    +0.032 C 
ATOM     17  C   UNL     1       6.997  -2.028   0.035  0.00  0.00    +0.119 C 
ATOM     18  C   UNL     1       6.490  -1.046   1.078  0.00  0.00    +0.062 C 
ATOM     19  C   UNL     1       4.568   0.525  -0.751  0.00  0.00    +0.016 C 
ENDROOT
BRANCH  10  20
ATOM     20  O   UNL     1      -1.957  -0.890  -1.161  0.00  0.00    -0.391 OA
ATOM     21  H   UNL     1      -2.846  -1.269  -1.144  0.00  0.00    +0.210 HD
ENDBRANCH  10  20
BRANCH  17  22
ATOM     22  O   UNL     1       6.623  -3.355   0.411  0.00  0.00    -0.391 OA
ATOM     23  H   UNL     1       6.979  -3.637   1.265  0.00  0.00    +0.210 HD
ENDBRANCH  17  22
TORSDOF 2
