REMARK  Name = ZINC39638202
REMARK  11 active torsions:
REMARK  status: ('A' for Active; 'I' for Inactive)
REMARK    1  A    between atoms: C_1  and  C_2
REMARK    2  A    between atoms: C_2  and  C_3
REMARK    3  A    between atoms: C_3  and  C_5
REMARK    4  A    between atoms: C_3  and  N_8
REMARK    5  A    between atoms: C_5  and  O_6
REMARK    6  A    between atoms: O_6  and  C_7
REMARK    7  A    between atoms: C_9  and  C_11
REMARK    8  A    between atoms: C_22  and  C_24
REMARK    9  A    between atoms: C_24  and  O_25
REMARK   10  A    between atoms: O_25  and  C_26
REMARK   11  A    between atoms: C_36  and  C_37
REMARK                            x       y       z     vdW  Elec       q    Type
REMARK                         _______ _______ _______ _____ _____    ______ ____
ROOT
ATOM      1  C   UNL     1       3.870   1.567  -1.437  0.00  0.00    +0.100 C 
ATOM      2  C   UNL     1       4.750   0.875  -2.502  0.00  0.00    +0.121 C 
ATOM      3  N   UNL     1       4.805   1.838  -3.626  0.00  0.00    -0.297 N 
ATOM      4  C   UNL     1       4.916   3.163  -2.970  0.00  0.00    +0.115 C 
ATOM      5  C   UNL     1       3.985   3.069  -1.746  0.00  0.00    -0.004 C 
ATOM      6  C   UNL     1       4.597   3.808  -0.559  0.00  0.00    -0.010 C 
ATOM      7  C   UNL     1       4.647   5.307  -0.867  0.00  0.00    -0.082 C 
ATOM      8  N   UNL     1       3.289   5.800  -1.129  0.00  0.00    +0.379 N 
ATOM      9  C   UNL     1       2.744   5.152  -2.328  0.00  0.00    -0.082 C 
ATOM     10  C   UNL     1       2.613   3.646  -2.081  0.00  0.00    -0.010 C 
ATOM     11  C   UNL     1       4.764   1.571  -4.946  0.00  0.00    +0.253 C 
ATOM     12  O   UNL     1       4.821   2.476  -5.751  0.00  0.00    -0.272 OA
ATOM     13  H   UNL     1       2.699   5.592  -0.338  0.00  0.00    -0.086 HD
ATOM     14  H   UNL     1       3.317   6.798  -1.271  0.00  0.00    -0.086 HD
ENDROOT
BRANCH   1  16
ATOM     15  N   UNL     1       1.647   1.068  -0.473  0.00  0.00    -0.310 N 
ATOM     16  C   UNL     1       2.439   1.113  -1.563  0.00  0.00    +0.218 C 
ATOM     17  O   UNL     1       1.998   0.789  -2.646  0.00  0.00    -0.275 OA
ATOM     18  H   UNL     1       2.002   1.320   0.394  0.00  0.00    +0.149 HD
BRANCH  15  19
ATOM     19  C   UNL     1       0.253   0.637  -0.598  0.00  0.00    +0.098 C 
BRANCH  19  21
ATOM     20  C   UNL     1      -0.384   2.514  -2.120  0.00  0.00    +0.006 C 
ATOM     21  C   UNL     1      -0.647   1.864  -0.760  0.00  0.00    +0.021 C 
ENDBRANCH  19  21
BRANCH  19  22
ATOM     22  C   UNL     1      -0.158  -0.134   0.659  0.00  0.00    +0.181 C 
BRANCH  22  23
ATOM     23  O   UNL     1      -0.132   0.744   1.786  0.00  0.00    -0.381 OA
ATOM     24  C   UNL     1      -0.501   0.120   3.017  0.00  0.00    +0.194 C 
ENDBRANCH  22  23
ENDBRANCH  19  22
ENDBRANCH  15  19
ENDBRANCH   1  16
BRANCH  11  25
ATOM     25  C   UNL     1       4.648   0.145  -5.423  0.00  0.00    +0.324 C 
BRANCH  25  26
ATOM     26  O   UNL     1       4.624   0.121  -6.851  0.00  0.00    -0.479 OA
BRANCH  26  27
ATOM     27  C   UNL     1       4.522  -1.097  -7.447  0.00  0.00    +0.164 A 
ATOM     28  C   UNL     1       4.441  -2.241  -6.674  0.00  0.00    +0.049 A 
ATOM     29  C   UNL     1       4.337  -3.490  -7.269  0.00  0.00    +0.004 A 
ATOM     30  C   UNL     1       4.312  -3.608  -8.640  0.00  0.00    +0.012 A 
ATOM     31  C   UNL     1       4.392  -2.460  -9.437  0.00  0.00    +0.024 A 
ATOM     32  C   UNL     1       4.493  -1.194  -8.836  0.00  0.00    +0.181 A 
ATOM     33  O   UNL     1       4.565  -0.088  -9.607  0.00  0.00    -0.418 OA
ATOM     34  C   UNL     1       4.539  -0.164 -10.947  0.00  0.00    +0.338 A 
ATOM     35  O   UNL     1       4.607   0.860 -11.601  0.00  0.00    -0.245 OA
ATOM     36  C   UNL     1       4.433  -1.403 -11.617  0.00  0.00    +0.096 A 
ATOM     37  C   UNL     1       4.368  -2.553 -10.900  0.00  0.00    -0.033 A 
ATOM     38  C   UNL     1       4.256  -3.889 -11.589  0.00  0.00    +0.045 C 
ENDBRANCH  26  27
ENDBRANCH  25  26
ENDBRANCH  11  25
TORSDOF 8
