REMARK  Name = ZINC39695917
REMARK  11 active torsions:
REMARK  status: ('A' for Active; 'I' for Inactive)
REMARK    1  A    between atoms: C_1  and  C_2
REMARK    2  A    between atoms: C_2  and  C_3
REMARK    3  A    between atoms: C_6  and  C_9
REMARK    4  A    between atoms: C_9  and  C_11
REMARK    5  A    between atoms: C_9  and  N_12
REMARK    6  A    between atoms: C_13  and  C_15
REMARK    7  A    between atoms: C_26  and  C_28
REMARK    8  A    between atoms: C_30  and  O_36
REMARK    9  A    between atoms: C_32  and  O_34
REMARK   10  A    between atoms: O_34  and  C_35
REMARK   11  A    between atoms: O_36  and  C_37
REMARK                            x       y       z     vdW  Elec       q    Type
REMARK                         _______ _______ _______ _____ _____    ______ ____
ROOT
ATOM      1  C   UNL     1       6.445   0.017  -6.037  0.00  0.00    +0.100 C 
ATOM      2  C   UNL     1       7.289  -0.954  -5.182  0.00  0.00    +0.121 C 
ATOM      3  N   UNL     1       7.896  -1.885  -6.162  0.00  0.00    -0.296 N 
ATOM      4  C   UNL     1       8.257  -1.024  -7.314  0.00  0.00    +0.115 C 
ATOM      5  C   UNL     1       7.086  -0.029  -7.434  0.00  0.00    -0.004 C 
ATOM      6  C   UNL     1       7.605   1.352  -7.824  0.00  0.00    -0.010 C 
ATOM      7  C   UNL     1       8.184   1.294  -9.240  0.00  0.00    -0.082 C 
ATOM      8  N   UNL     1       7.144   0.858 -10.179  0.00  0.00    +0.379 N 
ATOM      9  C   UNL     1       6.717  -0.508  -9.853  0.00  0.00    -0.082 C 
ATOM     10  C   UNL     1       6.075  -0.527  -8.463  0.00  0.00    -0.010 C 
ATOM     11  C   UNL     1       8.079  -3.215  -6.034  0.00  0.00    +0.247 C 
ATOM     12  O   UNL     1       7.615  -3.803  -5.077  0.00  0.00    -0.270 OA
ATOM     13  H   UNL     1       6.353   1.480 -10.116  0.00  0.00    -0.086 HD
ATOM     14  H   UNL     1       7.511   0.879 -11.119  0.00  0.00    -0.086 HD
ENDROOT
BRANCH  11  15
ATOM     15  C   UNL     1       8.845  -3.957  -7.059  0.00  0.00    +0.044 A 
ATOM     16  C   UNL     1       9.731  -3.279  -7.897  0.00  0.00    +0.059 A 
ATOM     17  C   UNL     1      10.447  -3.978  -8.855  0.00  0.00    +0.124 A 
ATOM     18  C   UNL     1      10.284  -5.350  -8.982  0.00  0.00    +0.091 A 
ATOM     19  C   UNL     1       9.404  -6.027  -8.150  0.00  0.00    +0.124 A 
ATOM     20  C   UNL     1       8.688  -5.337  -7.186  0.00  0.00    +0.059 A 
BRANCH  19  21
ATOM     21  O   UNL     1       9.247  -7.372  -8.279  0.00  0.00    -0.495 OA
ATOM     22  C   UNL     1      10.020  -8.021  -9.290  0.00  0.00    +0.277 C 
ENDBRANCH  19  21
BRANCH  17  23
ATOM     23  O   UNL     1      11.310  -3.319  -9.672  0.00  0.00    -0.495 OA
ATOM     24  C   UNL     1      12.016  -4.102 -10.637  0.00  0.00    +0.277 C 
ENDBRANCH  17  23
ENDBRANCH  11  15
BRANCH   1  26
ATOM     25  N   UNL     1       4.029   0.435  -6.361  0.00  0.00    -0.308 N 
ATOM     26  C   UNL     1       5.013  -0.448  -6.101  0.00  0.00    +0.219 C 
ATOM     27  O   UNL     1       4.746  -1.617  -5.918  0.00  0.00    -0.275 OA
ATOM     28  H   UNL     1       4.242   1.370  -6.507  0.00  0.00    +0.149 HD
BRANCH  25  29
ATOM     29  C   UNL     1       2.637  -0.017  -6.423  0.00  0.00    +0.100 C 
ATOM     30  C   UNL     1       2.044  -0.039  -5.012  0.00  0.00    +0.033 C 
BRANCH  29  34
ATOM     31  C   UNL     1       0.377   2.657  -8.871  0.00  0.00    -0.048 A 
ATOM     32  C   UNL     1       0.157   1.294  -8.949  0.00  0.00    +0.004 A 
ATOM     33  C   UNL     1       0.888   0.429  -8.157  0.00  0.00    +0.006 A 
ATOM     34  C   UNL     1       1.840   0.926  -7.287  0.00  0.00    -0.027 A 
ATOM     35  C   UNL     1       2.062   2.289  -7.210  0.00  0.00    +0.006 A 
ATOM     36  C   UNL     1       1.333   3.154  -8.005  0.00  0.00    +0.004 A 
BRANCH  31  38
ATOM     37  C   UNL     1       0.307   3.811 -11.065  0.00  0.00    +0.009 C 
ATOM     38  C   UNL     1      -0.420   3.600  -9.735  0.00  0.00    +0.032 C 
ENDBRANCH  31  38
ENDBRANCH  29  34
ENDBRANCH  25  29
ENDBRANCH   1  26
TORSDOF 7
