REMARK  Name = ZINC51583773
REMARK  8 active torsions:
REMARK  status: ('A' for Active; 'I' for Inactive)
REMARK    1  A    between atoms: C_1  and  C_2
REMARK    2  A    between atoms: C_2  and  C_3
REMARK    3  A    between atoms: C_3  and  C_4
REMARK    4  A    between atoms: C_4  and  C_6
REMARK    5  A    between atoms: C_4  and  N_7
REMARK    6  A    between atoms: C_8  and  C_10
REMARK    7  A    between atoms: N_19  and  C_20
REMARK    8  A    between atoms: C_25  and  C_26
REMARK                            x       y       z     vdW  Elec       q    Type
REMARK                         _______ _______ _______ _____ _____    ______ ____
ROOT
ATOM      1  C   UNL     1       2.539  -4.298   0.939  0.00  0.00    +0.092 C 
ATOM      2  C   UNL     1       1.880  -5.559   1.505  0.00  0.00    +0.016 C 
ATOM      3  C   UNL     1       2.491  -5.887   2.869  0.00  0.00    +0.020 C 
ATOM      4  C   UNL     1       3.989  -6.157   2.703  0.00  0.00    +0.109 C 
ATOM      5  N   UNL     1       4.605  -5.007   2.027  0.00  0.00    -0.285 N 
ATOM      6  C   UNL     1       4.038  -4.550   0.751  0.00  0.00    +0.122 C 
ATOM      7  C   UNL     1       5.670  -4.382   2.567  0.00  0.00    +0.306 C 
ATOM      8  O   UNL     1       6.217  -3.481   1.963  0.00  0.00    -0.252 OA
ATOM      9  N   UNL     1       6.128  -4.757   3.779  0.00  0.00    -0.269 N 
ATOM     10  H   UNL     1       5.737  -5.522   4.229  0.00  0.00    +0.156 HD
ENDROOT
BRANCH   9  11
ATOM     11  C   UNL     1       7.167  -4.042   4.385  0.00  0.00    +0.040 A 
ATOM     12  C   UNL     1       7.461  -2.752   3.966  0.00  0.00    +0.062 A 
ATOM     13  C   UNL     1       8.489  -2.049   4.568  0.00  0.00    +0.125 A 
ATOM     14  C   UNL     1       9.223  -2.631   5.588  0.00  0.00    +0.039 A 
ATOM     15  C   UNL     1       8.930  -3.916   6.006  0.00  0.00    +0.008 A 
ATOM     16  C   UNL     1       7.901  -4.620   5.412  0.00  0.00    -0.029 A 
ATOM     17  C   UNL     1       7.580  -6.018   5.875  0.00  0.00    +0.045 C 
ATOM     18  F   UNL     1       8.777  -0.793   4.161  0.00  0.00    -0.205 F 
ENDBRANCH   9  11
BRANCH   1  20
ATOM     19  N   UNL     1       2.340  -2.880  -1.077  0.00  0.00    -0.312 N 
ATOM     20  C   UNL     1       1.915  -3.958  -0.390  0.00  0.00    +0.218 C 
ATOM     21  O   UNL     1       1.030  -4.654  -0.840  0.00  0.00    -0.275 OA
ATOM     22  H   UNL     1       3.048  -2.323  -0.717  0.00  0.00    +0.149 HD
BRANCH  19  23
ATOM     23  C   UNL     1       1.734  -2.549  -2.369  0.00  0.00    +0.070 C 
ATOM     24  C   UNL     1       2.425  -3.346  -3.477  0.00  0.00    +0.028 C 
BRANCH  23  25
ATOM     25  C   UNL     1       1.896  -1.052  -2.641  0.00  0.00    +0.022 C 
BRANCH  25  27
ATOM     26  C   UNL     1       1.263   1.240  -1.875  0.00  0.00    +0.004 C 
ATOM     27  C   UNL     1       1.100  -0.257  -1.604  0.00  0.00    -0.002 C 
ENDBRANCH  25  27
ENDBRANCH  23  25
ENDBRANCH  19  23
ENDBRANCH   1  20
TORSDOF 5
