REMARK  Name = ZINC58005085
REMARK  10 active torsions:
REMARK  status: ('A' for Active; 'I' for Inactive)
REMARK    1  A    between atoms: C_1  and  C_2
REMARK    2  A    between atoms: C_5  and  O_32
REMARK    3  A    between atoms: C_6  and  C_8
REMARK    4  A    between atoms: C_8  and  C_10
REMARK    5  A    between atoms: C_8  and  N_11
REMARK    6  A    between atoms: C_12  and  C_14
REMARK    7  A    between atoms: C_15  and  C_23
REMARK    8  A    between atoms: C_23  and  S_24
REMARK    9  A    between atoms: S_24  and  C_25
REMARK   10  A    between atoms: O_32  and  C_33
REMARK                            x       y       z     vdW  Elec       q    Type
REMARK                         _______ _______ _______ _____ _____    ______ ____
ROOT
ATOM      1  C   UNL     1       1.877  -1.715   5.622  0.00  0.00    +0.194 A 
ATOM      2  C   UNL     1       2.572  -2.170   6.696  0.00  0.00    +0.021 A 
ATOM      3  C   UNL     1       2.951  -0.985   7.465  0.00  0.00    +0.025 A 
ATOM      4  C   UNL     1       3.662  -0.780   8.650  0.00  0.00    +0.012 A 
ATOM      5  C   UNL     1       3.849   0.491   9.116  0.00  0.00    +0.001 A 
ATOM      6  C   UNL     1       3.336   1.578   8.420  0.00  0.00    +0.004 A 
ATOM      7  C   UNL     1       2.631   1.396   7.250  0.00  0.00    +0.047 A 
ATOM      8  C   UNL     1       2.430   0.113   6.756  0.00  0.00    +0.136 A 
ATOM      9  O   UNL     1       1.804  -0.368   5.664  0.00  0.00    -0.450 OA
ENDROOT
BRANCH   1  11
ATOM     10  N   UNL     1       0.630  -1.997   3.542  0.00  0.00    -0.302 N 
ATOM     11  C   UNL     1       1.298  -2.561   4.569  0.00  0.00    +0.280 C 
ATOM     12  O   UNL     1       1.420  -3.770   4.624  0.00  0.00    -0.267 OA
ATOM     13  H   UNL     1       0.532  -1.033   3.499  0.00  0.00    +0.150 HD
BRANCH  10  14
ATOM     14  C   UNL     1       0.052  -2.841   2.493  0.00  0.00    +0.104 C 
ATOM     15  C   UNL     1      -1.352  -3.283   2.910  0.00  0.00    +0.033 C 
BRANCH  14  21
ATOM     16  C   UNL     1      -0.349   1.536   0.102  0.00  0.00    +0.044 C 
ATOM     17  C   UNL     1      -0.220   0.035   0.062  0.00  0.00    -0.050 A 
ATOM     18  C   UNL     1      -0.175  -0.622  -1.154  0.00  0.00    +0.007 A 
ATOM     19  C   UNL     1      -0.057  -1.997  -1.193  0.00  0.00    +0.046 A 
ATOM     20  C   UNL     1       0.017  -2.720  -0.011  0.00  0.00    +0.125 A 
ATOM     21  C   UNL     1      -0.028  -2.059   1.208  0.00  0.00    +0.014 A 
ATOM     22  C   UNL     1      -0.140  -0.682   1.241  0.00  0.00    +0.012 A 
BRANCH  20  23
ATOM     23  O   UNL     1       0.133  -4.074  -0.047  0.00  0.00    -0.495 OA
ATOM     24  C   UNL     1       0.172  -4.687  -1.337  0.00  0.00    +0.277 C 
ENDBRANCH  20  23
ENDBRANCH  14  21
ENDBRANCH  10  14
ENDBRANCH   1  11
BRANCH   2  25
ATOM     25  C   UNL     1       2.889  -3.605   7.028  0.00  0.00    +0.117 C 
BRANCH  25  26
ATOM     26  S   UNL     1       4.471  -4.067   6.269  0.00  0.00    -0.083 S 
BRANCH  26  27
ATOM     27  C   UNL     1       4.696  -5.749   6.744  0.00  0.00    +0.169 A 
ATOM     28  N   UNL     1       3.781  -6.342   7.487  0.00  0.00    -0.232 NA
ATOM     29  C   UNL     1       3.912  -7.610   7.866  0.00  0.00    +0.119 A 
ATOM     30  C   UNL     1       5.010  -8.328   7.489  0.00  0.00    +0.090 A 
ATOM     31  C   UNL     1       5.991  -7.705   6.698  0.00  0.00    +0.252 A 
ATOM     32  N   UNL     1       5.809  -6.417   6.333  0.00  0.00    -0.302 N 
ATOM     33  O   UNL     1       6.985  -8.316   6.343  0.00  0.00    -0.268 OA
ATOM     34  H   UNL     1       6.471  -5.968   5.785  0.00  0.00    +0.171 HD
ENDBRANCH  26  27
ENDBRANCH  25  26
ENDBRANCH   2  25
TORSDOF 7
