REMARK  Name = ZINC08623158
REMARK  8 active torsions:
REMARK  status: ('A' for Active; 'I' for Inactive)
REMARK    1  A    between atoms: C_1  and  C_2
REMARK    2  A    between atoms: C_4  and  C_26
REMARK    3  A    between atoms: C_6  and  C_8
REMARK    4  A    between atoms: C_16  and  C_18
REMARK    5  A    between atoms: C_18  and  N_19
REMARK    6  A    between atoms: N_22  and  C_23
REMARK    7  A    between atoms: C_23  and  C_24
REMARK    8  A    between atoms: C_23  and  C_25
REMARK                            x       y       z     vdW  Elec       q    Type
REMARK                         _______ _______ _______ _____ _____    ______ ____
ROOT
ATOM      1  C   UNL     1      -0.826   1.451   0.971  0.00  0.00    +0.024 C 
ATOM      2  C   UNL     1      -0.007   0.964  -0.228  0.00  0.00    -0.068 C 
ATOM      3  C   UNL     1      -1.078   2.575  -1.685  0.00  0.00    -0.078 C 
ATOM      4  C   UNL     1      -1.927   3.109  -0.528  0.00  0.00    -0.015 C 
ATOM      5  C   UNL     1      -2.179   1.970   0.468  0.00  0.00    -0.007 C 
ATOM      6  C   UNL     1      -2.898   0.830  -0.265  0.00  0.00    -0.010 C 
ATOM      7  C   UNL     1      -2.022   0.360  -1.429  0.00  0.00    -0.051 C 
ATOM      8  N   UNL     1      -0.769   1.143  -1.482  0.00  0.00    +0.383 N 
ATOM      9  H   UNL     1      -0.200   0.810  -2.268  0.00  0.00    -0.081 HD
ENDROOT
BRANCH   1  15
ATOM     10  C   UNL     1       0.592  -2.864   2.781  0.00  0.00    +0.088 C 
ATOM     11  C   UNL     1      -0.390  -1.721   2.789  0.00  0.00    +0.127 A 
ATOM     12  N   UNL     1      -1.404  -1.755   3.628  0.00  0.00    -0.232 NA
ATOM     13  C   UNL     1      -2.290  -0.762   3.663  0.00  0.00    +0.076 A 
ATOM     14  C   UNL     1      -2.124   0.323   2.797  0.00  0.00    +0.052 A 
ATOM     15  C   UNL     1      -1.047   0.310   1.930  0.00  0.00    +0.047 A 
ATOM     16  N   UNL     1      -0.208  -0.715   1.956  0.00  0.00    -0.237 NA
BRANCH  13  17
ATOM     17  C   UNL     1      -3.431  -0.803   4.609  0.00  0.00    +0.014 A 
ATOM     18  C   UNL     1      -3.734   0.313   5.389  0.00  0.00    +0.011 A 
ATOM     19  C   UNL     1      -4.797   0.269   6.268  0.00  0.00    +0.001 A 
ATOM     20  C   UNL     1      -5.562  -0.878   6.376  0.00  0.00    +0.001 A 
ATOM     21  C   UNL     1      -5.268  -1.988   5.606  0.00  0.00    +0.016 A 
ATOM     22  C   UNL     1      -4.209  -1.955   4.719  0.00  0.00    +0.027 A 
ATOM     23 BR   UNL     1      -3.811  -3.471   3.661  0.00  0.00    -0.050 Br
ENDBRANCH  13  17
ENDBRANCH   1  15
BRANCH   7  24
ATOM     24  C   UNL     1      -1.676  -1.119  -1.243  0.00  0.00    +0.090 C 
BRANCH  24  25
ATOM     25  N   UNL     1      -0.739  -1.537  -2.290  0.00  0.00    -0.301 N 
ATOM     26  C   UNL     1      -0.213  -2.777  -2.267  0.00  0.00    +0.300 C 
ATOM     27  O   UNL     1      -0.583  -3.579  -1.431  0.00  0.00    -0.253 OA
ATOM     28  N   UNL     1       0.722  -3.129  -3.171  0.00  0.00    -0.297 N 
ATOM     29  H   UNL     1      -0.498  -0.920  -2.999  0.00  0.00    +0.150 HD
ATOM     30  H   UNL     1       1.017  -2.489  -3.838  0.00  0.00    +0.150 HD
BRANCH  28  31
ATOM     31  C   UNL     1       1.294  -4.478  -3.147  0.00  0.00    +0.068 C 
ATOM     32  C   UNL     1       0.388  -5.430  -3.931  0.00  0.00    +0.027 C 
ATOM     33  C   UNL     1       2.684  -4.454  -3.786  0.00  0.00    +0.027 C 
ENDBRANCH  28  31
ENDBRANCH  24  25
ENDBRANCH   7  24
TORSDOF 5
