REMARK  Name = ZINC01838289
REMARK  7 active torsions:
REMARK  status: ('A' for Active; 'I' for Inactive)
REMARK    1  A    between atoms: C_1  and  C_2
REMARK    2  A    between atoms: C_5  and  N_8
REMARK    3  A    between atoms: C_16  and  C_20
REMARK    4  A    between atoms: C_16  and  N_24
REMARK    5  A    between atoms: C_25  and  C_27
REMARK    6  A    between atoms: C_27  and  C_28
REMARK    7  A    between atoms: C_28  and  C_29
REMARK                            x       y       z     vdW  Elec       q    Type
REMARK                         _______ _______ _______ _____ _____    ______ ____
ROOT
ATOM      1  N   UNL     1       0.200  -4.139   0.037  0.00  0.00    -0.249 N 
ATOM      2  C   UNL     1       0.277  -4.853   1.217  0.00  0.00    +0.125 A 
ATOM      3  C   UNL     1       0.249  -6.214   1.152  0.00  0.00    +0.097 A 
ATOM      4  C   UNL     1       0.144  -6.859  -0.087  0.00  0.00    +0.262 A 
ATOM      5  N   UNL     1       0.070  -6.119  -1.213  0.00  0.00    -0.274 N 
ATOM      6  C   UNL     1       0.094  -4.775  -1.141  0.00  0.00    +0.335 A 
ATOM      7  O   UNL     1       0.022  -4.123  -2.165  0.00  0.00    -0.246 OA
ATOM      8  O   UNL     1       0.119  -8.076  -0.148  0.00  0.00    -0.267 OA
ATOM      9  C   UNL     1       0.350  -6.717   2.573  0.00  0.00    +0.240 C 
ATOM     10  C   UNL     1       0.434  -5.445   3.393  0.00  0.00    +0.256 C 
ATOM     11  O   UNL     1       0.528  -5.364   4.599  0.00  0.00    -0.272 OA
ATOM     12  N   UNL     1       0.384  -4.425   2.518  0.00  0.00    -0.269 N 
ATOM     13  H   UNL     1      -0.004  -6.556  -2.076  0.00  0.00    +0.173 HD
ATOM     14  H   UNL     1       0.420  -3.491   2.777  0.00  0.00    +0.156 HD
ENDROOT
BRANCH   1  19
ATOM     15  C   UNL     1       0.305   1.534   0.171  0.00  0.00    +0.044 C 
ATOM     16  C   UNL     1       0.277   0.027   0.135  0.00  0.00    -0.050 A 
ATOM     17  C   UNL     1       1.318  -0.668  -0.452  0.00  0.00    +0.005 A 
ATOM     18  C   UNL     1       1.295  -2.049  -0.486  0.00  0.00    +0.026 A 
ATOM     19  C   UNL     1       0.226  -2.738   0.071  0.00  0.00    +0.053 A 
ATOM     20  C   UNL     1      -0.818  -2.037   0.660  0.00  0.00    +0.026 A 
ATOM     21  C   UNL     1      -0.787  -0.656   0.695  0.00  0.00    +0.005 A 
ENDBRANCH   1  19
BRANCH   9  22
ATOM     22  C   UNL     1      -0.897  -7.519   2.950  0.00  0.00    +0.424 C 
ATOM     23  F   UNL     1      -0.960  -8.678   2.169  0.00  0.00    -0.167 F 
ATOM     24  F   UNL     1      -0.834  -7.871   4.302  0.00  0.00    -0.167 F 
ATOM     25  F   UNL     1      -2.038  -6.742   2.723  0.00  0.00    -0.167 F 
ENDBRANCH   9  22
BRANCH   9  26
ATOM     26  N   UNL     1       1.558  -7.526   2.750  0.00  0.00    -0.291 N 
ATOM     27  C   UNL     1       2.774  -6.960   2.614  0.00  0.00    +0.215 C 
ATOM     28  O   UNL     1       2.869  -5.807   2.249  0.00  0.00    -0.276 OA
ATOM     29  H   UNL     1       1.484  -8.469   2.965  0.00  0.00    +0.150 HD
BRANCH  27  30
ATOM     30  C   UNL     1       4.015  -7.759   2.915  0.00  0.00    +0.100 C 
BRANCH  30  31
ATOM     31  C   UNL     1       5.252  -6.888   2.683  0.00  0.00    +0.044 C 
BRANCH  31  32
ATOM     32  C   UNL     1       6.493  -7.688   2.984  0.00  0.00    -0.047 A 
ATOM     33  C   UNL     1       7.017  -7.695   4.263  0.00  0.00    +0.003 A 
ATOM     34  C   UNL     1       8.156  -8.428   4.539  0.00  0.00    +0.000 A 
ATOM     35  C   UNL     1       8.770  -9.155   3.537  0.00  0.00    +0.000 A 
ATOM     36  C   UNL     1       8.246  -9.149   2.258  0.00  0.00    +0.000 A 
ATOM     37  C   UNL     1       7.105  -8.419   1.982  0.00  0.00    +0.003 A 
ENDBRANCH  31  32
ENDBRANCH  30  31
ENDBRANCH  27  30
ENDBRANCH   9  26
TORSDOF 6
