REMARK  Name = ZINC36568992
REMARK  18 active torsions:
REMARK  status: ('A' for Active; 'I' for Inactive)
REMARK    1  A    between atoms: C_1  and  C_2
REMARK    2  A    between atoms: C_2  and  C_3
REMARK    3  A    between atoms: C_3  and  N_4
REMARK    4  A    between atoms: N_4  and  C_5
REMARK    5  A    between atoms: C_5  and  C_7
REMARK    6  A    between atoms: C_5  and  C_16
REMARK    7  A    between atoms: C_8  and  O_15
REMARK    8  A    between atoms: C_10  and  O_14
REMARK    9  A    between atoms: C_12  and  O_13
REMARK   10  A    between atoms: N_18  and  C_19
REMARK   11  A    between atoms: C_19  and  C_20
REMARK   12  A    between atoms: C_19  and  C_21
REMARK   13  A    between atoms: C_19  and  C_22
REMARK   14  A    between atoms: C_22  and  C_23
REMARK   15  A    between atoms: C_23  and  C_24
REMARK   16  A    between atoms: C_23  and  C_25
REMARK   17  A    between atoms: C_23  and  C_26
REMARK   18  A    between atoms: C_27  and  C_29
REMARK                            x       y       z     vdW  Elec       q    Type
REMARK                         _______ _______ _______ _____ _____    ______ ____
ROOT
ATOM      1  C   UNL     1      -1.065  -5.258  -0.438  0.00  0.00    +0.199 C 
ENDROOT
BRANCH   1   2
ATOM      2  C   UNL     1      -1.169  -5.547  -1.914  0.00  0.00    +0.065 A 
ATOM      3  C   UNL     1      -1.880  -6.653  -2.355  0.00  0.00    +0.129 A 
ATOM      4  C   UNL     1      -1.976  -6.918  -3.713  0.00  0.00    +0.091 A 
ATOM      5  C   UNL     1      -1.362  -6.078  -4.629  0.00  0.00    +0.124 A 
ATOM      6  C   UNL     1      -0.652  -4.972  -4.188  0.00  0.00    +0.091 A 
ATOM      7  C   UNL     1      -0.559  -4.704  -2.830  0.00  0.00    +0.129 A 
BRANCH   7   8
ATOM      8  O   UNL     1       0.132  -3.617  -2.398  0.00  0.00    -0.506 OA
ATOM      9  H   UNL     1       1.069  -3.788  -2.229  0.00  0.00    +0.292 HD
ENDBRANCH   7   8
BRANCH   5  10
ATOM     10  O   UNL     1      -1.455  -6.339  -5.959  0.00  0.00    -0.507 OA
ATOM     11  H   UNL     1      -2.217  -5.926  -6.389  0.00  0.00    +0.292 HD
ENDBRANCH   5  10
BRANCH   3  12
ATOM     12  O   UNL     1      -2.482  -7.476  -1.457  0.00  0.00    -0.506 OA
ATOM     13  H   UNL     1      -3.416  -7.276  -1.305  0.00  0.00    +0.292 HD
ENDBRANCH   3  12
ENDBRANCH   1   2
BRANCH   1  14
ATOM     14  C   UNL     1      -2.309  -4.543   0.023  0.00  0.00    +0.239 C 
ATOM     15  O   UNL     1      -2.226  -3.437   0.513  0.00  0.00    -0.273 OA
ATOM     16  N   UNL     1      -3.514  -5.132  -0.110  0.00  0.00    -0.308 N 
ATOM     17  H   UNL     1      -3.580  -6.017  -0.502  0.00  0.00    +0.149 HD
BRANCH  16  18
ATOM     18  C   UNL     1      -4.723  -4.437   0.338  0.00  0.00    +0.030 C 
ATOM     19  C   UNL     1      -4.699  -4.304   1.862  0.00  0.00    +0.031 C 
ATOM     20  C   UNL     1      -4.775  -3.045  -0.295  0.00  0.00    +0.031 C 
BRANCH  18  21
ATOM     21  C   UNL     1      -5.957  -5.236  -0.085  0.00  0.00    +0.031 C 
BRANCH  21  22
ATOM     22  C   UNL     1      -6.147  -5.117  -1.598  0.00  0.00    -0.036 C 
ATOM     23  C   UNL     1      -4.782  -5.137  -2.288  0.00  0.00    +0.010 C 
ATOM     24  C   UNL     1      -6.990  -6.291  -2.100  0.00  0.00    +0.010 C 
ATOM     25  C   UNL     1      -6.862  -3.803  -1.921  0.00  0.00    +0.010 C 
ENDBRANCH  21  22
ENDBRANCH  18  21
ENDBRANCH  16  18
ENDBRANCH   1  14
BRANCH   1  26
ATOM     26  N   UNL     1       0.105  -4.413  -0.188  0.00  0.00    -0.282 N 
ATOM     27  C   UNL     1       1.346  -4.921  -0.327  0.00  0.00    +0.248 C 
ATOM     28  O   UNL     1       2.315  -4.196  -0.223  0.00  0.00    -0.270 OA
BRANCH  27  29
ATOM     29  C   UNL     1       1.527  -6.362  -0.607  0.00  0.00    +0.038 A 
ATOM     30  C   UNL     1       0.430  -7.152  -0.955  0.00  0.00    +0.013 A 
ATOM     31  C   UNL     1       0.605  -8.495  -1.216  0.00  0.00    +0.002 A 
ATOM     32  C   UNL     1       1.865  -9.060  -1.134  0.00  0.00    +0.020 A 
ATOM     33  C   UNL     1       2.958  -8.283  -0.790  0.00  0.00    +0.042 A 
ATOM     34  C   UNL     1       2.797  -6.936  -0.531  0.00  0.00    +0.033 A 
ATOM     35 CL   UNL     1       4.535  -9.001  -0.689  0.00  0.00    -0.084 Cl
ENDBRANCH  27  29
BRANCH  26  36
ATOM     36  C   UNL     1      -0.073  -3.016   0.215  0.00  0.00    +0.109 C 
BRANCH  36  38
ATOM     37  C   UNL     1      -0.321  -1.472   2.164  0.00  0.00    +0.005 C 
ATOM     38  C   UNL     1      -0.215  -2.937   1.736  0.00  0.00    +0.016 C 
ENDBRANCH  36  38
ENDBRANCH  26  36
ENDBRANCH   1  26
TORSDOF 12
