REMARK  Name = ZINC09435573
REMARK  10 active torsions:
REMARK  status: ('A' for Active; 'I' for Inactive)
REMARK    1  A    between atoms: C_1  and  C_2
REMARK    2  A    between atoms: C_3  and  C_15
REMARK    3  A    between atoms: N_5  and  C_7
REMARK    4  A    between atoms: C_16  and  C_17
REMARK    5  A    between atoms: C_17  and  O_19
REMARK    6  A    between atoms: O_19  and  C_20
REMARK    7  A    between atoms: C_20  and  C_22
REMARK    8  A    between atoms: C_20  and  C_25
REMARK    9  A    between atoms: C_22  and  C_23
REMARK   10  A    between atoms: C_22  and  C_24
REMARK                            x       y       z     vdW  Elec       q    Type
REMARK                         _______ _______ _______ _____ _____    ______ ____
ROOT
ATOM      1  C   UNL     1       2.747   3.986   0.011  0.00  0.00    +0.020 C 
ATOM      2  C   UNL     1       1.510   3.440   0.045  0.00  0.00    +0.092 C 
ENDROOT
BRANCH   1   5
ATOM      3  C   UNL     1       4.662   5.598   1.961  0.00  0.00    +0.068 C 
ATOM      4  C   UNL     1       3.755   6.179   0.907  0.00  0.00    +0.069 A 
ATOM      5  C   UNL     1       2.906   5.445   0.044  0.00  0.00    +0.035 A 
ATOM      6  C   UNL     1       2.250   6.364  -0.759  0.00  0.00    +0.140 A 
ATOM      7  N   UNL     1       2.684   7.588  -0.404  0.00  0.00    -0.221 N 
ATOM      8  N   UNL     1       3.618   7.446   0.628  0.00  0.00    -0.170 NA
ATOM      9 CL   UNL     1       1.085   6.003  -1.995  0.00  0.00    -0.061 Cl
BRANCH   7  10
ATOM     10  C   UNL     1       2.269   8.801  -0.971  0.00  0.00    +0.067 A 
ATOM     11  C   UNL     1       1.975   8.870  -2.326  0.00  0.00    +0.030 A 
ATOM     12  C   UNL     1       1.562  10.065  -2.882  0.00  0.00    +0.040 A 
ATOM     13  C   UNL     1       1.451  11.196  -2.092  0.00  0.00    +0.124 A 
ATOM     14  C   UNL     1       1.749  11.131  -0.741  0.00  0.00    +0.040 A 
ATOM     15  C   UNL     1       2.157   9.937  -0.180  0.00  0.00    +0.030 A 
ATOM     16  F   UNL     1       1.053  12.365  -2.639  0.00  0.00    -0.205 F 
ENDBRANCH   7  10
ENDBRANCH   1   5
BRANCH   2  17
ATOM     17  C   UNL     1       1.356   2.034   0.013  0.00  0.00    +0.333 C 
ATOM     18  O   UNL     1       2.337   1.316  -0.045  0.00  0.00    -0.246 OA
BRANCH  17  19
ATOM     19  O   UNL     1       0.122   1.489   0.048  0.00  0.00    -0.449 OA
BRANCH  19  20
ATOM     20  C   UNL     1       0.041   0.063   0.012  0.00  0.00    +0.265 C 
BRANCH  20  21
ATOM     21  C   UNL     1      -1.243  -0.351  -0.659  0.00  0.00    +0.261 C 
ATOM     22  O   UNL     1      -1.436  -1.516  -0.933  0.00  0.00    -0.271 OA
ATOM     23  N   UNL     1      -2.178   0.575  -0.955  0.00  0.00    -0.237 N 
ATOM     24  C   UNL     1      -3.370   0.193  -1.455  0.00  0.00    +0.303 C 
ATOM     25  O   UNL     1      -3.602  -0.986  -1.639  0.00  0.00    -0.253 OA
ATOM     26  N   UNL     1      -4.304   1.118  -1.751  0.00  0.00    -0.313 N 
ATOM     27  H   UNL     1      -1.967   1.641  -0.789  0.00  0.00    +0.159 HD
ATOM     28  H   UNL     1      -5.277   0.806  -2.159  0.00  0.00    +0.146 HD
ATOM     29  H   UNL     1      -4.093   2.185  -1.585  0.00  0.00    +0.146 HD
ENDBRANCH  20  21
BRANCH  20  30
ATOM     30  C   UNL     1       0.069  -0.485   1.440  0.00  0.00    +0.033 C 
ATOM     31  C   UNL     1       0.122  -2.013   1.399  0.00  0.00    +0.011 C 
ATOM     32  C   UNL     1       1.305   0.049   2.167  0.00  0.00    +0.011 C 
ENDBRANCH  20  30
ENDBRANCH  19  20
ENDBRANCH  17  19
ENDBRANCH   2  17
TORSDOF 7
