REMARK  Name = ZINC35486772
REMARK  11 active torsions:
REMARK  status: ('A' for Active; 'I' for Inactive)
REMARK    1  A    between atoms: C_1  and  N_2
REMARK    2  A    between atoms: N_2  and  C_3
REMARK    3  A    between atoms: N_2  and  C_4
REMARK    4  A    between atoms: C_4  and  C_5
REMARK    5  A    between atoms: C_5  and  N_6
REMARK    6  A    between atoms: C_7  and  C_23
REMARK    7  A    between atoms: C_26  and  O_31
REMARK    8  A    between atoms: C_27  and  O_29
REMARK    9  A    between atoms: O_29  and  C_30
REMARK   10  A    between atoms: O_31  and  C_32
REMARK   11  A    between atoms: C_32  and  C_33
REMARK                            x       y       z     vdW  Elec       q    Type
REMARK                         _______ _______ _______ _____ _____    ______ ____
ROOT
ATOM      1  N   UNL     1      -2.733  -2.544  -0.111  0.00  0.00    -0.285 N 
ATOM      2  C   UNL     1      -3.499  -2.941   1.081  0.00  0.00    +0.145 C 
ATOM      3  C   UNL     1      -4.833  -3.387   0.578  0.00  0.00    +0.072 A 
ATOM      4  C   UNL     1      -6.010  -3.900   1.286  0.00  0.00    +0.199 A 
ATOM      5  O   UNL     1      -6.121  -3.879   2.499  0.00  0.00    -0.287 OA
ATOM      6  C   UNL     1      -7.054  -4.448   0.384  0.00  0.00    +0.067 A 
ATOM      7  C   UNL     1      -8.140  -5.151   0.906  0.00  0.00    +0.053 A 
ATOM      8  C   UNL     1      -9.097  -5.658   0.053  0.00  0.00    +0.124 A 
ATOM      9  C   UNL     1      -8.977  -5.467  -1.319  0.00  0.00    +0.042 A 
ATOM     10  C   UNL     1      -7.911  -4.774  -1.844  0.00  0.00    +0.050 A 
ATOM     11  C   UNL     1      -6.931  -4.250  -1.001  0.00  0.00    +0.140 A 
ATOM     12  O   UNL     1      -5.898  -3.563  -1.543  0.00  0.00    -0.450 OA
ATOM     13  C   UNL     1      -4.832  -3.251  -0.781  0.00  0.00    +0.199 A 
ATOM     14  C   UNL     1      -3.520  -2.722  -1.192  0.00  0.00    +0.283 C 
ATOM     15  O   UNL     1      -3.193  -2.485  -2.338  0.00  0.00    -0.267 OA
ATOM     16  F   UNL     1     -10.152  -6.339   0.550  0.00  0.00    -0.205 F 
ENDROOT
BRANCH   2  17
ATOM     17  C   UNL     1      -2.804  -4.075   1.791  0.00  0.00    -0.019 A 
ATOM     18  C   UNL     1      -2.213  -5.087   1.060  0.00  0.00    +0.009 A 
ATOM     19  C   UNL     1      -1.574  -6.129   1.706  0.00  0.00    +0.050 A 
ATOM     20  C   UNL     1      -1.526  -6.160   3.091  0.00  0.00    +0.162 A 
ATOM     21  C   UNL     1      -2.122  -5.140   3.827  0.00  0.00    +0.162 A 
ATOM     22  C   UNL     1      -2.756  -4.096   3.173  0.00  0.00    +0.055 A 
BRANCH  21  23
ATOM     23  O   UNL     1      -2.077  -5.165   5.186  0.00  0.00    -0.491 OA
ATOM     24  C   UNL     1      -2.709  -4.086   5.876  0.00  0.00    +0.277 C 
ENDBRANCH  21  23
BRANCH  20  25
ATOM     25  O   UNL     1      -0.899  -7.184   3.729  0.00  0.00    -0.484 OA
BRANCH  25  26
ATOM     26  C   UNL     1      -0.311  -8.196   2.909  0.00  0.00    +0.264 C 
BRANCH  26  27
ATOM     27  C   UNL     1       0.333  -9.240   3.784  0.00  0.00    -0.010 A 
ATOM     28  C   UNL     1       1.654  -9.101   4.168  0.00  0.00    +0.007 A 
ATOM     29  C   UNL     1       2.245 -10.059   4.970  0.00  0.00    +0.000 A 
ATOM     30  C   UNL     1       1.515 -11.155   5.389  0.00  0.00    +0.000 A 
ATOM     31  C   UNL     1       0.194 -11.294   5.006  0.00  0.00    +0.000 A 
ATOM     32  C   UNL     1      -0.398 -10.334   4.207  0.00  0.00    +0.007 A 
ENDBRANCH  26  27
ENDBRANCH  25  26
ENDBRANCH  20  25
ENDBRANCH   2  17
BRANCH   1  33
ATOM     33  C   UNL     1      -1.358  -2.037  -0.122  0.00  0.00    +0.090 C 
BRANCH  33  34
ATOM     34  C   UNL     1      -1.376  -0.512   0.012  0.00  0.00    -0.060 C 
BRANCH  34  36
ATOM     35  C   UNL     1      -0.018   1.465   0.010  0.00  0.00    -0.097 C 
ATOM     36  N   UNL     1       0.002  -0.004   0.002  0.00  0.00    +0.377 N 
ATOM     37  C   UNL     1       0.713  -0.491   1.192  0.00  0.00    -0.097 C 
ATOM     38  H   UNL     1       0.474  -0.330  -0.828  0.00  0.00    -0.083 HD
ENDBRANCH  34  36
ENDBRANCH  33  34
ENDBRANCH   1  33
TORSDOF 8
