REMARK  Name = ZINC41564137
REMARK  3 active torsions:
REMARK  status: ('A' for Active; 'I' for Inactive)
REMARK    1  A    between atoms: C_1  and  C_2
REMARK    2  A    between atoms: C_7  and  N_8
REMARK    3  A    between atoms: C_10  and  N_16
REMARK                            x       y       z     vdW  Elec       q    Type
REMARK                         _______ _______ _______ _____ _____    ______ ____
ROOT
ATOM      1  N   UNL     1       0.025  -0.015   2.416  0.00  0.00    -0.298 N 
ATOM      2  C   UNL     1      -0.060  -0.718   3.616  0.00  0.00    +0.144 A 
ATOM      3  C   UNL     1      -0.169  -0.020   4.822  0.00  0.00    +0.066 A 
ATOM      4  C   UNL     1      -0.252  -0.736   6.009  0.00  0.00    +0.043 A 
ATOM      5  C   UNL     1      -0.224  -2.123   5.948  0.00  0.00    +0.038 A 
ATOM      6  C   UNL     1      -0.114  -2.745   4.720  0.00  0.00    +0.128 A 
ATOM      7  N   UNL     1      -0.041  -2.041   3.605  0.00  0.00    -0.237 NA
ATOM      8 BR   UNL     1      -0.333  -3.151   7.532  0.00  0.00    -0.049 Br
ATOM      9  H   UNL     1      -0.085   0.948   2.409  0.00  0.00    +0.154 HD
ENDROOT
BRANCH   1  16
ATOM     10  C   UNL     1      -1.032   1.073   0.009  0.00  0.00    +0.045 C 
ATOM     11  C   UNL     1      -0.231  -0.204   0.023  0.00  0.00    -0.029 A 
ATOM     12  C   UNL     1       0.014  -0.879  -1.157  0.00  0.00    +0.006 A 
ATOM     13  C   UNL     1       0.749  -2.050  -1.146  0.00  0.00    +0.020 A 
ATOM     14  C   UNL     1       1.241  -2.550   0.048  0.00  0.00    +0.043 A 
ATOM     15  C   UNL     1       1.000  -1.879   1.231  0.00  0.00    +0.043 A 
ATOM     16  C   UNL     1       0.266  -0.699   1.222  0.00  0.00    +0.037 A 
ATOM     17 CL   UNL     1       2.163  -4.021   0.057  0.00  0.00    -0.083 Cl
ENDBRANCH   1  16
BRANCH   3  18
ATOM     18  N   UNL     1      -0.194   1.379   4.833  0.00  0.00    -0.355 N 
ATOM     19  H   UNL     1      -0.135   1.872   3.999  0.00  0.00    +0.142 HD
ATOM     20  H   UNL     1      -0.270   1.857   5.674  0.00  0.00    +0.142 HD
ENDBRANCH   3  18
TORSDOF 2
