REMARK  Name = ZINC16214657
REMARK  12 active torsions:
REMARK  status: ('A' for Active; 'I' for Inactive)
REMARK    1  A    between atoms: C_1  and  O_2
REMARK    2  A    between atoms: O_2  and  C_3
REMARK    3  A    between atoms: C_5  and  C_18
REMARK    4  A    between atoms: C_8  and  O_9
REMARK    5  A    between atoms: O_9  and  C_10
REMARK    6  A    between atoms: C_10  and  C_11
REMARK    7  A    between atoms: C_18  and  N_54
REMARK    8  A    between atoms: C_19  and  C_20
REMARK    9  A    between atoms: C_19  and  N_54
REMARK   10  A    between atoms: C_20  and  N_21
REMARK   11  A    between atoms: N_21  and  C_22
REMARK   12  A    between atoms: C_25  and  N_29
REMARK                            x       y       z     vdW  Elec       q    Type
REMARK                         _______ _______ _______ _____ _____    ______ ____
ROOT
ATOM      1  C   UNL     1      -6.616   5.061   2.142  0.00  0.00    -0.047 C 
ENDROOT
BRANCH   1   4
ATOM      2  C   UNL     1      -3.380   3.243   2.846  0.00  0.00    +0.162 A 
ATOM      3  C   UNL     1      -4.576   3.918   3.032  0.00  0.00    +0.051 A 
ATOM      4  C   UNL     1      -5.313   4.332   1.938  0.00  0.00    -0.061 A 
ATOM      5  C   UNL     1      -4.856   4.081   0.658  0.00  0.00    +0.005 A 
ATOM      6  C   UNL     1      -3.661   3.413   0.466  0.00  0.00    +0.049 A 
ATOM      7  C   UNL     1      -2.918   2.995   1.558  0.00  0.00    +0.162 A 
BRANCH   2   9
ATOM      8  C   UNL     1      -3.193   3.119   5.214  0.00  0.00    +0.277 C 
ATOM      9  O   UNL     1      -2.657   2.830   3.921  0.00  0.00    -0.491 OA
ENDBRANCH   2   9
BRANCH   7  10
ATOM     10  O   UNL     1      -1.742   2.338   1.370  0.00  0.00    -0.484 OA
BRANCH  10  11
ATOM     11  C   UNL     1      -1.332   2.113   0.020  0.00  0.00    +0.264 C 
BRANCH  11  12
ATOM     12  C   UNL     1      -0.017   1.378   0.010  0.00  0.00    -0.010 A 
ATOM     13  C   UNL     1       1.170   2.087   0.002  0.00  0.00    +0.010 A 
ATOM     14  C   UNL     1       2.377   1.414  -0.013  0.00  0.00    +0.039 A 
ATOM     15  C   UNL     1       2.397   0.029  -0.021  0.00  0.00    +0.123 A 
ATOM     16  C   UNL     1       1.208  -0.679  -0.013  0.00  0.00    +0.039 A 
ATOM     17  C   UNL     1       0.002  -0.004   0.002  0.00  0.00    +0.010 A 
ATOM     18  F   UNL     1       3.577  -0.630  -0.035  0.00  0.00    -0.205 F 
ENDBRANCH  11  12
ENDBRANCH  10  11
ENDBRANCH   7  10
ENDBRANCH   1   4
BRANCH   1  19
ATOM     19  N   UNL     1      -7.715   4.078   2.204  0.00  0.00    +0.383 N 
ATOM     20  H   UNL     1      -7.549   3.434   2.986  0.00  0.00    -0.085 HD
ATOM     21  H   UNL     1      -7.745   3.548   1.325  0.00  0.00    -0.085 HD
BRANCH  19  22
ATOM     22  C   UNL     1      -9.005   4.764   2.403  0.00  0.00    -0.063 C 
BRANCH  22  23
ATOM     23  C   UNL     1     -10.123   3.722   2.463  0.00  0.00    +0.082 C 
BRANCH  23  24
ATOM     24  N   UNL     1     -11.409   4.396   2.661  0.00  0.00    -0.345 N 
ATOM     25  H   UNL     1     -11.444   5.362   2.732  0.00  0.00    +0.146 HD
BRANCH  24  26
ATOM     26  C   UNL     1     -12.585   3.646   2.748  0.00  0.00    +0.046 A 
ATOM     27  C   UNL     1     -12.537   2.261   2.647  0.00  0.00    +0.026 A 
ATOM     28  C   UNL     1     -13.700   1.523   2.733  0.00  0.00    +0.034 A 
ATOM     29  C   UNL     1     -14.914   2.160   2.920  0.00  0.00    +0.128 A 
ATOM     30  C   UNL     1     -14.966   3.538   3.021  0.00  0.00    +0.054 A 
ATOM     31  C   UNL     1     -13.805   4.283   2.941  0.00  0.00    +0.064 A 
ATOM     32 CL   UNL     1     -13.871   6.012   3.076  0.00  0.00    -0.082 Cl
BRANCH  29  33
ATOM     33  N   UNL     1     -16.159   1.364   3.012  0.00  0.00    +0.056 N 
ATOM     34  O   UNL     1     -16.114   0.150   2.924  0.00  0.00    -0.126 OA
ATOM     35  O   UNL     1     -17.228   1.924   3.177  0.00  0.00    -0.126 OA
ENDBRANCH  29  33
ENDBRANCH  24  26
ENDBRANCH  23  24
ENDBRANCH  22  23
ENDBRANCH  19  22
ENDBRANCH   1  19
TORSDOF 11
