REMARK  Name = ZINC62832358
REMARK  3 active torsions:
REMARK  status: ('A' for Active; 'I' for Inactive)
REMARK    1  A    between atoms: C_6  and  N_7
REMARK    2  A    between atoms: C_8  and  C_12
REMARK    3  A    between atoms: C_17  and  C_20
REMARK                            x       y       z     vdW  Elec       q    Type
REMARK                         _______ _______ _______ _____ _____    ______ ____
ROOT
ATOM      1  C   UNL     1      -0.071  -3.968  -2.061  0.00  0.00    +0.025 A 
ATOM      2  C   UNL     1       0.550  -4.742  -1.106  0.00  0.00    +0.028 A 
ATOM      3  C   UNL     1       1.714  -4.289  -0.493  0.00  0.00    +0.047 A 
ATOM      4  C   UNL     1       2.246  -3.041  -0.856  0.00  0.00    +0.014 A 
ATOM      5  C   UNL     1       1.612  -2.265  -1.822  0.00  0.00    +0.033 A 
ATOM      6  C   UNL     1       0.456  -2.730  -2.423  0.00  0.00    +0.025 A 
ATOM      7  C   UNL     1       3.458  -2.865  -0.035  0.00  0.00    +0.062 A 
ATOM      8  C   UNL     1       3.567  -3.982   0.740  0.00  0.00    +0.096 A 
ATOM      9  N   UNL     1       2.542  -4.826   0.475  0.00  0.00    -0.360 N 
ATOM     10  H   UNL     1       2.407  -5.685   0.903  0.00  0.00    +0.165 HD
ENDROOT
BRANCH   7  11
ATOM     11  C   UNL     1       4.369  -1.712  -0.049  0.00  0.00    +0.249 C 
ATOM     12  O   UNL     1       3.921  -0.584  -0.140  0.00  0.00    -0.270 OA
ATOM     13  N   UNL     1       5.700  -1.904   0.039  0.00  0.00    -0.297 N 
ATOM     14  C   UNL     1       6.615  -0.761   0.154  0.00  0.00    +0.109 C 
ATOM     15  C   UNL     1       7.677  -0.867  -0.945  0.00  0.00    +0.032 C 
ATOM     16  C   UNL     1       8.363  -2.232  -0.856  0.00  0.00    +0.078 C 
ATOM     17  C   UNL     1       7.329  -3.339  -1.075  0.00  0.00    +0.032 C 
ATOM     18  C   UNL     1       6.263  -3.261   0.028  0.00  0.00    +0.109 C 
BRANCH  16  19
ATOM     19  C   UNL     1       9.431  -2.326  -1.914  0.00  0.00    +0.214 C 
ATOM     20  O   UNL     1       9.626  -1.394  -2.665  0.00  0.00    -0.276 OA
ATOM     21  N   UNL     1      10.172  -3.447  -2.026  0.00  0.00    -0.329 N 
ATOM     22  H   UNL     1      10.016  -4.193  -1.426  0.00  0.00    +0.145 HD
ATOM     23  H   UNL     1      10.859  -3.508  -2.707  0.00  0.00    +0.145 HD
ENDBRANCH  16  19
ENDBRANCH   7  11
BRANCH   6  24
ATOM     24  N   UNL     1      -0.187  -1.956  -3.395  0.00  0.00    -0.358 N 
ATOM     25  H   UNL     1      -0.998  -2.281  -3.817  0.00  0.00    +0.142 HD
ATOM     26  H   UNL     1       0.179  -1.093  -3.648  0.00  0.00    +0.142 HD
ENDBRANCH   6  24
TORSDOF 3
