REMARK  Name = ZINC35745573
REMARK  16 active torsions:
REMARK  status: ('A' for Active; 'I' for Inactive)
REMARK    1  A    between atoms: C_1  and  C_2
REMARK    2  A    between atoms: C_5  and  C_9
REMARK    3  A    between atoms: C_7  and  C_8
REMARK    4  A    between atoms: C_18  and  C_20
REMARK    5  A    between atoms: C_20  and  N_21
REMARK    6  A    between atoms: N_21  and  C_22
REMARK    7  A    between atoms: N_21  and  C_31
REMARK    8  A    between atoms: C_22  and  C_23
REMARK    9  A    between atoms: C_23  and  C_25
REMARK   10  A    between atoms: C_23  and  O_30
REMARK   11  A    between atoms: C_25  and  O_26
REMARK   12  A    between atoms: O_26  and  C_27
REMARK   13  A    between atoms: C_27  and  C_28
REMARK   14  A    between atoms: C_27  and  C_29
REMARK   15  A    between atoms: C_31  and  C_32
REMARK   16  A    between atoms: C_31  and  C_33
REMARK                            x       y       z     vdW  Elec       q    Type
REMARK                         _______ _______ _______ _____ _____    ______ ____
ROOT
ATOM      1  C   UNL     1      -3.314  -4.509   1.751  0.00  0.00    +0.004 A 
ATOM      2  C   UNL     1      -2.596  -5.093   2.740  0.00  0.00    +0.056 A 
ATOM      3  S   UNL     1      -2.173  -6.684   2.058  0.00  0.00    -0.076 S 
ATOM      4  C   UNL     1      -2.962  -6.530   0.476  0.00  0.00    +0.116 A 
ATOM      5  C   UNL     1      -3.540  -5.250   0.516  0.00  0.00    +0.080 A 
ATOM      6  C   UNL     1      -4.260  -4.858  -0.657  0.00  0.00    +0.260 A 
ATOM      7  O   UNL     1      -4.793  -3.764  -0.719  0.00  0.00    -0.267 OA
ATOM      8  N   UNL     1      -4.339  -5.717  -1.691  0.00  0.00    -0.312 N 
ATOM      9  H   UNL     1      -4.826  -5.456  -2.488  0.00  0.00    +0.170 HD
ATOM     10  C   UNL     1      -3.751  -6.939  -1.639  0.00  0.00    +0.094 A 
ATOM     11  N   UNL     1      -3.079  -7.321  -0.587  0.00  0.00    -0.229 NA
ENDROOT
BRANCH   1  16
ATOM     12  C   UNL     1      -5.454   0.795   2.419  0.00  0.00    +0.044 C 
ATOM     13  C   UNL     1      -4.894  -0.593   2.244  0.00  0.00    -0.048 A 
ATOM     14  C   UNL     1      -4.176  -0.908   1.105  0.00  0.00    +0.004 A 
ATOM     15  C   UNL     1      -3.660  -2.177   0.939  0.00  0.00    +0.009 A 
ATOM     16  C   UNL     1      -3.865  -3.143   1.923  0.00  0.00    -0.016 A 
ATOM     17  C   UNL     1      -4.589  -2.820   3.070  0.00  0.00    +0.012 A 
ATOM     18  C   UNL     1      -5.095  -1.546   3.227  0.00  0.00    -0.047 A 
ATOM     19  C   UNL     1      -5.872  -1.193   4.469  0.00  0.00    +0.044 C 
ENDBRANCH   1  16
BRANCH  10  20
ATOM     20  C   UNL     1      -3.866  -7.867  -2.821  0.00  0.00    -0.003 C 
BRANCH  20  21
ATOM     21  N   UNL     1      -3.000  -9.035  -2.613  0.00  0.00    +0.388 N 
ATOM     22  H   UNL     1      -2.999  -9.282  -1.635  0.00  0.00    -0.081 HD
BRANCH  21  23
ATOM     23  C   UNL     1      -1.632  -8.713  -3.039  0.00  0.00    -0.074 C 
ATOM     24  C   UNL     1      -1.637  -8.321  -4.518  0.00  0.00    -0.014 C 
ATOM     25  C   UNL     1      -1.100  -7.546  -2.204  0.00  0.00    -0.014 C 
ENDBRANCH  21  23
BRANCH  21  26
ATOM     26  C   UNL     1      -3.505 -10.166  -3.403  0.00  0.00    -0.044 C 
BRANCH  26  27
ATOM     27  C   UNL     1      -2.694 -11.420  -3.075  0.00  0.00    +0.124 C 
BRANCH  27  28
ATOM     28  O   UNL     1      -2.849 -11.739  -1.690  0.00  0.00    -0.391 OA
ATOM     29  H   UNL     1      -3.763 -11.913  -1.427  0.00  0.00    +0.210 HD
ENDBRANCH  27  28
BRANCH  27  30
ATOM     30  C   UNL     1      -3.194 -12.589  -3.926  0.00  0.00    +0.189 C 
BRANCH  30  31
ATOM     31  O   UNL     1      -2.362 -13.730  -3.705  0.00  0.00    -0.375 OA
BRANCH  31  32
ATOM     32  C   UNL     1      -2.745 -14.883  -4.457  0.00  0.00    +0.112 C 
ATOM     33  C   UNL     1      -2.022 -14.876  -5.805  0.00  0.00    +0.037 C 
ATOM     34  C   UNL     1      -2.367 -16.146  -3.682  0.00  0.00    +0.037 C 
ENDBRANCH  31  32
ENDBRANCH  30  31
ENDBRANCH  27  30
ENDBRANCH  26  27
ENDBRANCH  21  26
ENDBRANCH  20  21
ENDBRANCH  10  20
TORSDOF 10
