REMARK  Name = ZINC12498306
REMARK  12 active torsions:
REMARK  status: ('A' for Active; 'I' for Inactive)
REMARK    1  A    between atoms: C_1  and  C_2
REMARK    2  A    between atoms: C_7  and  C_8
REMARK    3  A    between atoms: N_16  and  C_19
REMARK    4  A    between atoms: C_23  and  C_25
REMARK    5  A    between atoms: C_25  and  C_27
REMARK    6  A    between atoms: C_28  and  C_29
REMARK    7  A    between atoms: C_28  and  C_33
REMARK    8  A    between atoms: C_29  and  C_30
REMARK    9  A    between atoms: C_30  and  S_31
REMARK   10  A    between atoms: S_31  and  C_32
REMARK   11  A    between atoms: C_33  and  O_35
REMARK   12  A    between atoms: O_35  and  C_36
REMARK                            x       y       z     vdW  Elec       q    Type
REMARK                         _______ _______ _______ _____ _____    ______ ____
ROOT
ATOM      1  C   UNL     1       2.202   7.139  -0.241  0.00  0.00    -0.026 C 
ATOM      2  C   UNL     1       1.862   5.712  -0.364  0.00  0.00    +0.077 C 
ATOM      3  C   UNL     1       0.478   5.639   0.395  0.00  0.00    +0.086 C 
ATOM      4  C   UNL     1       0.136   4.239  -0.050  0.00  0.00    +0.229 C 
ATOM      5  O   UNL     1      -0.965   3.800  -0.309  0.00  0.00    -0.275 OA
ATOM      6  N   UNL     1       1.323   3.565  -0.097  0.00  0.00    -0.210 N 
ATOM      7  C   UNL     1       2.409   4.405  -0.103  0.00  0.00    +0.229 C 
ATOM      8  O   UNL     1       3.572   4.111   0.074  0.00  0.00    -0.275 OA
ATOM      9  C   UNL     1      -0.191   6.832  -0.291  0.00  0.00    +0.044 C 
ATOM     10  N   UNL     1       0.908   7.802  -0.540  0.00  0.00    +0.395 N 
ATOM     11  H   UNL     1       0.891   8.099  -1.523  0.00  0.00    -0.083 HD
ATOM     12  H   UNL     1       0.791   8.621   0.068  0.00  0.00    -0.083 HD
ENDROOT
BRANCH   1  19
ATOM     13  C   UNL     1       4.976   6.545   0.306  0.00  0.00    +0.044 C 
ATOM     14  C   UNL     1       4.593   7.242  -0.974  0.00  0.00    -0.049 A 
ATOM     15  C   UNL     1       5.569   7.597  -1.887  0.00  0.00    +0.003 A 
ATOM     16  C   UNL     1       5.218   8.236  -3.061  0.00  0.00    +0.000 A 
ATOM     17  C   UNL     1       3.890   8.520  -3.323  0.00  0.00    +0.000 A 
ATOM     18  C   UNL     1       2.914   8.161  -2.413  0.00  0.00    +0.002 A 
ATOM     19  C   UNL     1       3.266   7.526  -1.236  0.00  0.00    -0.058 A 
ENDBRANCH   1  19
BRANCH   6  20
ATOM     20  C   UNL     1       1.421   2.167  -0.140  0.00  0.00    +0.045 A 
ATOM     21  C   UNL     1       0.270   1.389  -0.132  0.00  0.00    +0.024 A 
ATOM     22  C   UNL     1       0.360   0.010  -0.174  0.00  0.00    +0.003 A 
ATOM     23  C   UNL     1       1.594  -0.605  -0.226  0.00  0.00    +0.011 A 
ATOM     24  C   UNL     1       2.759   0.169  -0.236  0.00  0.00    +0.019 A 
ATOM     25  C   UNL     1       2.666   1.563  -0.192  0.00  0.00    +0.035 A 
BRANCH  24  26
ATOM     26  C   UNL     1       4.077  -0.483  -0.291  0.00  0.00    +0.160 C 
ATOM     27  O   UNL     1       5.086   0.190  -0.299  0.00  0.00    -0.292 OA
ATOM     28  C   UNL     1       4.174  -1.986  -0.337  0.00  0.00    +0.091 C 
ENDBRANCH  24  26
ENDBRANCH   6  20
BRANCH   9  29
ATOM     29  C   UNL     1      -0.816   6.402  -1.593  0.00  0.00    +0.297 C 
ATOM     30  O   UNL     1      -1.979   6.075  -1.626  0.00  0.00    -0.252 OA
BRANCH  29  31
ATOM     31  O   UNL     1      -0.081   6.382  -2.716  0.00  0.00    -0.469 OA
ATOM     32  C   UNL     1      -0.749   5.958  -3.933  0.00  0.00    +0.280 C 
ENDBRANCH  29  31
ENDBRANCH   9  29
BRANCH   9  33
ATOM     33  C   UNL     1      -1.250   7.445   0.627  0.00  0.00    +0.010 C 
BRANCH  33  34
ATOM     34  C   UNL     1      -1.906   8.636  -0.075  0.00  0.00    +0.068 C 
BRANCH  34  35
ATOM     35  S   UNL     1      -3.162   9.363   1.014  0.00  0.00    -0.164 S 
ATOM     36  C   UNL     1      -3.836  10.741   0.047  0.00  0.00    +0.084 C 
ENDBRANCH  34  35
ENDBRANCH  33  34
ENDBRANCH   9  33
TORSDOF 8
