REMARK  Name = ZINC05650111
REMARK  2 active torsions:
REMARK  status: ('A' for Active; 'I' for Inactive)
REMARK    1  A    between atoms: C_4  and  C_7
REMARK    2  A    between atoms: C_19  and  C_22
REMARK                            x       y       z     vdW  Elec       q    Type
REMARK                         _______ _______ _______ _____ _____    ______ ____
ROOT
ATOM      1  C   UNL     1       3.502  -0.993   0.029  0.00  0.00    +0.082 C 
ATOM      2  C   UNL     1       3.653  -1.777  -1.267  0.00  0.00    +0.055 C 
ATOM      3  C   UNL     1       4.906  -2.644  -1.272  0.00  0.00    -0.022 A 
ATOM      4  C   UNL     1       5.476  -3.069  -2.552  0.00  0.00    +0.049 A 
ATOM      5  C   UNL     1       4.970  -2.742  -3.855  0.00  0.00    +0.129 A 
ATOM      6  N   UNL     1       5.640  -3.232  -4.893  0.00  0.00    -0.208 NA
ATOM      7  C   UNL     1       6.727  -3.989  -4.796  0.00  0.00    +0.180 A 
ATOM      8  N   UNL     1       7.266  -4.341  -3.598  0.00  0.00    -0.328 N 
ATOM      9  C   UNL     1       6.625  -3.870  -2.494  0.00  0.00    +0.091 A 
ATOM     10  S   UNL     1       6.919  -4.040  -0.766  0.00  0.00    -0.074 S 
ATOM     11  C   UNL     1       5.551  -3.065  -0.169  0.00  0.00    +0.013 A 
ATOM     12  C   UNL     1       5.260  -2.811   1.284  0.00  0.00    +0.114 C 
ATOM     13  S   UNL     1       3.569  -2.155   1.429  0.00  0.00    -0.139 S 
ATOM     14  S   UNL     1       7.476  -4.544  -6.231  0.00  0.00    -0.011 S 
ATOM     15  N   UNL     1       3.851  -1.962  -4.020  0.00  0.00    -0.343 N 
ATOM     16  H   UNL     1       3.761  -1.403  -4.808  0.00  0.00    +0.144 HD
ATOM     17  H   UNL     1       3.150  -1.971  -3.350  0.00  0.00    +0.144 HD
ATOM     18  H   UNL     1       8.059  -4.895  -3.535  0.00  0.00    +0.168 HD
ENDROOT
BRANCH   1  22
ATOM     19  C   UNL     1      -0.248   1.051   0.038  0.00  0.00    +0.000 A 
ATOM     20  C   UNL     1       0.929   1.768   0.139  0.00  0.00    +0.000 A 
ATOM     21  C   UNL     1       2.143   1.106   0.136  0.00  0.00    +0.005 A 
ATOM     22  C   UNL     1       2.179  -0.272   0.033  0.00  0.00    -0.034 A 
ATOM     23  C   UNL     1       1.001  -0.988  -0.067  0.00  0.00    +0.005 A 
ATOM     24  C   UNL     1      -0.213  -0.327  -0.066  0.00  0.00    +0.000 A 
ENDBRANCH   1  22
BRANCH  12  25
ATOM     25  C   UNL     1       5.375  -4.099   2.058  0.00  0.00    -0.030 A 
ATOM     26  C   UNL     1       4.565  -5.172   1.737  0.00  0.00    +0.005 A 
ATOM     27  C   UNL     1       4.670  -6.354   2.447  0.00  0.00    +0.000 A 
ATOM     28  C   UNL     1       5.585  -6.462   3.477  0.00  0.00    +0.000 A 
ATOM     29  C   UNL     1       6.395  -5.389   3.798  0.00  0.00    +0.000 A 
ATOM     30  C   UNL     1       6.293  -4.209   3.085  0.00  0.00    +0.005 A 
ENDBRANCH  12  25
TORSDOF 2
