REMARK  Name = ZINC08741164
REMARK  10 active torsions:
REMARK  status: ('A' for Active; 'I' for Inactive)
REMARK    1  A    between atoms: C_1  and  C_2
REMARK    2  A    between atoms: C_11  and  N_31
REMARK    3  A    between atoms: C_13  and  S_15
REMARK    4  A    between atoms: S_15  and  C_16
REMARK    5  A    between atoms: C_16  and  C_17
REMARK    6  A    between atoms: N_19  and  C_20
REMARK    7  A    between atoms: C_20  and  C_22
REMARK    8  A    between atoms: C_20  and  C_23
REMARK    9  A    between atoms: C_23  and  C_24
REMARK   10  A    between atoms: C_24  and  C_25
REMARK                            x       y       z     vdW  Elec       q    Type
REMARK                         _______ _______ _______ _____ _____    ______ ____
ROOT
ATOM      1  C   UNL     1      15.555   4.760   6.533  0.00  0.00    +0.008 C 
ATOM      2  C   UNL     1      14.520   3.950   5.750  0.00  0.00    -0.009 C 
ATOM      3  C   UNL     1      14.256   4.622   4.399  0.00  0.00    +0.008 C 
ATOM      4  C   UNL     1      13.054   3.966   3.719  0.00  0.00    +0.037 C 
ATOM      5  C   UNL     1      13.277   2.457   3.672  0.00  0.00    -0.025 A 
ATOM      6  C   UNL     1      14.179   1.868   4.482  0.00  0.00    -0.004 A 
ATOM      7  S   UNL     1      14.100   0.142   4.086  0.00  0.00    -0.073 S 
ATOM      8  C   UNL     1      12.851   0.213   2.828  0.00  0.00    +0.115 A 
ATOM      9  C   UNL     1      12.536   1.585   2.757  0.00  0.00    +0.051 A 
ATOM     10  C   UNL     1      11.539   1.937   1.806  0.00  0.00    +0.129 A 
ATOM     11  N   UNL     1      10.989   0.990   1.065  0.00  0.00    -0.207 NA
ATOM     12  C   UNL     1      11.330  -0.288   1.187  0.00  0.00    +0.191 A 
ATOM     13  N   UNL     1      12.253  -0.674   2.057  0.00  0.00    -0.214 NA
ATOM     14  C   UNL     1      15.056   2.534   5.499  0.00  0.00    +0.046 C 
ENDROOT
BRANCH  10  15
ATOM     15  N   UNL     1      11.153   3.257   1.653  0.00  0.00    -0.343 N 
ATOM     16  H   UNL     1      10.662   3.530   0.862  0.00  0.00    +0.144 HD
ATOM     17  H   UNL     1      11.373   3.909   2.337  0.00  0.00    +0.144 HD
ENDBRANCH  10  15
BRANCH  12  18
ATOM     18  S   UNL     1      10.545  -1.492   0.168  0.00  0.00    -0.077 S 
BRANCH  18  19
ATOM     19  C   UNL     1       9.428  -0.426  -0.776  0.00  0.00    +0.173 C 
BRANCH  19  20
ATOM     20  C   UNL     1       8.630  -1.264  -1.742  0.00  0.00    +0.224 C 
ATOM     21  O   UNL     1       8.800  -2.464  -1.787  0.00  0.00    -0.275 OA
ATOM     22  N   UNL     1       7.727  -0.680  -2.554  0.00  0.00    -0.312 N 
ATOM     23  H   UNL     1       7.591   0.280  -2.518  0.00  0.00    +0.149 HD
BRANCH  22  24
ATOM     24  C   UNL     1       6.952  -1.494  -3.493  0.00  0.00    +0.070 C 
ATOM     25  C   UNL     1       7.758  -1.699  -4.777  0.00  0.00    +0.028 C 
BRANCH  24  26
ATOM     26  C   UNL     1       5.639  -0.781  -3.823  0.00  0.00    +0.026 C 
BRANCH  26  27
ATOM     27  C   UNL     1       4.778  -0.687  -2.562  0.00  0.00    +0.037 C 
BRANCH  27  28
ATOM     28  C   UNL     1       3.485   0.015  -2.887  0.00  0.00    -0.047 A 
ATOM     29  C   UNL     1       2.387  -0.715  -3.302  0.00  0.00    +0.003 A 
ATOM     30  C   UNL     1       1.201  -0.070  -3.600  0.00  0.00    +0.000 A 
ATOM     31  C   UNL     1       1.113   1.304  -3.483  0.00  0.00    +0.000 A 
ATOM     32  C   UNL     1       2.211   2.034  -3.068  0.00  0.00    +0.000 A 
ATOM     33  C   UNL     1       3.397   1.390  -2.769  0.00  0.00    +0.003 A 
ENDBRANCH  27  28
ENDBRANCH  26  27
ENDBRANCH  24  26
ENDBRANCH  22  24
ENDBRANCH  19  20
ENDBRANCH  18  19
ENDBRANCH  12  18
TORSDOF 8
