REMARK  Name = ZINC18063691
REMARK  6 active torsions:
REMARK  status: ('A' for Active; 'I' for Inactive)
REMARK    1  A    between atoms: C_1  and  C_2
REMARK    2  A    between atoms: C_6  and  C_8
REMARK    3  A    between atoms: C_8  and  C_9
REMARK    4  A    between atoms: C_10  and  C_30
REMARK    5  A    between atoms: C_24  and  C_29
REMARK    6  A    between atoms: C_26  and  C_28
REMARK                            x       y       z     vdW  Elec       q    Type
REMARK                         _______ _______ _______ _____ _____    ______ ____
ROOT
ATOM      1  C   UNL     1       1.414  -3.105   3.159  0.00  0.00    +0.023 A 
ATOM      2  C   UNL     1       1.947  -2.124   3.911  0.00  0.00    +0.022 A 
ATOM      3  N   UNL     1       3.268  -2.087   4.225  0.00  0.00    -0.343 N 
ATOM      4  H   UNL     1       3.602  -1.358   4.771  0.00  0.00    +0.167 HD
ATOM      5  C   UNL     1       4.136  -3.040   3.799  0.00  0.00    +0.140 A 
ATOM      6  C   UNL     1       3.667  -4.096   3.012  0.00  0.00    +0.130 A 
ATOM      7  C   UNL     1       2.247  -4.148   2.673  0.00  0.00    +0.200 A 
ATOM      8  O   UNL     1       1.793  -5.054   1.993  0.00  0.00    -0.287 OA
ATOM      9  C   UNL     1       4.818  -4.949   2.713  0.00  0.00    +0.287 A 
ATOM     10  O   UNL     1       4.812  -5.969   2.051  0.00  0.00    -0.265 OA
ATOM     11  N   UNL     1       5.887  -4.385   3.314  0.00  0.00    -0.182 N 
ATOM     12  N   UNL     1       5.478  -3.223   3.976  0.00  0.00    -0.272 N 
ATOM     13  H   UNL     1       6.059  -2.636   4.484  0.00  0.00    +0.189 HD
ATOM     14  C   UNL     1       7.184  -4.878   3.280  0.00  0.00    +0.253 A 
ATOM     15  N   UNL     1       7.434  -5.992   2.608  0.00  0.00    -0.216 NA
ATOM     16  C   UNL     1       8.659  -6.489   2.555  0.00  0.00    +0.044 A 
ATOM     17  C   UNL     1       9.685  -5.830   3.213  0.00  0.00    +0.046 A 
ATOM     18  C   UNL     1       9.388  -4.668   3.907  0.00  0.00    +0.044 A 
ATOM     19  N   UNL     1       8.142  -4.222   3.915  0.00  0.00    -0.216 NA
ATOM     20  C   UNL     1      10.471  -3.917   4.638  0.00  0.00    +0.066 C 
ATOM     21  C   UNL     1       8.935  -7.757   1.788  0.00  0.00    +0.066 C 
ATOM     22  C   UNL     1       1.047  -1.029   4.421  0.00  0.00    +0.064 C 
ENDROOT
BRANCH   1  23
ATOM     23  C   UNL     1      -0.059  -3.100   2.839  0.00  0.00    +0.076 C 
BRANCH  23  29
ATOM     24  C   UNL     1      -1.671  -7.573   4.403  0.00  0.00    +0.044 C 
ATOM     25  C   UNL     1      -1.567  -6.082   4.597  0.00  0.00    -0.050 A 
ATOM     26  C   UNL     1      -2.147  -5.486   5.701  0.00  0.00    +0.003 A 
ATOM     27  C   UNL     1      -2.052  -4.119   5.879  0.00  0.00    +0.001 A 
ATOM     28  C   UNL     1      -1.376  -3.347   4.952  0.00  0.00    +0.004 A 
ATOM     29  C   UNL     1      -0.795  -3.942   3.849  0.00  0.00    -0.043 A 
ATOM     30  C   UNL     1      -0.887  -5.310   3.673  0.00  0.00    +0.007 A 
ENDBRANCH  23  29
ENDBRANCH   1  23
TORSDOF 2
