REMARK  Name = ZINC03406701
REMARK  8 active torsions:
REMARK  status: ('A' for Active; 'I' for Inactive)
REMARK    1  A    between atoms: C_1  and  N_2
REMARK    2  A    between atoms: N_2  and  C_3
REMARK    3  A    between atoms: C_4  and  N_19
REMARK    4  A    between atoms: N_5  and  C_12
REMARK    5  A    between atoms: C_12  and  C_13
REMARK    6  A    between atoms: C_20  and  C_22
REMARK    7  A    between atoms: C_22  and  S_23
REMARK    8  A    between atoms: S_23  and  C_24
REMARK                            x       y       z     vdW  Elec       q    Type
REMARK                         _______ _______ _______ _____ _____    ______ ____
ROOT
ATOM      1  C   UNL     1       1.030   3.094   0.010  0.00  0.00    +0.139 A 
ATOM      2  C   UNL     1       0.261   2.984  -1.130  0.00  0.00    +0.128 A 
ATOM      3  N   UNL     1      -0.901   2.250  -1.088  0.00  0.00    -0.276 N 
ATOM      4  C   UNL     1      -1.282   1.642   0.050  0.00  0.00    +0.331 A 
ATOM      5  O   UNL     1      -2.311   0.994   0.065  0.00  0.00    -0.246 OA
ATOM      6  N   UNL     1      -0.548   1.742   1.172  0.00  0.00    -0.273 N 
ATOM      7  H   UNL     1      -0.857   1.287   2.007  0.00  0.00    +0.173 HD
ATOM      8  C   UNL     1       0.599   2.449   1.185  0.00  0.00    +0.277 A 
ATOM      9  O   UNL     1       1.259   2.530   2.207  0.00  0.00    -0.266 OA
ENDROOT
BRANCH   1  11
ATOM     10  C   UNL     1       2.186   5.290  -0.200  0.00  0.00    +0.138 C 
ATOM     11  N   UNL     1       2.228   3.840  -0.001  0.00  0.00    -0.267 N 
ATOM     12  C   UNL     1       3.412   3.216   0.172  0.00  0.00    +0.230 C 
ATOM     13  O   UNL     1       3.455   2.006   0.249  0.00  0.00    -0.274 OA
BRANCH  12  14
ATOM     14  C   UNL     1       4.681   4.023   0.272  0.00  0.00    +0.173 C 
BRANCH  14  15
ATOM     15  S   UNL     1       6.092   2.906   0.500  0.00  0.00    -0.076 S 
BRANCH  15  16
ATOM     16  C   UNL     1       7.480   3.987   0.597  0.00  0.00    +0.197 A 
ATOM     17  N   UNL     1       7.438   5.291   0.509  0.00  0.00    -0.121 NA
ATOM     18  N   UNL     1       8.747   5.776   0.637  0.00  0.00    -0.121 NA
ATOM     19  C   UNL     1       9.531   4.752   0.788  0.00  0.00    +0.202 A 
ATOM     20  N   UNL     1       8.798   3.595   0.772  0.00  0.00    -0.264 N 
ATOM     21  C   UNL     1       9.481   2.378   0.922  0.00  0.00    +0.065 A 
ATOM     22  C   UNL     1       8.910   1.095   0.932  0.00  0.00    +0.027 A 
ATOM     23  C   UNL     1       9.695  -0.023   1.088  0.00  0.00    +0.002 A 
ATOM     24  C   UNL     1      11.068   0.079   1.241  0.00  0.00    +0.001 A 
ATOM     25  C   UNL     1      11.656   1.331   1.235  0.00  0.00    +0.017 A 
ATOM     26  C   UNL     1      10.869   2.449   1.078  0.00  0.00    +0.040 A 
ATOM     27  S   UNL     1      11.203   4.192   1.014  0.00  0.00    -0.048 S 
ENDBRANCH  15  16
ENDBRANCH  14  15
ENDBRANCH  12  14
ENDBRANCH   1  11
BRANCH   2  28
ATOM     28  N   UNL     1       0.652   3.602  -2.294  0.00  0.00    -0.343 N 
ATOM     29  H   UNL     1       1.453   4.149  -2.308  0.00  0.00    +0.144 HD
ATOM     30  H   UNL     1       0.127   3.490  -3.102  0.00  0.00    +0.144 HD
ENDBRANCH   2  28
BRANCH   3  31
ATOM     31  C   UNL     1      -1.728   2.125  -2.292  0.00  0.00    +0.163 C 
BRANCH  31  32
ATOM     32  C   UNL     1      -1.289   0.918  -3.079  0.00  0.00    -0.028 A 
ATOM     33  C   UNL     1      -0.312   1.042  -4.049  0.00  0.00    +0.005 A 
ATOM     34  C   UNL     1       0.094  -0.066  -4.768  0.00  0.00    +0.000 A 
ATOM     35  C   UNL     1      -0.484  -1.298  -4.524  0.00  0.00    +0.000 A 
ATOM     36  C   UNL     1      -1.465  -1.422  -3.557  0.00  0.00    +0.000 A 
ATOM     37  C   UNL     1      -1.867  -0.314  -2.835  0.00  0.00    +0.005 A 
ENDBRANCH  31  32
ENDBRANCH   3  31
TORSDOF 7
