REMARK  Name = ZINC39634797
REMARK  14 active torsions:
REMARK  status: ('A' for Active; 'I' for Inactive)
REMARK    1  A    between atoms: C_1  and  C_2
REMARK    2  A    between atoms: C_2  and  C_3
REMARK    3  A    between atoms: C_2  and  N_4
REMARK    4  A    between atoms: N_4  and  C_5
REMARK    5  A    between atoms: N_4  and  C_32
REMARK    6  A    between atoms: C_5  and  C_6
REMARK    7  A    between atoms: C_6  and  N_7
REMARK    8  A    between atoms: C_8  and  C_10
REMARK    9  A    between atoms: C_21  and  C_23
REMARK   10  A    between atoms: C_27  and  N_29
REMARK   11  A    between atoms: N_29  and  C_30
REMARK   12  A    between atoms: N_29  and  C_31
REMARK   13  A    between atoms: C_32  and  C_33
REMARK   14  A    between atoms: C_32  and  C_34
REMARK                            x       y       z     vdW  Elec       q    Type
REMARK                         _______ _______ _______ _____ _____    ______ ____
ROOT
ATOM      1  C   UNL     1      -4.386   1.018  -2.949  0.00  0.00    +0.100 C 
ATOM      2  C   UNL     1      -3.604   1.911  -3.938  0.00  0.00    +0.121 C 
ATOM      3  N   UNL     1      -4.633   2.791  -4.542  0.00  0.00    -0.296 N 
ATOM      4  C   UNL     1      -5.536   3.129  -3.416  0.00  0.00    +0.115 C 
ATOM      5  C   UNL     1      -5.653   1.821  -2.608  0.00  0.00    -0.004 C 
ATOM      6  C   UNL     1      -5.699   2.127  -1.114  0.00  0.00    -0.010 C 
ATOM      7  C   UNL     1      -6.996   2.874  -0.791  0.00  0.00    -0.082 C 
ATOM      8  N   UNL     1      -8.147   2.050  -1.178  0.00  0.00    +0.379 N 
ATOM      9  C   UNL     1      -8.146   1.839  -2.631  0.00  0.00    -0.082 C 
ATOM     10  C   UNL     1      -6.898   1.048  -3.032  0.00  0.00    -0.010 C 
ATOM     11  C   UNL     1      -4.726   3.192  -5.825  0.00  0.00    +0.247 C 
ATOM     12  O   UNL     1      -3.969   2.737  -6.661  0.00  0.00    -0.270 OA
ATOM     13  H   UNL     1      -8.094   1.158  -0.710  0.00  0.00    -0.086 HD
ATOM     14  H   UNL     1      -9.000   2.518  -0.908  0.00  0.00    -0.086 HD
ENDROOT
BRANCH  11  15
ATOM     15  C   UNL     1      -5.749   4.185  -6.217  0.00  0.00    +0.039 A 
ATOM     16  C   UNL     1      -6.335   5.005  -5.251  0.00  0.00    +0.013 A 
ATOM     17  C   UNL     1      -7.290   5.931  -5.618  0.00  0.00    +0.003 A 
ATOM     18  C   UNL     1      -7.669   6.051  -6.942  0.00  0.00    +0.023 A 
ATOM     19  C   UNL     1      -7.092   5.239  -7.912  0.00  0.00    +0.030 A 
ATOM     20  C   UNL     1      -6.128   4.310  -7.553  0.00  0.00    +0.036 A 
BRANCH  19  21
ATOM     21  N   UNL     1      -7.480   5.364  -9.248  0.00  0.00    -0.336 N 
ATOM     22  C   UNL     1      -8.495   6.350  -9.628  0.00  0.00    +0.129 C 
ATOM     23  C   UNL     1      -6.871   4.508 -10.270  0.00  0.00    +0.129 C 
ENDBRANCH  19  21
ENDBRANCH  11  15
BRANCH   1  25
ATOM     24  N   UNL     1      -3.728  -0.371  -1.011  0.00  0.00    -0.317 N 
ATOM     25  C   UNL     1      -3.570   0.773  -1.706  0.00  0.00    +0.218 C 
ATOM     26  O   UNL     1      -2.771   1.605  -1.331  0.00  0.00    -0.275 OA
ATOM     27  H   UNL     1      -4.367  -1.036  -1.311  0.00  0.00    +0.149 HD
BRANCH  24  28
ATOM     28  C   UNL     1      -2.936  -0.610   0.198  0.00  0.00    +0.085 C 
BRANCH  28  29
ATOM     29  C   UNL     1      -3.306  -1.971   0.790  0.00  0.00    -0.059 C 
BRANCH  29  30
ATOM     30  N   UNL     1      -2.563  -2.179   2.040  0.00  0.00    +0.384 N 
ATOM     31  H   UNL     1      -1.574  -2.092   1.862  0.00  0.00    -0.081 HD
BRANCH  30  33
ATOM     32  C   UNL     1      -2.427  -4.571   1.534  0.00  0.00    -0.014 C 
ATOM     33  C   UNL     1      -2.850  -3.522   2.563  0.00  0.00    -0.074 C 
ATOM     34  C   UNL     1      -2.074  -3.740   3.863  0.00  0.00    -0.014 C 
ENDBRANCH  30  33
BRANCH  30  35
ATOM     35  C   UNL     1      -2.973  -1.171   3.027  0.00  0.00    -0.074 C 
ATOM     36  C   UNL     1      -4.258  -1.629   3.720  0.00  0.00    -0.014 C 
ATOM     37  C   UNL     1      -1.866  -0.998   4.069  0.00  0.00    -0.014 C 
ENDBRANCH  30  35
ENDBRANCH  29  30
ENDBRANCH  28  29
ENDBRANCH  24  28
ENDBRANCH   1  25
TORSDOF 8
