REMARK  Name = ZINC08453119
REMARK  13 active torsions:
REMARK  status: ('A' for Active; 'I' for Inactive)
REMARK    1  A    between atoms: C_1  and  C_2
REMARK    2  A    between atoms: C_2  and  O_3
REMARK    3  A    between atoms: O_3  and  C_4
REMARK    4  A    between atoms: C_7  and  C_13
REMARK    5  A    between atoms: C_9  and  O_10
REMARK    6  A    between atoms: O_10  and  C_11
REMARK    7  A    between atoms: C_11  and  C_12
REMARK    8  A    between atoms: C_13  and  C_15
REMARK    9  A    between atoms: C_13  and  N_27
REMARK   10  A    between atoms: C_21  and  C_26
REMARK   11  A    between atoms: C_24  and  O_25
REMARK   12  A    between atoms: N_27  and  C_28
REMARK   13  A    between atoms: C_30  and  C_33
REMARK                            x       y       z     vdW  Elec       q    Type
REMARK                         _______ _______ _______ _____ _____    ______ ____
ROOT
ATOM      1  C   UNL     1       0.343   3.139   7.007  0.00  0.00    +0.136 C 
ENDROOT
BRANCH   1   2
ATOM      2  C   UNL     1      -0.544   2.958   5.802  0.00  0.00    +0.021 A 
ATOM      3  C   UNL     1      -1.924   3.071   5.943  0.00  0.00    +0.010 A 
ATOM      4  C   UNL     1      -2.753   2.912   4.874  0.00  0.00    +0.010 A 
ATOM      5  C   UNL     1      -2.211   2.632   3.609  0.00  0.00    +0.004 A 
ATOM      6  C   UNL     1      -3.035   2.462   2.480  0.00  0.00    +0.012 A 
ATOM      7  C   UNL     1      -2.439   2.197   1.280  0.00  0.00    +0.023 A 
ATOM      8  C   UNL     1      -1.051   2.091   1.202  0.00  0.00    +0.039 A 
ATOM      9  N   UNL     1      -0.288   2.250   2.256  0.00  0.00    -0.248 NA
ATOM     10  C   UNL     1      -0.808   2.516   3.457  0.00  0.00    +0.113 A 
ATOM     11  C   UNL     1       0.019   2.686   4.588  0.00  0.00    +0.148 A 
ATOM     12  C   UNL     1      -0.412   1.793  -0.129  0.00  0.00    +0.065 C 
BRANCH  11  13
ATOM     13  O   UNL     1       1.368   2.580   4.469  0.00  0.00    -0.504 OA
ATOM     14  H   UNL     1       1.812   3.414   4.265  0.00  0.00    +0.292 HD
ENDBRANCH  11  13
ENDBRANCH   1   2
BRANCH   1  18
ATOM     15  C   UNL     1       1.137  -0.674   8.773  0.00  0.00    +0.162 A 
ATOM     16  C   UNL     1      -0.110  -0.086   8.919  0.00  0.00    +0.050 A 
ATOM     17  C   UNL     1      -0.363   1.147   8.347  0.00  0.00    +0.009 A 
ATOM     18  C   UNL     1       0.625   1.795   7.629  0.00  0.00    -0.019 A 
ATOM     19  C   UNL     1       1.868   1.212   7.475  0.00  0.00    +0.055 A 
ATOM     20  C   UNL     1       2.131  -0.021   8.051  0.00  0.00    +0.162 A 
BRANCH  15  21
ATOM     21  O   UNL     1       1.387  -1.887   9.335  0.00  0.00    -0.489 OA
BRANCH  21  23
ATOM     22  C   UNL     1       0.786  -3.846  10.616  0.00  0.00    +0.048 C 
ATOM     23  C   UNL     1       0.320  -2.499  10.062  0.00  0.00    +0.226 C 
ENDBRANCH  21  23
ENDBRANCH  15  21
BRANCH  20  24
ATOM     24  O   UNL     1       3.355  -0.595   7.905  0.00  0.00    -0.489 OA
BRANCH  24  25
ATOM     25  C   UNL     1       4.326   0.133   7.150  0.00  0.00    +0.226 C 
ATOM     26  C   UNL     1       5.631  -0.665   7.095  0.00  0.00    +0.048 C 
ENDBRANCH  24  25
ENDBRANCH  20  24
ENDBRANCH   1  18
BRANCH   1  27
ATOM     27  N   UNL     1      -0.331   3.998   7.984  0.00  0.00    -0.320 N 
ATOM     28  H   UNL     1      -0.795   3.603   8.738  0.00  0.00    +0.148 HD
BRANCH  27  29
ATOM     29  C   UNL     1      -0.303   5.379   7.830  0.00  0.00    +0.097 A 
ATOM     30  C   UNL     1       0.451   5.944   6.808  0.00  0.00    +0.045 A 
ATOM     31  C   UNL     1       0.469   7.320   6.666  0.00  0.00    -0.046 A 
ATOM     32  C   UNL     1      -0.271   8.087   7.556  0.00  0.00    +0.021 A 
ATOM     33  C   UNL     1      -0.998   7.460   8.548  0.00  0.00    +0.084 A 
ATOM     34  C   UNL     1       1.274   7.972   5.571  0.00  0.00    +0.044 C 
ATOM     35  N   UNL     1      -1.043   6.111   8.713  0.00  0.00    -0.350 N 
ATOM     36  H   UNL     1      -1.600   5.671   9.455  0.00  0.00    +0.166 HD
ENDBRANCH  27  29
ENDBRANCH   1  27
TORSDOF 9
