REMARK  Name = ZINC17444906
REMARK  8 active torsions:
REMARK  status: ('A' for Active; 'I' for Inactive)
REMARK    1  A    between atoms: C_1  and  C_2
REMARK    2  A    between atoms: C_4  and  C_15
REMARK    3  A    between atoms: C_5  and  C_14
REMARK    4  A    between atoms: N_6  and  C_7
REMARK    5  A    between atoms: N_17  and  N_18
REMARK    6  A    between atoms: C_19  and  C_21
REMARK    7  A    between atoms: C_21  and  N_22
REMARK    8  A    between atoms: C_23  and  C_29
REMARK                            x       y       z     vdW  Elec       q    Type
REMARK                         _______ _______ _______ _____ _____    ______ ____
ROOT
ATOM      1  C   UNL     1      -3.571   1.808   0.029  0.00  0.00    +0.262 C 
ATOM      2  O   UNL     1      -3.587   3.024   0.035  0.00  0.00    -0.269 OA
ATOM      3  N   UNL     1      -2.394   1.150   0.020  0.00  0.00    -0.230 N 
ATOM      4  H   UNL     1      -2.381   0.180   0.014  0.00  0.00    +0.173 HD
ENDROOT
BRANCH   1   8
ATOM      5  C   UNL     1      -6.961  -2.006   0.025  0.00  0.00    +0.064 C 
ATOM      6  C   UNL     1      -6.316  -0.644   0.029  0.00  0.00    +0.022 A 
ATOM      7  C   UNL     1      -4.992  -0.405   0.024  0.00  0.00    +0.036 A 
ATOM      8  C   UNL     1      -4.835   1.054   0.031  0.00  0.00    +0.059 A 
ATOM      9  C   UNL     1      -6.101   1.573   0.045  0.00  0.00    +0.033 A 
ATOM     10  N   UNL     1      -6.980   0.550   0.039  0.00  0.00    -0.317 N 
ATOM     11  C   UNL     1      -6.453   3.038   0.062  0.00  0.00    +0.064 C 
BRANCH  10  12
ATOM     12  C   UNL     1      -8.376   0.692   0.046  0.00  0.00    +0.047 A 
ATOM     13  C   UNL     1      -9.020   1.278  -1.035  0.00  0.00    +0.029 A 
ATOM     14  C   UNL     1     -10.395   1.412  -1.028  0.00  0.00    +0.040 A 
ATOM     15  C   UNL     1     -11.129   0.971   0.061  0.00  0.00    +0.124 A 
ATOM     16  C   UNL     1     -10.487   0.392   1.143  0.00  0.00    +0.040 A 
ATOM     17  C   UNL     1      -9.113   0.252   1.137  0.00  0.00    +0.029 A 
ATOM     18  F   UNL     1     -12.473   1.108   0.068  0.00  0.00    -0.205 F 
ENDBRANCH  10  12
ENDBRANCH   1   8
BRANCH   3  19
ATOM     19  N   UNL     1      -1.191   1.867   0.018  0.00  0.00    -0.233 N 
ATOM     20  C   UNL     1      -0.014   1.209   0.009  0.00  0.00    +0.249 C 
ATOM     21  O   UNL     1       0.002  -0.004   0.002  0.00  0.00    -0.272 OA
ATOM     22  H   UNL     1      -1.204   2.837   0.023  0.00  0.00    +0.173 HD
BRANCH  20  23
ATOM     23  C   UNL     1       1.280   1.980   0.001  0.00  0.00    +0.223 C 
BRANCH  23  24
ATOM     24  N   UNL     1       2.407   1.043  -0.015  0.00  0.00    -0.294 N 
ATOM     25  C   UNL     1       3.018   0.531  -1.144  0.00  0.00    +0.170 A 
ATOM     26  N   UNL     1       3.980  -0.268  -0.767  0.00  0.00    -0.153 NA
ATOM     27  N   UNL     1       4.005  -0.285   0.634  0.00  0.00    -0.254 N 
ATOM     28  H   UNL     1       4.617  -0.792   1.190  0.00  0.00    +0.191 HD
ATOM     29  C   UNL     1       3.028   0.537   1.068  0.00  0.00    +0.176 A 
ATOM     30  S   UNL     1       2.643   0.873   2.702  0.00  0.00    -0.011 S 
BRANCH  25  31
ATOM     31  C   UNL     1       2.648   0.836  -2.537  0.00  0.00    +0.056 A 
ATOM     32  C   UNL     1       3.355   0.604  -3.689  0.00  0.00    +0.019 A 
ATOM     33  C   UNL     1       2.800   0.980  -4.892  0.00  0.00    +0.008 A 
ATOM     34  C   UNL     1       1.575   1.566  -4.901  0.00  0.00    +0.046 A 
ATOM     35  S   UNL     1       1.160   1.596  -3.165  0.00  0.00    -0.094 S 
ENDBRANCH  25  31
ENDBRANCH  23  24
ENDBRANCH  20  23
ENDBRANCH   3  19
TORSDOF 6
