REMARK  Name = ZINC32959003
REMARK  10 active torsions:
REMARK  status: ('A' for Active; 'I' for Inactive)
REMARK    1  A    between atoms: C_1  and  C_2
REMARK    2  A    between atoms: C_2  and  C_3
REMARK    3  A    between atoms: C_3  and  C_4
REMARK    4  A    between atoms: C_3  and  C_5
REMARK    5  A    between atoms: C_3  and  N_6
REMARK    6  A    between atoms: C_7  and  C_9
REMARK    7  A    between atoms: N_12  and  S_15
REMARK    8  A    between atoms: S_15  and  C_18
REMARK    9  A    between atoms: C_23  and  C_24
REMARK   10  A    between atoms: C_28  and  C_31
REMARK                            x       y       z     vdW  Elec       q    Type
REMARK                         _______ _______ _______ _____ _____    ______ ____
ROOT
ATOM      1  S   UNL     1       0.164  -1.550  -2.238  0.00  0.00    +0.061 S 
ATOM      2  O   UNL     1       1.150  -2.275  -2.961  0.00  0.00    -0.153 OA
ATOM      3  O   UNL     1      -0.797  -2.190  -1.410  0.00  0.00    -0.153 OA
ENDROOT
BRANCH   1   4
ATOM      4  C   UNL     1      -0.738  -0.608  -3.423  0.00  0.00    +0.112 A 
ATOM      5  C   UNL     1      -0.380  -0.656  -4.758  0.00  0.00    +0.076 A 
ATOM      6  C   UNL     1      -1.092   0.079  -5.690  0.00  0.00    +0.145 A 
ATOM      7  C   UNL     1      -2.160   0.874  -5.277  0.00  0.00    +0.076 A 
ATOM      8  C   UNL     1      -2.511   0.922  -3.938  0.00  0.00    +0.032 A 
ATOM      9  C   UNL     1      -1.798   0.179  -3.014  0.00  0.00    -0.022 A 
ATOM     10  C   UNL     1      -2.177   0.230  -1.556  0.00  0.00    +0.046 C 
ATOM     11  N   UNL     1      -2.869   1.619  -6.230  0.00  0.00    -0.280 N 
ATOM     12  C   UNL     1      -2.719   1.319  -7.539  0.00  0.00    +0.258 C 
ATOM     13  O   UNL     1      -3.297   1.971  -8.383  0.00  0.00    -0.271 OA
ATOM     14  C   UNL     1      -1.828   0.173  -7.946  0.00  0.00    +0.256 C 
ATOM     15  O   UNL     1      -0.758   0.039  -7.007  0.00  0.00    -0.478 OA
ATOM     16  C   UNL     1      -1.254   0.444  -9.338  0.00  0.00    +0.062 C 
ATOM     17  H   UNL     1      -3.534   2.433  -5.908  0.00  0.00    +0.155 HD
ENDBRANCH   1   4
BRANCH   1  21
ATOM     18  C   UNL     1       1.790   2.037  -0.262  0.00  0.00    +0.077 C 
ATOM     19  C   UNL     1       0.378   1.510   0.009  0.00  0.00    +0.030 C 
ATOM     20  C   UNL     1       0.398  -0.021  -0.005  0.00  0.00    +0.110 C 
ATOM     21  N   UNL     1       0.978  -0.476  -1.276  0.00  0.00    -0.177 NA
ATOM     22  C   UNL     1       2.294   0.041  -1.676  0.00  0.00    +0.110 C 
ATOM     23  C   UNL     1       2.253   1.572  -1.644  0.00  0.00    +0.030 C 
BRANCH  18  25
ATOM     24  N   UNL     1       2.921   4.230  -0.426  0.00  0.00    -0.310 N 
ATOM     25  C   UNL     1       1.781   3.543  -0.215  0.00  0.00    +0.217 C 
ATOM     26  O   UNL     1       0.748   4.137   0.011  0.00  0.00    -0.275 OA
ATOM     27  H   UNL     1       3.858   3.692  -0.632  0.00  0.00    +0.149 HD
BRANCH  24  28
ATOM     28  C   UNL     1       2.913   5.695  -0.381  0.00  0.00    +0.029 C 
ATOM     29  C   UNL     1       1.955   6.232  -1.446  0.00  0.00    +0.031 C 
ATOM     30  C   UNL     1       2.451   6.160   1.001  0.00  0.00    +0.031 C 
BRANCH  28  32
ATOM     31  C   UNL     1       4.315   7.750  -0.605  0.00  0.00    +0.006 C 
ATOM     32  C   UNL     1       4.324   6.221  -0.652  0.00  0.00    +0.022 C 
ENDBRANCH  28  32
ENDBRANCH  24  28
ENDBRANCH  18  25
ENDBRANCH   1  21
TORSDOF 5
