REMARK  Name = ZINC45145584
REMARK  6 active torsions:
REMARK  status: ('A' for Active; 'I' for Inactive)
REMARK    1  A    between atoms: C_1  and  C_2
REMARK    2  A    between atoms: C_2  and  C_4
REMARK    3  A    between atoms: C_2  and  N_8
REMARK    4  A    between atoms: N_5  and  O_6
REMARK    5  A    between atoms: N_8  and  C_9
REMARK    6  A    between atoms: N_12  and  C_13
REMARK                            x       y       z     vdW  Elec       q    Type
REMARK                         _______ _______ _______ _____ _____    ______ ____
ROOT
ATOM      1  N   UNL     1       0.657  -0.581  -1.201  0.00  0.00    -0.279 N 
ATOM      2  C   UNL     1       2.090  -0.413  -1.459  0.00  0.00    +0.134 C 
ATOM      3  C   UNL     1      -0.064  -1.443  -1.944  0.00  0.00    +0.303 C 
ATOM      4  O   UNL     1      -1.253  -1.583  -1.731  0.00  0.00    -0.253 OA
ATOM      5  N   UNL     1       0.532  -2.151  -2.925  0.00  0.00    -0.294 N 
ATOM      6  H   UNL     1       1.480  -2.039  -3.095  0.00  0.00    +0.151 HD
ENDROOT
BRANCH   5   7
ATOM      7  C   UNL     1      -0.253  -3.088  -3.732  0.00  0.00    +0.037 C 
ATOM      8  C   UNL     1      -0.864  -4.157  -2.824  0.00  0.00    +0.029 C 
ATOM      9  C   UNL     1      -1.683  -5.136  -3.667  0.00  0.00    -0.008 C 
ATOM     10  C   UNL     1      -0.773  -5.804  -4.700  0.00  0.00    +0.007 C 
ATOM     11  C   UNL     1      -0.162  -4.735  -5.609  0.00  0.00    -0.008 C 
ATOM     12  C   UNL     1       0.657  -3.756  -4.765  0.00  0.00    +0.029 C 
ATOM     13  C   UNL     1      -1.280  -3.977  -6.328  0.00  0.00    +0.007 C 
ATOM     14  C   UNL     1      -2.190  -3.309  -5.295  0.00  0.00    -0.008 C 
ATOM     15  C   UNL     1      -2.801  -4.378  -4.386  0.00  0.00    +0.007 C 
ATOM     16  C   UNL     1      -1.371  -2.330  -4.451  0.00  0.00    +0.029 C 
ENDBRANCH   5   7
BRANCH   1  18
ATOM     17  C   UNL     1       0.234   1.682  -0.377  0.00  0.00    +0.036 C 
ATOM     18  C   UNL     1       0.009   0.188  -0.136  0.00  0.00    +0.141 C 
BRANCH  18  19
ATOM     19  C   UNL     1       0.600  -0.200   1.195  0.00  0.00    +0.152 C 
ATOM     20  N   UNL     1       1.462  -1.160   1.263  0.00  0.00    -0.075 NA
ATOM     21  N   UNL     1       0.222   0.468   2.338  0.00  0.00    -0.342 N 
ATOM     22  H   UNL     1      -0.485   1.131   2.300  0.00  0.00    +0.144 HD
ATOM     23  H   UNL     1       0.662   0.276   3.180  0.00  0.00    +0.144 HD
BRANCH  20  24
ATOM     24  O   UNL     1       2.017  -1.525   2.514  0.00  0.00    -0.408 OA
ATOM     25  H   UNL     1       2.652  -2.253   2.465  0.00  0.00    +0.328 HD
ENDBRANCH  20  24
ENDBRANCH  18  19
ENDBRANCH   1  18
TORSDOF 4
