REMARK  Name = ZINC09635264
REMARK  10 active torsions:
REMARK  status: ('A' for Active; 'I' for Inactive)
REMARK    1  A    between atoms: C_1  and  C_2
REMARK    2  A    between atoms: C_2  and  C_3
REMARK    3  A    between atoms: C_3  and  C_4
REMARK    4  A    between atoms: C_4  and  N_5
REMARK    5  A    between atoms: C_9  and  S_28
REMARK    6  A    between atoms: C_13  and  S_14
REMARK    7  A    between atoms: S_14  and  C_15
REMARK    8  A    between atoms: C_15  and  C_16
REMARK    9  A    between atoms: C_16  and  C_18
REMARK   10  A    between atoms: S_28  and  N_31
REMARK                            x       y       z     vdW  Elec       q    Type
REMARK                         _______ _______ _______ _____ _____    ______ ____
ROOT
ATOM      1  N   UNL     1      -7.875   3.411   0.091  0.00  0.00    -0.319 N 
ATOM      2  C   UNL     1      -8.600   2.231   0.086  0.00  0.00    +0.070 A 
ATOM      3  C   UNL     1      -9.955   1.936   0.095  0.00  0.00    +0.030 A 
ATOM      4  C   UNL     1     -10.372   0.621   0.093  0.00  0.00    +0.030 A 
ATOM      5  C   UNL     1      -9.444  -0.410   0.080  0.00  0.00    +0.107 A 
ATOM      6  C   UNL     1      -8.094  -0.135   0.070  0.00  0.00    +0.058 A 
ATOM      7  C   UNL     1      -7.656   1.192   0.073  0.00  0.00    +0.092 A 
ATOM      8  N   UNL     1      -6.426   1.768   0.066  0.00  0.00    -0.222 NA
ATOM      9  C   UNL     1      -6.551   3.072   0.073  0.00  0.00    +0.170 A 
ENDROOT
BRANCH   5  10
ATOM     10  S   UNL     1      -9.995  -2.083   0.077  0.00  0.00    +0.056 S 
ATOM     11  O   UNL     1      -8.935  -2.861   0.615  0.00  0.00    -0.153 OA
ATOM     12  O   UNL     1     -11.301  -2.082   0.638  0.00  0.00    -0.153 OA
BRANCH  10  13
ATOM     13  N   UNL     1     -10.162  -2.541  -1.506  0.00  0.00    -0.204 NA
ATOM     14  H   UNL     1      -9.961  -1.911  -2.216  0.00  0.00    +0.144 HD
ATOM     15  H   UNL     1     -10.460  -3.438  -1.723  0.00  0.00    +0.144 HD
ENDBRANCH  10  13
ENDBRANCH   5  10
BRANCH   1  16
ATOM     16  C   UNL     1      -8.424   4.769   0.110  0.00  0.00    +0.124 C 
BRANCH  16  17
ATOM     17  C   UNL     1      -8.632   5.255  -1.326  0.00  0.00    +0.021 C 
BRANCH  17  19
ATOM     18  C   UNL     1      -9.414   7.158  -2.743  0.00  0.00    +0.004 C 
ATOM     19  C   UNL     1      -9.206   6.673  -1.307  0.00  0.00    -0.002 C 
ENDBRANCH  17  19
ENDBRANCH  16  17
ENDBRANCH   1  16
BRANCH   9  20
ATOM     20  S   UNL     1      -5.212   4.218   0.068  0.00  0.00    -0.080 S 
BRANCH  20  21
ATOM     21  C   UNL     1      -3.815   3.068   0.050  0.00  0.00    +0.157 C 
BRANCH  21  22
ATOM     22  C   UNL     1      -2.524   3.847   0.043  0.00  0.00    +0.173 C 
ATOM     23  O   UNL     1      -2.547   5.059   0.049  0.00  0.00    -0.291 OA
BRANCH  22  24
ATOM     24  C   UNL     1      -1.239   3.137   0.029  0.00  0.00    +0.019 A 
ATOM     25  C   UNL     1      -1.206   1.736   0.017  0.00  0.00    +0.013 A 
ATOM     26  C   UNL     1      -0.013   1.076   0.008  0.00  0.00    +0.024 A 
ATOM     27  C   UNL     1       1.191   1.786   0.000  0.00  0.00    +0.037 A 
ATOM     28  C   UNL     1       1.158   3.179   0.008  0.00  0.00    -0.017 A 
ATOM     29  C   UNL     1      -0.035   3.855   0.022  0.00  0.00    +0.017 A 
ATOM     30  C   UNL     1       2.599   3.637  -0.002  0.00  0.00    +0.133 C 
ATOM     31  C   UNL     1       3.392   2.347  -0.016  0.00  0.00    +0.222 C 
ATOM     32  O   UNL     1       4.601   2.245  -0.028  0.00  0.00    -0.275 OA
ATOM     33  N   UNL     1       2.506   1.337  -0.014  0.00  0.00    -0.285 N 
ATOM     34  H   UNL     1       2.757   0.400  -0.021  0.00  0.00    +0.155 HD
ENDBRANCH  22  24
ENDBRANCH  21  22
ENDBRANCH  20  21
ENDBRANCH   9  20
TORSDOF 9
