REMARK  Name = ZINC30976826
REMARK  5 active torsions:
REMARK  status: ('A' for Active; 'I' for Inactive)
REMARK    1  A    between atoms: C_4  and  O_7
REMARK    2  A    between atoms: O_7  and  C_8
REMARK    3  A    between atoms: C_8  and  C_9
REMARK    4  A    between atoms: C_15  and  C_16
REMARK    5  A    between atoms: C_19  and  C_21
REMARK                            x       y       z     vdW  Elec       q    Type
REMARK                         _______ _______ _______ _____ _____    ______ ____
ROOT
ATOM      1  C   UNL     1       5.065  -2.562  -2.824  0.00  0.00    +0.137 C 
ATOM      2  N   UNL     1       6.093  -1.918  -2.351  0.00  0.00    -0.166 NA
ATOM      3  N   UNL     1       7.148  -2.585  -1.766  0.00  0.00    -0.152 N 
ATOM      4  C   UNL     1       8.264  -1.983  -1.146  0.00  0.00    +0.153 C 
ATOM      5  N   UNL     1       8.252  -0.762  -0.675  0.00  0.00    -0.283 NA
ATOM      6  C   UNL     1       9.454  -2.873  -1.079  0.00  0.00    +0.084 C 
ATOM      7  C   UNL     1      10.745  -2.373  -1.163  0.00  0.00    +0.063 C 
ATOM      8  C   UNL     1       9.187  -4.320  -0.918  0.00  0.00    +0.273 C 
ATOM      9  O   UNL     1      10.017  -5.059  -0.411  0.00  0.00    -0.268 OA
ATOM     10  N   UNL     1       8.002  -4.800  -1.347  0.00  0.00    -0.152 NA
ATOM     11  C   UNL     1       7.088  -3.962  -1.767  0.00  0.00    +0.181 C 
ATOM     12  S   UNL     1       5.493  -4.263  -2.481  0.00  0.00    -0.035 S 
ATOM     13  H   UNL     1       7.449  -0.223  -0.744  0.00  0.00    +0.188 HD
ENDROOT
BRANCH   7  14
ATOM     14  C   UNL     1      11.796  -3.209  -1.572  0.00  0.00    +0.129 A 
ATOM     15  C   UNL     1      13.145  -2.885  -1.561  0.00  0.00    +0.050 A 
ATOM     16  C   UNL     1      13.831  -3.998  -2.045  0.00  0.00    +0.050 A 
ATOM     17  C   UNL     1      12.886  -4.961  -2.334  0.00  0.00    +0.137 A 
ATOM     18  O   UNL     1      11.670  -4.470  -2.038  0.00  0.00    -0.455 OA
BRANCH  17  19
ATOM     19  C   UNL     1      13.164  -6.306  -2.873  0.00  0.00    +0.037 A 
ATOM     20  C   UNL     1      13.989  -6.457  -3.991  0.00  0.00    +0.033 A 
ATOM     21  C   UNL     1      14.244  -7.719  -4.489  0.00  0.00    +0.042 A 
ATOM     22  C   UNL     1      13.685  -8.833  -3.884  0.00  0.00    +0.021 A 
ATOM     23  C   UNL     1      12.868  -8.690  -2.777  0.00  0.00    +0.022 A 
ATOM     24  C   UNL     1      12.608  -7.435  -2.264  0.00  0.00    +0.052 A 
ATOM     25 CL   UNL     1      11.588  -7.259  -0.870  0.00  0.00    -0.083 Cl
ATOM     26 CL   UNL     1      15.268  -7.910  -5.878  0.00  0.00    -0.084 Cl
ENDBRANCH  17  19
ENDBRANCH   7  14
BRANCH   1  27
ATOM     27  C   UNL     1       3.827  -2.013  -3.485  0.00  0.00    +0.293 C 
BRANCH  27  28
ATOM     28  O   UNL     1       3.913  -0.588  -3.549  0.00  0.00    -0.485 OA
BRANCH  28  32
ATOM     29  C   UNL     1       0.745   1.404  -5.285  0.00  0.00    +0.000 A 
ATOM     30  C   UNL     1       1.825   2.117  -4.797  0.00  0.00    +0.004 A 
ATOM     31  C   UNL     1       2.886   1.452  -4.215  0.00  0.00    +0.045 A 
ATOM     32  C   UNL     1       2.869   0.068  -4.120  0.00  0.00    +0.121 A 
ATOM     33  C   UNL     1       1.785  -0.645  -4.610  0.00  0.00    +0.045 A 
ATOM     34  C   UNL     1       0.725   0.024  -5.192  0.00  0.00    +0.004 A 
ENDBRANCH  28  32
ENDBRANCH  27  28
ENDBRANCH   1  27
TORSDOF 5
