REMARK  Name = ZINC67538427
REMARK  4 active torsions:
REMARK  status: ('A' for Active; 'I' for Inactive)
REMARK    1  A    between atoms: C_1  and  C_2
REMARK    2  A    between atoms: C_2  and  C_4
REMARK    3  A    between atoms: C_2  and  N_16
REMARK    4  A    between atoms: C_23  and  C_25
REMARK                            x       y       z     vdW  Elec       q    Type
REMARK                         _______ _______ _______ _____ _____    ______ ____
ROOT
ATOM      1  N   UNL     1      -1.372  -0.511   0.012  0.00  0.00    -0.293 N 
ATOM      2  C   UNL     1      -2.051  -0.643  -1.145  0.00  0.00    +0.306 C 
ATOM      3  O   UNL     1      -1.522  -0.341  -2.197  0.00  0.00    -0.252 OA
ATOM      4  N   UNL     1      -3.315  -1.109  -1.135  0.00  0.00    -0.247 N 
ATOM      5  C   UNL     1      -4.015  -1.245  -2.329  0.00  0.00    +0.189 A 
ATOM      6  N   UNL     1      -3.621  -0.980  -3.559  0.00  0.00    -0.126 NA
ATOM      7  N   UNL     1      -4.378  -1.157  -4.555  0.00  0.00    -0.144 NA
ATOM      8  C   UNL     1      -5.597  -1.619  -4.361  0.00  0.00    +0.107 A 
ATOM      9  S   UNL     1      -5.588  -1.798  -2.583  0.00  0.00    -0.035 S 
ATOM     10  H   UNL     1      -1.794  -0.752   0.852  0.00  0.00    +0.151 HD
ATOM     11  H   UNL     1      -3.737  -1.350  -0.295  0.00  0.00    +0.158 HD
ENDROOT
BRANCH   8  12
ATOM     12  C   UNL     1      -6.688  -1.916  -5.357  0.00  0.00    +0.047 C 
ATOM     13  C   UNL     1      -6.200  -2.976  -6.347  0.00  0.00    +0.010 C 
ATOM     14  C   UNL     1      -7.308  -3.277  -7.358  0.00  0.00    +0.001 C 
ATOM     15  C   UNL     1      -7.668  -1.998  -8.117  0.00  0.00    +0.000 C 
ATOM     16  C   UNL     1      -8.156  -0.939  -7.127  0.00  0.00    +0.001 C 
ATOM     17  C   UNL     1      -7.048  -0.637  -6.115  0.00  0.00    +0.010 C 
ENDBRANCH   8  12
BRANCH   1  19
ATOM     18  C   UNL     1      -0.019   1.526   0.010  0.00  0.00    +0.033 C 
ATOM     19  C   UNL     1       0.002  -0.004   0.002  0.00  0.00    +0.102 C 
BRANCH  19  20
ATOM     20  C   UNL     1       0.731  -0.503   1.223  0.00  0.00    -0.025 A 
ATOM     21  C   UNL     1       0.077  -0.557   2.442  0.00  0.00    +0.007 A 
ATOM     22  C   UNL     1       0.737  -1.013   3.566  0.00  0.00    +0.028 A 
ATOM     23  C   UNL     1       2.059  -1.419   3.474  0.00  0.00    +0.067 A 
ATOM     24  C   UNL     1       2.719  -1.364   2.244  0.00  0.00    +0.067 A 
ATOM     25  C   UNL     1       2.047  -0.910   1.120  0.00  0.00    +0.033 A 
ATOM     26  N   UNL     1       4.014  -1.829   2.461  0.00  0.00    -0.306 N 
ATOM     27  H   UNL     1       4.709  -1.906   1.789  0.00  0.00    +0.170 HD
ATOM     28  C   UNL     1       4.137  -2.151   3.763  0.00  0.00    +0.325 A 
ATOM     29  O   UNL     1       5.145  -2.589   4.284  0.00  0.00    -0.247 OA
ATOM     30  N   UNL     1       2.974  -1.915   4.400  0.00  0.00    -0.306 N 
ATOM     31  H   UNL     1       2.803  -2.064   5.343  0.00  0.00    +0.170 HD
ENDBRANCH  19  20
ENDBRANCH   1  19
TORSDOF 3
