REMARK  Name = ZINC39355917
REMARK  13 active torsions:
REMARK  status: ('A' for Active; 'I' for Inactive)
REMARK    1  A    between atoms: C_1  and  C_2
REMARK    2  A    between atoms: C_2  and  C_3
REMARK    3  A    between atoms: C_2  and  C_4
REMARK    4  A    between atoms: C_2  and  C_5
REMARK    5  A    between atoms: C_8  and  C_11
REMARK    6  A    between atoms: C_11  and  O_12
REMARK    7  A    between atoms: O_12  and  C_13
REMARK    8  A    between atoms: N_15  and  N_16
REMARK    9  A    between atoms: C_17  and  C_19
REMARK   10  A    between atoms: C_19  and  S_20
REMARK   11  A    between atoms: S_20  and  C_21
REMARK   12  A    between atoms: C_28  and  O_33
REMARK   13  A    between atoms: O_33  and  C_34
REMARK                            x       y       z     vdW  Elec       q    Type
REMARK                         _______ _______ _______ _____ _____    ______ ____
ROOT
ATOM      1  N   UNL     1       2.229   0.826  -7.873  0.00  0.00    -0.231 N 
ATOM      2  C   UNL     1       2.096   1.677  -8.910  0.00  0.00    +0.239 C 
ATOM      3  O   UNL     1       2.611   1.418  -9.977  0.00  0.00    -0.273 OA
ATOM      4  H   UNL     1       1.817   1.032  -7.020  0.00  0.00    +0.173 HD
ENDROOT
BRANCH   1   7
ATOM      5  C   UNL     1       3.097  -1.208  -6.992  0.00  0.00    +0.417 C 
ATOM      6  O   UNL     1       3.733  -2.235  -7.126  0.00  0.00    -0.225 OA
ATOM      7  N   UNL     1       2.963  -0.358  -8.028  0.00  0.00    -0.200 N 
ATOM      8  H   UNL     1       3.375  -0.564  -8.882  0.00  0.00    +0.176 HD
BRANCH   5   9
ATOM      9  O   UNL     1       2.525  -0.921  -5.807  0.00  0.00    -0.445 OA
BRANCH   9  10
ATOM     10  C   UNL     1       2.707  -1.868  -4.752  0.00  0.00    +0.269 C 
BRANCH  10  14
ATOM     11  C   UNL     1       0.707  -0.490  -1.238  0.00  0.00    -0.042 A 
ATOM     12  C   UNL     1       0.036  -1.284  -2.148  0.00  0.00    +0.004 A 
ATOM     13  C   UNL     1       0.683  -1.730  -3.286  0.00  0.00    +0.007 A 
ATOM     14  C   UNL     1       2.001  -1.381  -3.513  0.00  0.00    -0.010 A 
ATOM     15  C   UNL     1       2.672  -0.586  -2.603  0.00  0.00    +0.007 A 
ATOM     16  C   UNL     1       2.024  -0.137  -1.467  0.00  0.00    +0.004 A 
BRANCH  11  18
ATOM     17  C   UNL     1      -0.019   1.526   0.010  0.00  0.00    +0.015 C 
ATOM     18  C   UNL     1       0.002  -0.004   0.002  0.00  0.00    -0.013 C 
ATOM     19  C   UNL     1       0.742  -0.511   1.242  0.00  0.00    +0.015 C 
ATOM     20  C   UNL     1      -1.433  -0.534   0.013  0.00  0.00    +0.015 C 
ENDBRANCH  11  18
ENDBRANCH  10  14
ENDBRANCH   9  10
ENDBRANCH   5   9
ENDBRANCH   1   7
BRANCH   2  21
ATOM     21  C   UNL     1       1.306   2.949  -8.743  0.00  0.00    +0.174 C 
BRANCH  21  22
ATOM     22  S   UNL     1       1.311   3.873 -10.304  0.00  0.00    -0.075 S 
BRANCH  22  23
ATOM     23  C   UNL     1       0.361   5.314  -9.950  0.00  0.00    +0.208 C 
ATOM     24  N   UNL     1      -0.127   5.451  -8.740  0.00  0.00    -0.227 NA
ATOM     25  C   UNL     1      -0.847   6.685  -8.434  0.00  0.00    +0.252 C 
ATOM     26  C   UNL     1      -1.443   7.170  -9.748  0.00  0.00    +0.117 C 
ATOM     27  C   UNL     1      -2.752   7.441  -9.476  0.00  0.00    +0.028 A 
ATOM     28  C   UNL     1      -3.782   8.015 -10.254  0.00  0.00    +0.057 A 
ATOM     29  C   UNL     1      -5.015   8.135  -9.675  0.00  0.00    +0.121 A 
ATOM     30  C   UNL     1      -5.312   7.723  -8.365  0.00  0.00    +0.047 A 
ATOM     31  C   UNL     1      -4.396   7.167  -7.531  0.00  0.00    +0.029 A 
ATOM     32  C   UNL     1      -3.035   7.006  -8.073  0.00  0.00    +0.046 A 
ATOM     33  N   UNL     1      -1.965   6.532  -7.514  0.00  0.00    -0.358 N 
ATOM     34  N   UNL     1      -0.741   7.134 -10.881  0.00  0.00    -0.147 NA
ATOM     35  N   UNL     1       0.181   6.219 -10.941  0.00  0.00    -0.122 NA
ATOM     36  H   UNL     1      -1.918   6.138  -6.629  0.00  0.00    +0.162 HD
BRANCH  29  37
ATOM     37  O   UNL     1      -6.012   8.685 -10.411  0.00  0.00    -0.495 OA
ATOM     38  C   UNL     1      -7.292   8.800  -9.785  0.00  0.00    +0.277 C 
ENDBRANCH  29  37
ENDBRANCH  22  23
ENDBRANCH  21  22
ENDBRANCH   2  21
TORSDOF 9
