REMARK  Name = ZINC38541459
REMARK  9 active torsions:
REMARK  status: ('A' for Active; 'I' for Inactive)
REMARK    1  A    between atoms: C_1  and  O_2
REMARK    2  A    between atoms: O_2  and  C_3
REMARK    3  A    between atoms: C_3  and  C_4
REMARK    4  A    between atoms: C_4  and  O_5
REMARK    5  A    between atoms: O_5  and  C_6
REMARK    6  A    between atoms: C_6  and  C_8
REMARK    7  A    between atoms: C_9  and  C_29
REMARK    8  A    between atoms: C_20  and  C_22
REMARK    9  A    between atoms: C_25  and  O_28
REMARK                            x       y       z     vdW  Elec       q    Type
REMARK                         _______ _______ _______ _____ _____    ______ ____
ROOT
ATOM      1  C   UNL     1      -0.090  -4.444   2.776  0.00  0.00    +0.067 C 
ATOM      2  C   UNL     1       0.376  -5.714   2.702  0.00  0.00    +0.050 C 
ATOM      3  N   UNL     1       1.318  -6.193   3.595  0.00  0.00    -0.303 N 
ATOM      4  C   UNL     1       1.902  -5.287   4.441  0.00  0.00    +0.106 C 
ATOM      5  N   UNL     1       3.160  -5.373   4.746  0.00  0.00    -0.151 NA
ATOM      6  C   UNL     1       3.771  -4.490   5.548  0.00  0.00    +0.331 C 
ATOM      7  O   UNL     1       4.948  -4.645   5.814  0.00  0.00    -0.250 OA
ATOM      8  N   UNL     1       3.116  -3.438   6.063  0.00  0.00    -0.238 N 
ATOM      9  C   UNL     1       1.809  -3.243   5.829  0.00  0.00    +0.231 C 
ATOM     10  O   UNL     1       1.260  -2.272   6.306  0.00  0.00    -0.275 OA
ATOM     11  C   UNL     1       1.011  -4.198   4.990  0.00  0.00    +0.148 C 
ATOM     12  C   UNL     1       0.391  -3.454   3.799  0.00  0.00    +0.077 C 
ATOM     13  H   UNL     1       1.556  -7.133   3.621  0.00  0.00    +0.153 HD
ATOM     14  H   UNL     1       3.598  -2.804   6.618  0.00  0.00    +0.159 HD
ENDROOT
BRANCH  12  15
ATOM     15  C   UNL     1       1.423  -2.550   3.175  0.00  0.00    -0.038 A 
ATOM     16  C   UNL     1       2.583  -3.088   2.648  0.00  0.00    +0.008 A 
ATOM     17  C   UNL     1       3.531  -2.261   2.076  0.00  0.00    +0.045 A 
ATOM     18  C   UNL     1       3.317  -0.891   2.029  0.00  0.00    +0.117 A 
ATOM     19  C   UNL     1       2.152  -0.355   2.558  0.00  0.00    +0.045 A 
ATOM     20  C   UNL     1       1.205  -1.186   3.124  0.00  0.00    +0.008 A 
BRANCH  18  21
ATOM     21  O   UNL     1       4.248  -0.076   1.467  0.00  0.00    -0.507 OA
ATOM     22  H   UNL     1       4.121   0.071   0.519  0.00  0.00    +0.292 HD
ENDBRANCH  18  21
ENDBRANCH  12  15
BRANCH   2  23
ATOM     23  C   UNL     1      -0.135  -6.609   1.644  0.00  0.00    -0.003 A 
ATOM     24  C   UNL     1       0.158  -6.348   0.303  0.00  0.00    +0.010 A 
ATOM     25  C   UNL     1      -0.322  -7.188  -0.680  0.00  0.00    +0.001 A 
ATOM     26  C   UNL     1      -1.092  -8.286  -0.341  0.00  0.00    +0.000 A 
ATOM     27  C   UNL     1      -1.386  -8.551   0.986  0.00  0.00    +0.001 A 
ATOM     28  C   UNL     1      -0.907  -7.723   1.980  0.00  0.00    +0.010 A 
ENDBRANCH   2  23
BRANCH   1  29
ATOM     29  C   UNL     1      -1.067  -4.031   1.847  0.00  0.00    +0.338 C 
ATOM     30  O   UNL     1      -1.560  -4.839   1.082  0.00  0.00    -0.245 OA
BRANCH  29  31
ATOM     31  O   UNL     1      -1.456  -2.739   1.807  0.00  0.00    -0.459 OA
BRANCH  31  32
ATOM     32  C   UNL     1      -2.449  -2.390   0.841  0.00  0.00    +0.260 C 
BRANCH  32  33
ATOM     33  C   UNL     1      -2.759  -0.895   0.944  0.00  0.00    +0.200 C 
BRANCH  33  35
ATOM     34  C   UNL     1      -1.783   1.273   0.646  0.00  0.00    +0.194 C 
ATOM     35  O   UNL     1      -1.600  -0.142   0.582  0.00  0.00    -0.380 OA
ENDBRANCH  33  35
ENDBRANCH  32  33
ENDBRANCH  31  32
ENDBRANCH  29  31
ENDBRANCH   1  29
TORSDOF 8
