REMARK  Name = ZINC23019151
REMARK  9 active torsions:
REMARK  status: ('A' for Active; 'I' for Inactive)
REMARK    1  A    between atoms: C_1  and  C_2
REMARK    2  A    between atoms: C_6  and  O_9
REMARK    3  A    between atoms: C_7  and  C_8
REMARK    4  A    between atoms: O_9  and  C_10
REMARK    5  A    between atoms: C_10  and  C_12
REMARK    6  A    between atoms: C_10  and  C_13
REMARK    7  A    between atoms: N_15  and  N_16
REMARK    8  A    between atoms: C_17  and  C_19
REMARK    9  A    between atoms: C_26  and  C_28
REMARK                            x       y       z     vdW  Elec       q    Type
REMARK                         _______ _______ _______ _____ _____    ______ ____
ROOT
ATOM      1  N   UNL     1      -5.189   7.933   2.189  0.00  0.00    -0.234 N 
ATOM      2  C   UNL     1      -3.869   8.188   2.103  0.00  0.00    +0.234 C 
ATOM      3  O   UNL     1      -3.484   9.308   1.840  0.00  0.00    -0.274 OA
ATOM      4  H   UNL     1      -5.539   6.917   2.428  0.00  0.00    +0.173 HD
ENDROOT
BRANCH   2   5
ATOM      5  C   UNL     1      -2.871   7.082   2.333  0.00  0.00    +0.094 C 
ATOM      6  C   UNL     1      -1.452   7.633   2.174  0.00  0.00    +0.016 C 
ATOM      7  C   UNL     1      -0.438   6.519   2.440  0.00  0.00    +0.020 C 
ATOM      8  C   UNL     1      -0.638   5.397   1.423  0.00  0.00    +0.108 C 
ATOM      9  N   UNL     1      -2.040   4.960   1.463  0.00  0.00    -0.296 N 
ATOM     10  C   UNL     1      -3.099   5.966   1.310  0.00  0.00    +0.121 C 
ATOM     11  C   UNL     1      -2.349   3.660   1.644  0.00  0.00    +0.253 C 
ATOM     12  O   UNL     1      -3.513   3.304   1.635  0.00  0.00    -0.269 OA
BRANCH  11  13
ATOM     13  C   UNL     1      -1.283   2.676   1.852  0.00  0.00    +0.074 A 
ATOM     14  C   UNL     1      -1.278   1.551   2.662  0.00  0.00    +0.021 A 
ATOM     15  C   UNL     1      -0.133   0.794   2.673  0.00  0.00    +0.008 A 
ATOM     16  C   UNL     1       0.918   1.168   1.898  0.00  0.00    +0.046 A 
ATOM     17  S   UNL     1       0.344   2.609   1.123  0.00  0.00    -0.092 S 
ENDBRANCH  11  13
ENDBRANCH   2   5
BRANCH   1  20
ATOM     18  C   UNL     1      -7.438   8.705   2.062  0.00  0.00    +0.270 C 
ATOM     19  O   UNL     1      -7.823   7.586   2.325  0.00  0.00    -0.270 OA
ATOM     20  N   UNL     1      -6.117   8.961   1.975  0.00  0.00    -0.231 N 
ATOM     21  H   UNL     1      -5.768   9.976   1.737  0.00  0.00    +0.173 HD
BRANCH  18  22
ATOM     22  C   UNL     1      -8.435   9.811   1.831  0.00  0.00    +0.257 C 
ATOM     23  C   UNL     1      -8.289  10.867   2.929  0.00  0.00    +0.062 C 
BRANCH  22  24
ATOM     24  O   UNL     1      -9.759   9.272   1.862  0.00  0.00    -0.480 OA
BRANCH  24  30
ATOM     25  C   UNL     1     -14.348   9.552   0.223  0.00  0.00    +0.044 C 
ATOM     26  C   UNL     1     -12.972  10.143   0.395  0.00  0.00    -0.044 A 
ATOM     27  C   UNL     1     -12.692  11.399  -0.110  0.00  0.00    +0.004 A 
ATOM     28  C   UNL     1     -11.431  11.944   0.045  0.00  0.00    +0.004 A 
ATOM     29  C   UNL     1     -10.449  11.236   0.711  0.00  0.00    +0.046 A 
ATOM     30  C   UNL     1     -10.725   9.973   1.212  0.00  0.00    +0.125 A 
ATOM     31  C   UNL     1     -11.992   9.428   1.055  0.00  0.00    -0.006 A 
ATOM     32  C   UNL     1     -12.297   8.059   1.604  0.00  0.00    +0.048 C 
ENDBRANCH  24  30
ENDBRANCH  22  24
ENDBRANCH  18  22
ENDBRANCH   1  20
TORSDOF 6
