REMARK  Name = ZINC36626388
REMARK  12 active torsions:
REMARK  status: ('A' for Active; 'I' for Inactive)
REMARK    1  A    between atoms: C_1  and  C_2
REMARK    2  A    between atoms: C_2  and  O_3
REMARK    3  A    between atoms: O_3  and  C_4
REMARK    4  A    between atoms: C_4  and  C_6
REMARK    5  A    between atoms: C_10  and  N_11
REMARK    6  A    between atoms: C_12  and  C_14
REMARK    7  A    between atoms: C_14  and  C_16
REMARK    8  A    between atoms: C_14  and  N_17
REMARK    9  A    between atoms: N_20  and  C_23
REMARK   10  A    between atoms: C_23  and  C_24
REMARK   11  A    between atoms: N_26  and  C_27
REMARK   12  A    between atoms: C_27  and  C_28
REMARK                            x       y       z     vdW  Elec       q    Type
REMARK                         _______ _______ _______ _____ _____    ______ ____
ROOT
ATOM      1  N   UNL     1      -0.568  -2.357  -3.988  0.00  0.00    -0.278 N 
ATOM      2  C   UNL     1      -1.131  -2.849  -5.109  0.00  0.00    +0.235 C 
ATOM      3  O   UNL     1      -0.465  -3.493  -5.891  0.00  0.00    -0.274 OA
ATOM      4  H   UNL     1      -1.101  -1.841  -3.363  0.00  0.00    +0.155 HD
ENDROOT
BRANCH   1   9
ATOM      5  C   UNL     1       1.517  -2.161  -2.637  0.00  0.00    +0.091 A 
ATOM      6  C   UNL     1       2.918  -2.544  -2.598  0.00  0.00    -0.021 A 
ATOM      7  C   UNL     1       3.321  -3.275  -3.660  0.00  0.00    -0.004 A 
ATOM      8  S   UNL     1       1.875  -3.441  -4.666  0.00  0.00    -0.077 S 
ATOM      9  C   UNL     1       0.774  -2.586  -3.729  0.00  0.00    +0.086 A 
ATOM     10  C   UNL     1       4.694  -3.816  -3.910  0.00  0.00    +0.043 C 
ATOM     11  C   UNL     1       5.674  -3.099  -2.969  0.00  0.00    +0.005 C 
ATOM     12  C   UNL     1       5.095  -3.107  -1.552  0.00  0.00    +0.005 C 
ATOM     13  C   UNL     1       3.882  -2.176  -1.480  0.00  0.00    +0.037 C 
BRANCH   5  14
ATOM     14  C   UNL     1       0.913  -1.366  -1.567  0.00  0.00    +0.342 C 
ATOM     15  O   UNL     1       0.411  -1.919  -0.607  0.00  0.00    -0.245 OA
BRANCH  14  16
ATOM     16  O   UNL     1       0.914  -0.019  -1.644  0.00  0.00    -0.461 OA
BRANCH  16  18
ATOM     17  C   UNL     1       0.404   2.198  -0.828  0.00  0.00    +0.048 C 
ATOM     18  C   UNL     1       0.308   0.694  -0.564  0.00  0.00    +0.229 C 
ENDBRANCH  16  18
ENDBRANCH  14  16
ENDBRANCH   5  14
ENDBRANCH   1   9
BRANCH   2  19
ATOM     19  C   UNL     1      -2.591  -2.599  -5.391  0.00  0.00    +0.140 C 
ATOM     20  C   UNL     1      -3.445  -3.490  -4.486  0.00  0.00    +0.034 C 
BRANCH  19  21
ATOM     21  N   UNL     1      -2.878  -2.912  -6.797  0.00  0.00    -0.295 NA
ATOM     22  C   UNL     1      -4.166  -2.338  -7.211  0.00  0.00    +0.066 C 
ATOM     23  C   UNL     1      -4.400  -2.634  -8.694  0.00  0.00    -0.063 C 
ATOM     24  N   UNL     1      -4.400  -4.087  -8.910  0.00  0.00    +0.387 N 
ATOM     25  C   UNL     1      -3.099  -4.642  -8.515  0.00  0.00    -0.063 C 
ATOM     26  C   UNL     1      -2.854  -4.363  -7.030  0.00  0.00    +0.066 C 
ATOM     27  H   UNL     1      -5.128  -4.509  -8.354  0.00  0.00    -0.081 HD
BRANCH  24  28
ATOM     28  C   UNL     1      -4.642  -4.371 -10.331  0.00  0.00    +0.019 C 
BRANCH  28  29
ATOM     29  C   UNL     1      -4.764  -5.860 -10.531  0.00  0.00    +0.197 C 
ATOM     30  O   UNL     1      -4.660  -6.610  -9.584  0.00  0.00    -0.278 OA
ATOM     31  N   UNL     1      -4.989  -6.357 -11.764  0.00  0.00    -0.313 N 
ATOM     32  H   UNL     1      -5.073  -5.757 -12.521  0.00  0.00    +0.149 HD
BRANCH  31  33
ATOM     33  C   UNL     1      -5.108  -7.804 -11.959  0.00  0.00    +0.131 C 
BRANCH  33  34
ATOM     34  C   UNL     1      -5.356  -8.096 -13.416  0.00  0.00    -0.016 C 
ATOM     35  C   UNL     1      -4.566  -8.915 -14.064  0.00  0.00    +0.005 C 
ENDBRANCH  33  34
ENDBRANCH  31  33
ENDBRANCH  28  29
ENDBRANCH  24  28
ENDBRANCH  19  21
ENDBRANCH   2  19
TORSDOF 10
