REMARK  Name = ZINC30229721
REMARK  8 active torsions:
REMARK  status: ('A' for Active; 'I' for Inactive)
REMARK    1  A    between atoms: C_1  and  C_2
REMARK    2  A    between atoms: C_2  and  C_4
REMARK    3  A    between atoms: C_2  and  N_16
REMARK    4  A    between atoms: C_7  and  C_10
REMARK    5  A    between atoms: C_17  and  C_19
REMARK    6  A    between atoms: C_19  and  C_20
REMARK    7  A    between atoms: C_20  and  C_22
REMARK    8  A    between atoms: C_20  and  N_29
REMARK                            x       y       z     vdW  Elec       q    Type
REMARK                         _______ _______ _______ _____ _____    ______ ____
ROOT
ATOM      1  N   UNL     1       4.635   6.083  -2.157  0.00  0.00    -0.309 N 
ATOM      2  C   UNL     1       4.063   5.452  -1.112  0.00  0.00    +0.216 C 
ATOM      3  O   UNL     1       4.479   5.642   0.012  0.00  0.00    -0.276 OA
ATOM      4  H   UNL     1       4.258   5.910  -3.176  0.00  0.00    +0.149 HD
ENDROOT
BRANCH   1   6
ATOM      5  C   UNL     1       7.063   6.201  -1.891  0.00  0.00    +0.033 C 
ATOM      6  C   UNL     1       5.758   6.997  -1.936  0.00  0.00    +0.100 C 
BRANCH   6   7
ATOM      7  C   UNL     1       5.819   7.999  -3.061  0.00  0.00    -0.027 A 
ATOM      8  C   UNL     1       5.582   7.590  -4.361  0.00  0.00    +0.006 A 
ATOM      9  C   UNL     1       5.631   8.504  -5.394  0.00  0.00    +0.009 A 
ATOM     10  C   UNL     1       5.931   9.838  -5.127  0.00  0.00    -0.018 A 
ATOM     11  C   UNL     1       6.175  10.243  -3.816  0.00  0.00    +0.009 A 
ATOM     12  C   UNL     1       6.117   9.322  -2.790  0.00  0.00    +0.006 A 
BRANCH  10  13
ATOM     13  C   UNL     1       5.991  10.824  -6.234  0.00  0.00    -0.018 A 
ATOM     14  C   UNL     1       6.285  12.159  -5.966  0.00  0.00    +0.008 A 
ATOM     15  C   UNL     1       6.344  13.071  -7.000  0.00  0.00    +0.001 A 
ATOM     16  C   UNL     1       6.102  12.664  -8.300  0.00  0.00    +0.000 A 
ATOM     17  C   UNL     1       5.804  11.340  -8.571  0.00  0.00    +0.001 A 
ATOM     18  C   UNL     1       5.747  10.419  -7.545  0.00  0.00    +0.008 A 
ENDBRANCH  10  13
ENDBRANCH   6   7
ENDBRANCH   1   6
BRANCH   2  19
ATOM     19  C   UNL     1       2.909   4.511  -1.339  0.00  0.00    +0.123 C 
BRANCH  19  20
ATOM     20  C   UNL     1       2.450   3.934   0.001  0.00  0.00    +0.115 C 
BRANCH  20  21
ATOM     21  C   UNL     1       1.219   3.090  -0.210  0.00  0.00    -0.008 A 
ATOM     22  C   UNL     1       0.865   2.692  -1.486  0.00  0.00    +0.007 A 
ATOM     23  C   UNL     1      -0.264   1.918  -1.680  0.00  0.00    +0.000 A 
ATOM     24  C   UNL     1      -1.043   1.547  -0.600  0.00  0.00    +0.001 A 
ATOM     25  C   UNL     1      -0.686   1.940   0.677  0.00  0.00    +0.020 A 
ATOM     26  C   UNL     1       0.444   2.714   0.872  0.00  0.00    +0.046 A 
ATOM     27 CL   UNL     1       0.888   3.214   2.474  0.00  0.00    -0.083 Cl
ENDBRANCH  20  21
BRANCH  20  28
ATOM     28  N   UNL     1       3.518   3.107   0.568  0.00  0.00    -0.292 N 
ATOM     29  C   UNL     1       3.904   1.980  -0.063  0.00  0.00    +0.298 C 
ATOM     30  O   UNL     1       3.433   1.699  -1.148  0.00  0.00    -0.253 OA
ATOM     31  N   UNL     1       4.812   1.165   0.510  0.00  0.00    -0.313 N 
ATOM     32  H   UNL     1       4.004   3.405   1.508  0.00  0.00    +0.151 HD
ATOM     33  H   UNL     1       5.128   0.245  -0.005  0.00  0.00    +0.146 HD
ATOM     34  H   UNL     1       5.238   1.419   1.492  0.00  0.00    +0.146 HD
ENDBRANCH  20  28
ENDBRANCH  19  20
ENDBRANCH   2  19
TORSDOF 7
