REMARK  Name = ZINC11897692
REMARK  11 active torsions:
REMARK  status: ('A' for Active; 'I' for Inactive)
REMARK    1  A    between atoms: C_1  and  C_2
REMARK    2  A    between atoms: C_2  and  C_3
REMARK    3  A    between atoms: C_2  and  C_4
REMARK    4  A    between atoms: C_2  and  C_5
REMARK    5  A    between atoms: C_8  and  S_11
REMARK    6  A    between atoms: S_11  and  N_14
REMARK    7  A    between atoms: N_14  and  C_15
REMARK    8  A    between atoms: C_15  and  C_16
REMARK    9  A    between atoms: C_16  and  C_18
REMARK   10  A    between atoms: C_16  and  N_64
REMARK   11  A    between atoms: N_22  and  C_23
REMARK                            x       y       z     vdW  Elec       q    Type
REMARK                         _______ _______ _______ _____ _____    ______ ____
ROOT
ATOM      1  C   UNL     1      -0.009   1.662   0.209  0.00  0.00    +0.096 C 
ENDROOT
BRANCH   1   2
ATOM      2  N   UNL     1      -0.292   0.321  -0.307  0.00  0.00    -0.191 NA
ATOM      3  H   UNL     1       0.304  -0.086  -0.955  0.00  0.00    +0.148 HD
BRANCH   2   4
ATOM      4  S   UNL     1      -1.632  -0.501   0.214  0.00  0.00    +0.058 S 
ATOM      5  O   UNL     1      -1.644  -1.741  -0.480  0.00  0.00    -0.153 OA
ATOM      6  O   UNL     1      -1.630  -0.423   1.633  0.00  0.00    -0.153 OA
BRANCH   4  10
ATOM      7  C   UNL     1      -5.257   1.810  -1.202  0.00  0.00    -0.042 A 
ATOM      8  C   UNL     1      -4.710   0.824  -2.002  0.00  0.00    +0.006 A 
ATOM      9  C   UNL     1      -3.603   0.118  -1.569  0.00  0.00    +0.029 A 
ATOM     10  C   UNL     1      -3.043   0.399  -0.337  0.00  0.00    +0.105 A 
ATOM     11  C   UNL     1      -3.593   1.381   0.465  0.00  0.00    +0.029 A 
ATOM     12  C   UNL     1      -4.697   2.090   0.030  0.00  0.00    +0.006 A 
BRANCH   7  14
ATOM     13  C   UNL     1      -7.625   1.612  -1.914  0.00  0.00    +0.015 C 
ATOM     14  C   UNL     1      -6.464   2.580  -1.674  0.00  0.00    -0.013 C 
ATOM     15  C   UNL     1      -6.865   3.603  -0.610  0.00  0.00    +0.015 C 
ATOM     16  C   UNL     1      -6.128   3.306  -2.978  0.00  0.00    +0.015 C 
ENDBRANCH   7  14
ENDBRANCH   4  10
ENDBRANCH   2   4
ENDBRANCH   1   2
BRANCH   1  17
ATOM     17  C   UNL     1       1.432   2.046  -0.135  0.00  0.00    -0.005 C 
BRANCH  17  24
ATOM     18  C   UNL     1       3.761   1.600   0.399  0.00  0.00    -0.078 C 
ATOM     19  C   UNL     1       4.723   0.724   1.153  0.00  0.00    -0.019 C 
ATOM     20  C   UNL     1       4.979  -0.551   0.322  0.00  0.00    -0.002 C 
ATOM     21  C   UNL     1       3.888  -1.512   0.439  0.00  0.00    -0.002 C 
ATOM     22  C   UNL     1       2.549  -0.940  -0.073  0.00  0.00    -0.019 C 
ATOM     23  C   UNL     1       1.979  -0.038   0.988  0.00  0.00    -0.078 C 
ATOM     24  N   UNL     1       2.336   1.414   0.839  0.00  0.00    +0.386 N 
ATOM     25  H   UNL     1       2.216   1.872   1.750  0.00  0.00    -0.081 HD
ENDBRANCH  17  24
BRANCH  17  26
ATOM     26  C   UNL     1       1.594   3.540  -0.020  0.00  0.00    +0.006 A 
ATOM     27  C   UNL     1       2.415   4.183   0.835  0.00  0.00    +0.021 A 
ATOM     28  C   UNL     1       2.258   5.565   0.613  0.00  0.00    +0.019 A 
ATOM     29  C   UNL     1       1.347   5.715  -0.370  0.00  0.00    +0.085 A 
ATOM     30  N   UNL     1       0.940   4.475  -0.766  0.00  0.00    -0.355 N 
ATOM     31  C   UNL     1      -0.041   4.194  -1.818  0.00  0.00    +0.148 C 
ENDBRANCH  17  26
ENDBRANCH   1  17
TORSDOF 7
