REMARK  Name = ZINC08582559
REMARK  12 active torsions:
REMARK  status: ('A' for Active; 'I' for Inactive)
REMARK    1  A    between atoms: C_1  and  O_2
REMARK    2  A    between atoms: O_2  and  C_3
REMARK    3  A    between atoms: C_8  and  C_14
REMARK    4  A    between atoms: C_9  and  O_13
REMARK    5  A    between atoms: C_14  and  N_65
REMARK    6  A    between atoms: C_15  and  C_16
REMARK    7  A    between atoms: C_15  and  N_65
REMARK    8  A    between atoms: C_16  and  C_17
REMARK    9  A    between atoms: C_23  and  C_24
REMARK   10  A    between atoms: C_23  and  N_65
REMARK   11  A    between atoms: N_28  and  C_29
REMARK   12  A    between atoms: C_29  and  C_30
REMARK                            x       y       z     vdW  Elec       q    Type
REMARK                         _______ _______ _______ _____ _____    ______ ____
ROOT
ATOM      1  N   UNL     1       5.502   3.030  -1.563  0.00  0.00    +0.387 N 
ATOM      2  H   UNL     1       6.166   2.426  -1.065  0.00  0.00    -0.081 HD
ENDROOT
BRANCH   1   3
ATOM      3  C   UNL     1       5.410   4.327  -0.861  0.00  0.00    -0.037 C 
BRANCH   3   9
ATOM      4  C   UNL     1      11.233   7.031  -0.252  0.00  0.00    +0.122 A 
ATOM      5  C   UNL     1      10.549   7.667  -1.292  0.00  0.00    +0.046 A 
ATOM      6  C   UNL     1       9.288   7.286  -1.631  0.00  0.00    +0.013 A 
ATOM      7  C   UNL     1       8.662   6.241  -0.932  0.00  0.00    +0.001 A 
ATOM      8  C   UNL     1       7.356   5.824  -1.261  0.00  0.00    +0.017 A 
ATOM      9  C   UNL     1       6.804   4.805  -0.543  0.00  0.00    -0.002 A 
ATOM     10  C   UNL     1       7.531   4.206   0.492  0.00  0.00    +0.214 A 
ATOM     11  N   UNL     1       8.751   4.596   0.792  0.00  0.00    -0.213 NA
ATOM     12  C   UNL     1       9.347   5.591   0.123  0.00  0.00    +0.078 A 
ATOM     13  C   UNL     1      10.647   6.005   0.453  0.00  0.00    +0.074 A 
BRANCH   4  15
ATOM     14  C   UNL     1      13.046   8.501  -0.700  0.00  0.00    +0.277 C 
ATOM     15  O   UNL     1      12.492   7.431   0.067  0.00  0.00    -0.495 OA
ENDBRANCH   4  15
BRANCH  10  16
ATOM     16  O   UNL     1       6.966   3.197   1.200  0.00  0.00    -0.492 OA
ATOM     17  H   UNL     1       7.197   2.314   0.879  0.00  0.00    +0.294 HD
ENDBRANCH  10  16
ENDBRANCH   3   9
ENDBRANCH   1   3
BRANCH   1  18
ATOM     18  C   UNL     1       4.178   2.372  -1.583  0.00  0.00    -0.073 C 
BRANCH  18  19
ATOM     19  C   UNL     1       3.783   2.012  -0.149  0.00  0.00    +0.016 C 
BRANCH  19  20
ATOM     20  C   UNL     1       2.492   1.235  -0.164  0.00  0.00    -0.049 A 
ATOM     21  C   UNL     1       1.289   1.891   0.019  0.00  0.00    +0.003 A 
ATOM     22  C   UNL     1       0.104   1.178   0.004  0.00  0.00    +0.000 A 
ATOM     23  C   UNL     1       0.124  -0.191  -0.190  0.00  0.00    +0.000 A 
ATOM     24  C   UNL     1       1.327  -0.846  -0.371  0.00  0.00    +0.000 A 
ATOM     25  C   UNL     1       2.511  -0.134  -0.357  0.00  0.00    +0.003 A 
ENDBRANCH  19  20
ENDBRANCH  18  19
ENDBRANCH   1  18
BRANCH   1  26
ATOM     26  C   UNL     1       5.984   3.236  -2.945  0.00  0.00    +0.001 C 
BRANCH  26  27
ATOM     27  C   UNL     1       6.277   1.893  -3.563  0.00  0.00    +0.135 A 
ATOM     28  N   UNL     1       7.415   1.244  -3.522  0.00  0.00    -0.115 NA
ATOM     29  N   UNL     1       7.265   0.136  -4.162  0.00  0.00    -0.023 NA
ATOM     30  N   UNL     1       6.063   0.065  -4.618  0.00  0.00    -0.044 NA
ATOM     31  N   UNL     1       5.423   1.129  -4.269  0.00  0.00    -0.229 N 
BRANCH  31  32
ATOM     32  C   UNL     1       4.027   1.447  -4.583  0.00  0.00    +0.178 C 
BRANCH  32  33
ATOM     33  C   UNL     1       3.964   2.210  -5.908  0.00  0.00    +0.140 C 
ATOM     34  C   UNL     1       2.511   2.650  -6.191  0.00  0.00    +0.035 C 
ATOM     35  C   UNL     1       2.391   2.424  -7.723  0.00  0.00    +0.031 C 
ATOM     36  C   UNL     1       3.291   1.177  -7.908  0.00  0.00    +0.160 C 
ATOM     37  O   UNL     1       4.374   1.354  -6.981  0.00  0.00    -0.375 OA
ENDBRANCH  32  33
ENDBRANCH  31  32
ENDBRANCH  26  27
ENDBRANCH   1  26
TORSDOF 11
