REMARK  Name = ZINC03953857
REMARK  6 active torsions:
REMARK  status: ('A' for Active; 'I' for Inactive)
REMARK    1  A    between atoms: C_4  and  C_7
REMARK    2  A    between atoms: C_7  and  C_8
REMARK    3  A    between atoms: C_7  and  C_19
REMARK    4  A    between atoms: C_7  and  O_30
REMARK    5  A    between atoms: C_17  and  O_18
REMARK    6  A    between atoms: C_28  and  O_29
REMARK                            x       y       z     vdW  Elec       q    Type
REMARK                         _______ _______ _______ _____ _____    ______ ____
ROOT
ATOM      1  C   UNL     1       3.679  -0.399   0.141  0.00  0.00    +0.148 C 
ENDROOT
BRANCH   1   2
ATOM      2  C   UNL     1       3.715  -1.800   0.696  0.00  0.00    +0.035 A 
ATOM      3  C   UNL     1       4.264  -2.827  -0.067  0.00  0.00    +0.011 A 
ATOM      4  C   UNL     1       4.313  -4.103   0.404  0.00  0.00    +0.009 A 
ATOM      5  C   UNL     1       3.801  -4.396   1.680  0.00  0.00    -0.014 A 
ATOM      6  C   UNL     1       3.835  -5.702   2.198  0.00  0.00    +0.008 A 
ATOM      7  C   UNL     1       3.331  -5.949   3.438  0.00  0.00    +0.001 A 
ATOM      8  C   UNL     1       2.780  -4.924   4.205  0.00  0.00    +0.001 A 
ATOM      9  C   UNL     1       2.730  -3.647   3.735  0.00  0.00    +0.012 A 
ATOM     10  C   UNL     1       3.241  -3.355   2.460  0.00  0.00    +0.024 A 
ATOM     11  C   UNL     1       3.212  -2.043   1.943  0.00  0.00    +0.131 A 
BRANCH  11  12
ATOM     12  O   UNL     1       2.684  -1.030   2.677  0.00  0.00    -0.506 OA
ATOM     13  H   UNL     1       1.748  -0.862   2.499  0.00  0.00    +0.292 HD
ENDBRANCH  11  12
ENDBRANCH   1   2
BRANCH   1  14
ATOM     14  C   UNL     1       4.189  -0.408  -1.277  0.00  0.00    +0.035 A 
ATOM     15  C   UNL     1       5.365   0.269  -1.587  0.00  0.00    +0.011 A 
ATOM     16  C   UNL     1       5.854   0.282  -2.858  0.00  0.00    +0.009 A 
ATOM     17  C   UNL     1       5.165  -0.397  -3.878  0.00  0.00    -0.014 A 
ATOM     18  C   UNL     1       5.641  -0.406  -5.200  0.00  0.00    +0.008 A 
ATOM     19  C   UNL     1       4.947  -1.074  -6.161  0.00  0.00    +0.001 A 
ATOM     20  C   UNL     1       3.769  -1.753  -5.855  0.00  0.00    +0.001 A 
ATOM     21  C   UNL     1       3.279  -1.766  -4.585  0.00  0.00    +0.012 A 
ATOM     22  C   UNL     1       3.967  -1.087  -3.567  0.00  0.00    +0.024 A 
ATOM     23  C   UNL     1       3.493  -1.084  -2.239  0.00  0.00    +0.131 A 
BRANCH  23  24
ATOM     24  O   UNL     1       2.350  -1.744  -1.919  0.00  0.00    -0.506 OA
ATOM     25  H   UNL     1       1.543  -1.238  -2.089  0.00  0.00    +0.292 HD
ENDBRANCH  23  24
ENDBRANCH   1  14
BRANCH   1  29
ATOM     26  C   UNL     1      -0.338   1.054   0.199  0.00  0.00    +0.000 A 
ATOM     27  C   UNL     1       0.719   1.944   0.205  0.00  0.00    +0.000 A 
ATOM     28  C   UNL     1       2.019   1.474   0.186  0.00  0.00    +0.007 A 
ATOM     29  C   UNL     1       2.262   0.113   0.162  0.00  0.00    -0.007 A 
ATOM     30  C   UNL     1       1.204  -0.777   0.157  0.00  0.00    +0.007 A 
ATOM     31  C   UNL     1      -0.096  -0.307   0.174  0.00  0.00    +0.000 A 
ENDBRANCH   1  29
BRANCH   1  32
ATOM     32  O   UNL     1       4.505   0.451   0.939  0.00  0.00    -0.375 OA
ATOM     33  H   UNL     1       5.433   0.180   0.971  0.00  0.00    +0.211 HD
ENDBRANCH   1  32
TORSDOF 6
