REMARK  Name = ZINC39710291
REMARK  13 active torsions:
REMARK  status: ('A' for Active; 'I' for Inactive)
REMARK    1  A    between atoms: C_1  and  C_2
REMARK    2  A    between atoms: C_2  and  C_3
REMARK    3  A    between atoms: C_3  and  C_4
REMARK    4  A    between atoms: C_3  and  C_5
REMARK    5  A    between atoms: C_3  and  N_6
REMARK    6  A    between atoms: C_7  and  C_12
REMARK    7  A    between atoms: C_12  and  C_14
REMARK    8  A    between atoms: C_12  and  N_27
REMARK    9  A    between atoms: C_19  and  C_26
REMARK   10  A    between atoms: N_27  and  C_28
REMARK   11  A    between atoms: N_27  and  C_36
REMARK   12  A    between atoms: C_28  and  C_29
REMARK   13  A    between atoms: C_36  and  C_37
REMARK                            x       y       z     vdW  Elec       q    Type
REMARK                         _______ _______ _______ _____ _____    ______ ____
ROOT
ATOM      1  C   UNL     1      -2.845  -2.959  -1.461  0.00  0.00    +0.115 C 
ENDROOT
BRANCH   1   2
ATOM      2  C   UNL     1      -4.375  -2.975  -1.469  0.00  0.00    +0.119 C 
ATOM      3  C   UNL     1      -4.825  -3.932  -2.555  0.00  0.00    -0.003 C 
ATOM      4  C   UNL     1      -5.628  -3.431  -3.537  0.00  0.00    -0.007 A 
ATOM      5  C   UNL     1      -6.107  -4.286  -4.623  0.00  0.00    +0.012 A 
ATOM      6  C   UNL     1      -6.904  -3.744  -5.580  0.00  0.00    -0.050 A 
ATOM      7  C   UNL     1      -7.270  -2.398  -5.544  0.00  0.00    +0.005 A 
ATOM      8  C   UNL     1      -6.858  -1.553  -4.563  0.00  0.00    +0.024 A 
ATOM      9  C   UNL     1      -6.029  -2.014  -3.524  0.00  0.00    +0.040 A 
ATOM     10  N   UNL     1      -5.632  -1.176  -2.567  0.00  0.00    -0.284 N 
ATOM     11  C   UNL     1      -4.853  -1.543  -1.564  0.00  0.00    +0.226 C 
ATOM     12  O   UNL     1      -4.522  -0.732  -0.720  0.00  0.00    -0.275 OA
ATOM     13  C   UNL     1      -7.405  -4.614  -6.704  0.00  0.00    +0.044 C 
ATOM     14  H   UNL     1      -5.928  -0.253  -2.608  0.00  0.00    +0.155 HD
ENDBRANCH   1   2
BRANCH   1  16
ATOM     15  N   UNL     1      -0.883  -2.125  -0.213  0.00  0.00    -0.179 NA
ATOM     16  C   UNL     1      -2.350  -2.019  -0.360  0.00  0.00    +0.236 C 
ATOM     17  N   UNL     1      -2.882  -2.431   0.946  0.00  0.00    -0.148 NA
ATOM     18  N   UNL     1      -1.940  -2.713   1.689  0.00  0.00    -0.069 NA
ATOM     19  N   UNL     1      -0.698  -2.558   1.074  0.00  0.00    -0.179 N 
ATOM     20  H   UNL     1       0.161  -2.729   1.491  0.00  0.00    +0.191 HD
BRANCH  15  21
ATOM     21  C   UNL     1      -0.237  -0.824  -0.428  0.00  0.00    +0.037 C 
ATOM     22  C   UNL     1      -0.756   0.180   0.603  0.00  0.00    +0.029 C 
ATOM     23  C   UNL     1      -0.561  -0.321  -1.837  0.00  0.00    +0.029 C 
BRANCH  21  25
ATOM     24  C   UNL     1       1.950   0.381  -0.501  0.00  0.00    +0.006 C 
ATOM     25  C   UNL     1       1.278  -0.974  -0.276  0.00  0.00    +0.020 C 
ENDBRANCH  21  25
ENDBRANCH  15  21
ENDBRANCH   1  16
BRANCH   1  26
ATOM     26  N   UNL     1      -2.353  -2.490  -2.764  0.00  0.00    -0.284 NA
BRANCH  26  27
ATOM     27  C   UNL     1      -2.340  -3.582  -3.746  0.00  0.00    +0.122 C 
BRANCH  27  28
ATOM     28  C   UNL     1      -1.121  -4.441  -3.527  0.00  0.00    -0.015 A 
ATOM     29  C   UNL     1       0.103  -4.044  -4.032  0.00  0.00    +0.006 A 
ATOM     30  C   UNL     1       1.221  -4.831  -3.831  0.00  0.00    +0.000 A 
ATOM     31  C   UNL     1       1.116  -6.016  -3.126  0.00  0.00    +0.001 A 
ATOM     32  C   UNL     1      -0.108  -6.413  -2.621  0.00  0.00    +0.020 A 
ATOM     33  C   UNL     1      -1.226  -5.622  -2.817  0.00  0.00    +0.045 A 
ATOM     34 CL   UNL     1      -2.762  -6.118  -2.177  0.00  0.00    -0.083 Cl
ENDBRANCH  27  28
ENDBRANCH  26  27
BRANCH  26  35
ATOM     35  C   UNL     1      -3.149  -1.355  -3.249  0.00  0.00    +0.159 C 
BRANCH  35  36
ATOM     36  C   UNL     1      -2.426  -0.685  -4.389  0.00  0.00    +0.119 A 
ATOM     37  C   UNL     1      -2.629  -0.923  -5.697  0.00  0.00    +0.046 A 
ATOM     38  C   UNL     1      -1.744  -0.082  -6.409  0.00  0.00    +0.041 A 
ATOM     39  C   UNL     1      -1.052   0.620  -5.494  0.00  0.00    +0.195 A 
ATOM     40  O   UNL     1      -1.474   0.254  -4.272  0.00  0.00    -0.467 OA
ENDBRANCH  35  36
ENDBRANCH  26  35
ENDBRANCH   1  26
TORSDOF 9
