REMARK  Name = ZINC05375401
REMARK  1 active torsions:
REMARK  status: ('A' for Active; 'I' for Inactive)
REMARK    1  A    between atoms: N_9  and  C_10
REMARK                            x       y       z     vdW  Elec       q    Type
REMARK                         _______ _______ _______ _____ _____    ______ ____
ROOT
ATOM      1  C   UNL     1      -0.728   1.577   1.264  0.00  0.00    +0.003 C 
ATOM      2  C   UNL     1      -0.015   1.082   0.004  0.00  0.00    +0.019 C 
ATOM      3  C   UNL     1      -0.759   1.594  -1.234  0.00  0.00    +0.109 C 
ATOM      4  N   UNL     1      -0.879   3.055  -1.143  0.00  0.00    -0.286 N 
ATOM      5  C   UNL     1      -1.469   3.642   0.068  0.00  0.00    +0.109 C 
ATOM      6  C   UNL     1      -0.717   3.107   1.291  0.00  0.00    +0.019 C 
ATOM      7  C   UNL     1      -0.456   3.843  -2.151  0.00  0.00    +0.302 C 
ATOM      8  O   UNL     1       0.117   3.354  -3.106  0.00  0.00    -0.253 OA
ATOM      9  N   UNL     1      -0.667   5.173  -2.101  0.00  0.00    -0.295 N 
ATOM     10  H   UNL     1      -1.058   5.573  -1.308  0.00  0.00    +0.151 HD
ENDROOT
BRANCH   9  11
ATOM     11  C   UNL     1      -0.306   6.016  -3.244  0.00  0.00    +0.092 C 
ATOM     12  C   UNL     1      -1.452   6.020  -4.257  0.00  0.00    +0.024 C 
ATOM     13  C   UNL     1      -1.075   6.900  -5.450  0.00  0.00    +0.002 C 
ATOM     14  C   UNL     1      -0.815   8.329  -4.969  0.00  0.00    +0.002 C 
ATOM     15  C   UNL     1       0.332   8.324  -3.956  0.00  0.00    +0.021 C 
ATOM     16  C   UNL     1      -0.046   7.444  -2.762  0.00  0.00    +0.101 C 
ATOM     17 CL   UNL     1       1.306   7.440  -1.568  0.00  0.00    -0.120 Cl
ENDBRANCH   9  11
TORSDOF 1
