REMARK  Name = ZINC04275307
REMARK  12 active torsions:
REMARK  status: ('A' for Active; 'I' for Inactive)
REMARK    1  A    between atoms: C_1  and  C_2
REMARK    2  A    between atoms: C_2  and  C_3
REMARK    3  A    between atoms: C_3  and  C_4
REMARK    4  A    between atoms: C_4  and  O_5
REMARK    5  A    between atoms: O_5  and  C_6
REMARK    6  A    between atoms: C_9  and  C_12
REMARK    7  A    between atoms: N_14  and  C_15
REMARK    8  A    between atoms: C_16  and  C_27
REMARK    9  A    between atoms: C_20  and  C_25
REMARK   10  A    between atoms: C_20  and  C_26
REMARK   11  A    between atoms: C_21  and  C_23
REMARK   12  A    between atoms: C_21  and  C_24
REMARK                            x       y       z     vdW  Elec       q    Type
REMARK                         _______ _______ _______ _____ _____    ______ ____
ROOT
ATOM      1  C   UNL     1      -4.783   1.815  -1.378  0.00  0.00    +0.090 A 
ATOM      2  C   UNL     1      -4.122   1.049  -0.425  0.00  0.00    +0.084 A 
ATOM      3  C   UNL     1      -2.978   1.645   0.234  0.00  0.00    -0.021 A 
ATOM      4  C   UNL     1      -2.670   2.902  -0.162  0.00  0.00    -0.015 A 
ATOM      5  S   UNL     1      -3.885   3.298  -1.386  0.00  0.00    -0.078 S 
ATOM      6  C   UNL     1      -1.544   3.747   0.341  0.00  0.00    -0.041 C 
ATOM      7  C   UNL     1      -0.729   1.580   1.268  0.00  0.00    -0.069 C 
ATOM      8  C   UNL     1      -2.138   0.980   1.314  0.00  0.00    +0.024 C 
ATOM      9  C   UNL     1      -0.013   1.086   0.008  0.00  0.00    -0.010 C 
ATOM     10  C   UNL     1       0.048   1.047   2.488  0.00  0.00    -0.010 C 
ATOM     11  C   UNL     1      -2.146   5.004   1.000  0.00  0.00    -0.005 C 
ATOM     12  C   UNL     1      -0.673   4.202  -0.836  0.00  0.00    -0.005 C 
ATOM     13  N   UNL     1      -0.719   3.061   1.375  0.00  0.00    +0.389 N 
ATOM     14  H   UNL     1      -1.080   3.320   2.301  0.00  0.00    -0.084 HD
ATOM     15  H   UNL     1       0.251   3.385   1.283  0.00  0.00    -0.084 HD
ENDROOT
BRANCH   1  18
ATOM     16  C   UNL     1      -6.400   2.356  -3.021  0.00  0.00    +0.249 C 
ATOM     17  O   UNL     1      -5.886   3.450  -3.153  0.00  0.00    -0.270 OA
ATOM     18  N   UNL     1      -5.892   1.474  -2.137  0.00  0.00    -0.275 N 
ATOM     19  H   UNL     1      -6.302   0.602  -2.032  0.00  0.00    +0.156 HD
BRANCH  16  23
ATOM     20  C   UNL     1      -9.796   1.312  -5.347  0.00  0.00    +0.121 A 
ATOM     21  C   UNL     1      -9.210   2.563  -5.498  0.00  0.00    +0.046 A 
ATOM     22  C   UNL     1      -8.109   2.906  -4.747  0.00  0.00    +0.016 A 
ATOM     23  C   UNL     1      -7.580   1.993  -3.829  0.00  0.00    +0.037 A 
ATOM     24  C   UNL     1      -8.169   0.734  -3.683  0.00  0.00    +0.016 A 
ATOM     25  C   UNL     1      -9.274   0.402  -4.436  0.00  0.00    +0.046 A 
BRANCH  20  26
ATOM     26  O   UNL     1     -10.882   0.978  -6.090  0.00  0.00    -0.492 OA
BRANCH  26  27
ATOM     27  C   UNL     1     -11.434  -0.323  -5.883  0.00  0.00    +0.229 C 
BRANCH  27  28
ATOM     28  C   UNL     1     -12.642  -0.516  -6.803  0.00  0.00    +0.041 C 
BRANCH  28  30
ATOM     29  C   UNL     1     -14.441  -2.103  -7.501  0.00  0.00    +0.004 C 
ATOM     30  C   UNL     1     -13.233  -1.910  -6.582  0.00  0.00    -0.000 C 
ENDBRANCH  28  30
ENDBRANCH  27  28
ENDBRANCH  26  27
ENDBRANCH  20  26
ENDBRANCH  16  23
ENDBRANCH   1  18
BRANCH   2  31
ATOM     31  C   UNL     1      -4.566  -0.276  -0.112  0.00  0.00    +0.102 C 
ATOM     32  N   UNL     1      -4.918  -1.327   0.136  0.00  0.00    -0.191 NA
ENDBRANCH   2  31
TORSDOF 7
