REMARK  Name = ZINC03522001
REMARK  9 active torsions:
REMARK  status: ('A' for Active; 'I' for Inactive)
REMARK    1  A    between atoms: C_1  and  C_2
REMARK    2  A    between atoms: C_2  and  N_3
REMARK    3  A    between atoms: C_7  and  C_9
REMARK    4  A    between atoms: C_9  and  C_11
REMARK    5  A    between atoms: C_9  and  S_12
REMARK    6  A    between atoms: S_12  and  C_13
REMARK    7  A    between atoms: C_21  and  C_25
REMARK    8  A    between atoms: N_28  and  C_29
REMARK    9  A    between atoms: C_29  and  C_30
REMARK                            x       y       z     vdW  Elec       q    Type
REMARK                         _______ _______ _______ _____ _____    ______ ____
ROOT
ATOM      1  C   UNL     1      -2.052   2.186   1.180  0.00  0.00    +0.174 A 
ATOM      2  N   UNL     1      -2.700   2.605   2.248  0.00  0.00    -0.216 NA
ATOM      3  C   UNL     1      -2.055   2.844   3.384  0.00  0.00    +0.117 A 
ATOM      4  C   UNL     1      -0.668   2.660   3.509  0.00  0.00    +0.076 A 
ATOM      5  C   UNL     1      -0.099   2.964   4.824  0.00  0.00    -0.023 A 
ATOM      6  C   UNL     1      -0.953   3.388   5.777  0.00  0.00    -0.004 A 
ATOM      7  S   UNL     1      -2.543   3.407   4.995  0.00  0.00    -0.073 S 
ATOM      8  C   UNL     1      -0.624   3.759   7.191  0.00  0.00    +0.046 C 
ATOM      9  C   UNL     1       0.782   3.234   7.515  0.00  0.00    -0.009 C 
ATOM     10  C   UNL     1       1.726   3.624   6.375  0.00  0.00    +0.008 C 
ATOM     11  C   UNL     1       1.391   2.816   5.122  0.00  0.00    +0.037 C 
ATOM     12  C   UNL     1       1.271   3.852   8.826  0.00  0.00    +0.008 C 
ATOM     13  C   UNL     1       0.008   2.199   2.335  0.00  0.00    +0.263 A 
ATOM     14  O   UNL     1       1.213   2.011   2.349  0.00  0.00    -0.267 OA
ATOM     15  N   UNL     1      -0.704   1.975   1.216  0.00  0.00    -0.283 N 
ENDROOT
BRANCH   1  16
ATOM     16  S   UNL     1      -2.939   1.885  -0.313  0.00  0.00    -0.075 S 
BRANCH  16  17
ATOM     17  C   UNL     1      -4.613   2.320   0.224  0.00  0.00    +0.137 C 
ATOM     18  C   UNL     1      -5.075   1.336   1.301  0.00  0.00    +0.029 C 
BRANCH  17  23
ATOM     19  N   UNL     1      -8.655   3.653  -2.010  0.00  0.00    -0.299 N 
ATOM     20  C   UNL     1      -7.522   2.923  -2.009  0.00  0.00    +0.306 C 
ATOM     21  O   UNL     1      -7.258   2.210  -2.957  0.00  0.00    -0.252 OA
ATOM     22  N   UNL     1      -6.684   2.983  -0.955  0.00  0.00    -0.239 N 
ATOM     23  C   UNL     1      -5.551   2.253  -0.954  0.00  0.00    +0.233 C 
ATOM     24  O   UNL     1      -5.287   1.542  -1.899  0.00  0.00    -0.274 OA
ATOM     25  H   UNL     1      -8.867   4.222  -1.253  0.00  0.00    +0.150 HD
ATOM     26  H   UNL     1      -6.895   3.552  -0.199  0.00  0.00    +0.159 HD
BRANCH  19  28
ATOM     27  C   UNL     1     -10.766   4.505  -2.905  0.00  0.00    +0.024 C 
ATOM     28  C   UNL     1      -9.567   3.588  -3.155  0.00  0.00    +0.102 C 
ENDBRANCH  19  28
ENDBRANCH  17  23
ENDBRANCH  16  17
ENDBRANCH   1  16
BRANCH  15  29
ATOM     29  C   UNL     1      -0.018   1.503   0.010  0.00  0.00    +0.154 C 
BRANCH  29  30
ATOM     30  C   UNL     1       0.002  -0.004   0.002  0.00  0.00    -0.013 C 
ATOM     31  C   UNL     1      -0.478  -0.660  -1.025  0.00  0.00    +0.005 C 
ENDBRANCH  29  30
ENDBRANCH  15  29
TORSDOF 6
