REMARK  Name = ZINC17126745
REMARK  8 active torsions:
REMARK  status: ('A' for Active; 'I' for Inactive)
REMARK    1  A    between atoms: C_8  and  C_10
REMARK    2  A    between atoms: N_12  and  C_13
REMARK    3  A    between atoms: C_13  and  C_14
REMARK    4  A    between atoms: N_16  and  C_17
REMARK    5  A    between atoms: C_17  and  C_18
REMARK    6  A    between atoms: C_18  and  C_19
REMARK    7  A    between atoms: C_22  and  S_25
REMARK    8  A    between atoms: S_25  and  N_28
REMARK                            x       y       z     vdW  Elec       q    Type
REMARK                         _______ _______ _______ _____ _____    ______ ____
ROOT
ATOM      1  C   UNL     1       3.107  10.133   0.029  0.00  0.00    +0.230 C 
ATOM      2  O   UNL     1       1.896  10.204   0.041  0.00  0.00    -0.274 OA
ATOM      3  N   UNL     1       3.848  11.258   0.029  0.00  0.00    -0.314 N 
ATOM      4  H   UNL     1       4.816  11.201   0.019  0.00  0.00    +0.149 HD
ENDROOT
BRANCH   1   5
ATOM      5  C   UNL     1       3.782   8.786   0.015  0.00  0.00    +0.200 C 
BRANCH   5   8
ATOM      6  C   UNL     1       3.140   6.435   0.008  0.00  0.00    +0.253 C 
ATOM      7  O   UNL     1       4.322   6.143  -0.005  0.00  0.00    -0.270 OA
ATOM      8  N   UNL     1       2.767   7.730   0.019  0.00  0.00    -0.302 N 
ATOM      9  H   UNL     1       1.825   7.963   0.029  0.00  0.00    +0.150 HD
BRANCH   6  17
ATOM     10  C   UNL     1      -0.013   1.076   0.008  0.00  0.00    +0.001 A 
ATOM     11  C   UNL     1      -1.235   1.737   0.017  0.00  0.00    +0.001 A 
ATOM     12  C   UNL     1      -1.261   3.117   0.030  0.00  0.00    +0.016 A 
ATOM     13  C   UNL     1      -0.075   3.819   0.023  0.00  0.00    +0.021 A 
ATOM     14  C   UNL     1       1.184   3.173   0.008  0.00  0.00    +0.008 A 
ATOM     15  C   UNL     1       1.164   1.754   0.000  0.00  0.00    +0.010 A 
ATOM     16  C   UNL     1       2.301   4.028   0.002  0.00  0.00    +0.068 A 
ATOM     17  C   UNL     1       2.122   5.377   0.011  0.00  0.00    +0.093 A 
ATOM     18  S   UNL     1       0.346   5.544   0.029  0.00  0.00    -0.082 S 
ATOM     19 CL   UNL     1       3.905   3.364  -0.017  0.00  0.00    -0.082 Cl
ENDBRANCH   6  17
ENDBRANCH   5   8
ENDBRANCH   1   5
BRANCH   3  20
ATOM     20  C   UNL     1       3.192  12.568   0.043  0.00  0.00    +0.109 C 
BRANCH  20  21
ATOM     21  C   UNL     1       4.252  13.671   0.039  0.00  0.00    +0.054 C 
BRANCH  21  22
ATOM     22  C   UNL     1       3.577  15.018   0.053  0.00  0.00    -0.046 A 
ATOM     23  C   UNL     1       3.261  15.645  -1.138  0.00  0.00    +0.005 A 
ATOM     24  C   UNL     1       2.637  16.878  -1.125  0.00  0.00    +0.029 A 
ATOM     25  C   UNL     1       2.338  17.489   0.079  0.00  0.00    +0.105 A 
ATOM     26  C   UNL     1       2.659  16.864   1.269  0.00  0.00    +0.029 A 
ATOM     27  C   UNL     1       3.278  15.629   1.256  0.00  0.00    +0.005 A 
BRANCH  25  28
ATOM     28  S   UNL     1       1.547  19.064   0.095  0.00  0.00    +0.056 S 
ATOM     29  O   UNL     1       0.862  19.187  -1.144  0.00  0.00    -0.153 OA
ATOM     30  O   UNL     1       0.884  19.172   1.347  0.00  0.00    -0.153 OA
BRANCH  28  31
ATOM     31  N   UNL     1       2.741  20.211   0.091  0.00  0.00    -0.204 NA
ATOM     32  H   UNL     1       2.583  21.074  -0.322  0.00  0.00    +0.144 HD
ATOM     33  H   UNL     1       3.599  20.020   0.503  0.00  0.00    +0.144 HD
ENDBRANCH  28  31
ENDBRANCH  25  28
ENDBRANCH  21  22
ENDBRANCH  20  21
ENDBRANCH   3  20
TORSDOF 8
