REMARK  Name = ZINC39911608
REMARK  14 active torsions:
REMARK  status: ('A' for Active; 'I' for Inactive)
REMARK    1  A    between atoms: C_1  and  C_2
REMARK    2  A    between atoms: C_2  and  C_3
REMARK    3  A    between atoms: C_3  and  C_4
REMARK    4  A    between atoms: C_4  and  O_5
REMARK    5  A    between atoms: O_5  and  C_6
REMARK    6  A    between atoms: C_9  and  C_12
REMARK    7  A    between atoms: C_15  and  C_27
REMARK    8  A    between atoms: N_22  and  C_23
REMARK    9  A    between atoms: C_23  and  C_24
REMARK   10  A    between atoms: C_24  and  O_25
REMARK   11  A    between atoms: O_25  and  C_26
REMARK   12  A    between atoms: C_29  and  C_35
REMARK   13  A    between atoms: C_31  and  C_34
REMARK   14  A    between atoms: C_32  and  O_33
REMARK                            x       y       z     vdW  Elec       q    Type
REMARK                         _______ _______ _______ _____ _____    ______ ____
ROOT
ATOM      1  C   UNL     1      -3.316  -8.140   0.149  0.00  0.00    +0.141 C 
ATOM      2  C   UNL     1      -3.589  -8.527  -1.279  0.00  0.00    +0.035 A 
ATOM      3  C   UNL     1      -3.123  -8.577  -2.597  0.00  0.00    +0.102 A 
ATOM      4  N   UNL     1      -4.074  -9.121  -3.331  0.00  0.00    -0.173 NA
ATOM      5  N   UNL     1      -5.094  -9.419  -2.607  0.00  0.00    -0.272 N 
ATOM      6  H   UNL     1      -5.909  -9.830  -2.935  0.00  0.00    +0.189 HD
ATOM      7  C   UNL     1      -4.858  -9.073  -1.307  0.00  0.00    +0.126 A 
ATOM      8  C   UNL     1      -5.406  -9.050   0.054  0.00  0.00    +0.266 C 
ATOM      9  O   UNL     1      -6.508  -9.460   0.366  0.00  0.00    -0.268 OA
ATOM     10  N   UNL     1      -4.517  -8.509   0.909  0.00  0.00    -0.283 N 
ENDROOT
BRANCH   3  11
ATOM     11  C   UNL     1      -1.802  -8.104  -3.081  0.00  0.00    +0.044 A 
ATOM     12  C   UNL     1      -0.841  -7.666  -2.173  0.00  0.00    +0.017 A 
ATOM     13  C   UNL     1       0.386  -7.228  -2.627  0.00  0.00    -0.049 A 
ATOM     14  C   UNL     1       0.665  -7.221  -3.983  0.00  0.00    +0.010 A 
ATOM     15  C   UNL     1      -0.282  -7.653  -4.892  0.00  0.00    -0.008 A 
ATOM     16  C   UNL     1      -1.515  -8.102  -4.448  0.00  0.00    +0.129 A 
ATOM     17  C   UNL     1       0.030  -7.643  -6.366  0.00  0.00    +0.047 C 
ATOM     18  C   UNL     1       1.425  -6.753  -1.644  0.00  0.00    +0.044 C 
BRANCH  16  19
ATOM     19  O   UNL     1      -2.445  -8.533  -5.341  0.00  0.00    -0.506 OA
ATOM     20  H   UNL     1      -3.032  -7.837  -5.664  0.00  0.00    +0.292 HD
ENDBRANCH  16  19
ENDBRANCH   3  11
BRANCH   1  24
ATOM     21  C   UNL     1      -2.636  -3.930   0.428  0.00  0.00    +0.121 A 
ATOM     22  C   UNL     1      -3.893  -4.410   0.091  0.00  0.00    +0.046 A 
ATOM     23  C   UNL     1      -4.111  -5.771   0.001  0.00  0.00    +0.009 A 
ATOM     24  C   UNL     1      -3.076  -6.655   0.247  0.00  0.00    -0.022 A 
ATOM     25  C   UNL     1      -1.823  -6.179   0.584  0.00  0.00    +0.009 A 
ATOM     26  C   UNL     1      -1.599  -4.819   0.670  0.00  0.00    +0.046 A 
BRANCH  21  27
ATOM     27  O   UNL     1      -2.420  -2.591   0.517  0.00  0.00    -0.492 OA
BRANCH  27  28
ATOM     28  C   UNL     1      -3.534  -1.735   0.255  0.00  0.00    +0.229 C 
BRANCH  28  29
ATOM     29  C   UNL     1      -3.102  -0.275   0.402  0.00  0.00    +0.041 C 
BRANCH  29  31
ATOM     30  C   UNL     1      -3.861   2.101   0.269  0.00  0.00    +0.004 C 
ATOM     31  C   UNL     1      -4.294   0.641   0.122  0.00  0.00    -0.000 C 
ENDBRANCH  29  31
ENDBRANCH  28  29
ENDBRANCH  27  28
ENDBRANCH  21  27
ENDBRANCH   1  24
BRANCH  10  32
ATOM     32  C   UNL     1      -4.713  -8.322   2.349  0.00  0.00    +0.137 C 
BRANCH  32  33
ATOM     33  C   UNL     1      -5.464  -7.012   2.595  0.00  0.00    +0.178 C 
BRANCH  33  34
ATOM     34  O   UNL     1      -6.782  -7.109   2.051  0.00  0.00    -0.381 OA
ATOM     35  C   UNL     1      -7.573  -5.932   2.228  0.00  0.00    +0.194 C 
ENDBRANCH  33  34
ENDBRANCH  32  33
ENDBRANCH  10  32
TORSDOF 10
