REMARK  Name = ZINC22063265
REMARK  12 active torsions:
REMARK  status: ('A' for Active; 'I' for Inactive)
REMARK    1  A    between atoms: C_1  and  C_2
REMARK    2  A    between atoms: C_3  and  S_8
REMARK    3  A    between atoms: C_4  and  C_7
REMARK    4  A    between atoms: S_8  and  N_11
REMARK    5  A    between atoms: C_17  and  C_19
REMARK    6  A    between atoms: C_19  and  N_20
REMARK    7  A    between atoms: N_20  and  C_21
REMARK    8  A    between atoms: N_20  and  C_22
REMARK    9  A    between atoms: C_22  and  C_24
REMARK   10  A    between atoms: C_22  and  C_25
REMARK   11  A    between atoms: C_28  and  S_31
REMARK   12  A    between atoms: S_31  and  N_34
REMARK                            x       y       z     vdW  Elec       q    Type
REMARK                         _______ _______ _______ _____ _____    ______ ____
ROOT
ATOM      1  N   UNL     1       3.305   2.766   2.399  0.00  0.00    -0.173 NA
ATOM      2  C   UNL     1       3.760   3.192   1.068  0.00  0.00    +0.128 C 
ATOM      3  C   UNL     1       2.921   4.406   0.634  0.00  0.00    +0.125 C 
ATOM      4  N   UNL     1       2.916   5.387   1.728  0.00  0.00    -0.300 N 
ATOM      5  C   UNL     1       2.467   4.960   3.061  0.00  0.00    +0.125 C 
ATOM      6  C   UNL     1       3.300   3.747   3.493  0.00  0.00    +0.128 C 
ATOM      7  C   UNL     1       3.317   6.656   1.513  0.00  0.00    +0.199 C 
ATOM      8  O   UNL     1       3.309   7.456   2.424  0.00  0.00    -0.278 OA
ENDROOT
BRANCH   1   9
ATOM      9  S   UNL     1       2.814   1.207   2.663  0.00  0.00    +0.066 S 
ATOM     10  O   UNL     1       2.987   0.956   4.051  0.00  0.00    -0.153 OA
ATOM     11  O   UNL     1       3.434   0.411   1.662  0.00  0.00    -0.153 OA
BRANCH   9  14
ATOM     12  C   UNL     1       1.073   0.570  -0.195  0.00  0.00    +0.071 C 
ATOM     13  C   UNL     1       0.424   0.874   1.131  0.00  0.00    +0.107 A 
ATOM     14  C   UNL     1       1.081   1.147   2.353  0.00  0.00    +0.170 A 
ATOM     15  C   UNL     1       0.069   1.351   3.230  0.00  0.00    +0.161 A 
ATOM     16  O   UNL     1      -1.069   1.201   2.538  0.00  0.00    -0.358 OA
ATOM     17  N   UNL     1      -0.853   0.942   1.376  0.00  0.00    -0.081 NA
ATOM     18  C   UNL     1       0.197   1.682   4.694  0.00  0.00    +0.091 C 
ENDBRANCH   9  14
ENDBRANCH   1   9
BRANCH   7  19
ATOM     19  C   UNL     1       3.775   7.079   0.142  0.00  0.00    +0.019 C 
BRANCH  19  20
ATOM     20  N   UNL     1       4.156   8.498   0.169  0.00  0.00    +0.388 N 
ATOM     21  C   UNL     1       2.989   9.352   0.427  0.00  0.00    -0.095 C 
ATOM     22  H   UNL     1       4.868   8.640   0.995  0.00  0.00    -0.081 HD
BRANCH  20  23
ATOM     23  C   UNL     1       4.827   8.887  -1.078  0.00  0.00    -0.041 C 
ATOM     24  C   UNL     1       3.814   8.885  -2.225  0.00  0.00    -0.008 C 
BRANCH  23  25
ATOM     25  C   UNL     1       5.411  10.268  -0.925  0.00  0.00    -0.061 A 
ATOM     26  C   UNL     1       5.455  11.123  -2.010  0.00  0.00    +0.004 A 
ATOM     27  C   UNL     1       5.986  12.392  -1.869  0.00  0.00    +0.029 A 
ATOM     28  C   UNL     1       6.481  12.801  -0.645  0.00  0.00    +0.105 A 
ATOM     29  C   UNL     1       6.441  11.944   0.439  0.00  0.00    +0.029 A 
ATOM     30  C   UNL     1       5.906  10.677   0.298  0.00  0.00    +0.004 A 
BRANCH  28  31
ATOM     31  S   UNL     1       7.164  14.416  -0.467  0.00  0.00    +0.056 S 
ATOM     32  O   UNL     1       6.588  15.216  -1.489  0.00  0.00    -0.153 OA
ATOM     33  O   UNL     1       7.062  14.750   0.911  0.00  0.00    -0.153 OA
BRANCH  31  34
ATOM     34  N   UNL     1       8.781  14.304  -0.808  0.00  0.00    -0.204 NA
ATOM     35  H   UNL     1       9.246  15.296  -0.707  0.00  0.00    +0.144 HD
ATOM     36  H   UNL     1       8.914  13.939  -1.837  0.00  0.00    +0.144 HD
ENDBRANCH  31  34
ENDBRANCH  28  31
ENDBRANCH  23  25
ENDBRANCH  20  23
ENDBRANCH  19  20
ENDBRANCH   7  19
TORSDOF 8
