REMARK  Name = ZINC36266203
REMARK  3 active torsions:
REMARK  status: ('A' for Active; 'I' for Inactive)
REMARK    1  A    between atoms: C_1  and  C_2
REMARK    2  A    between atoms: N_12  and  S_13
REMARK    3  A    between atoms: S_13  and  C_16
REMARK                            x       y       z     vdW  Elec       q    Type
REMARK                         _______ _______ _______ _____ _____    ______ ____
ROOT
ATOM      1  C   UNL     1       0.758   1.484   0.014  0.00  0.00    +0.026 C 
ATOM      2  C   UNL     1       0.482  -0.021  -0.002  0.00  0.00    +0.077 C 
ATOM      3  C   UNL     1       1.310  -0.706  -1.137  0.00  0.00    +0.023 C 
ATOM      4  C   UNL     1       1.682  -2.018  -0.464  0.00  0.00    -0.010 C 
ATOM      5  C   UNL     1       2.950  -2.772  -0.796  0.00  0.00    -0.078 C 
ATOM      6  N   UNL     1       3.463  -3.272   0.516  0.00  0.00    +0.380 N 
ATOM      7  C   UNL     1       2.616  -2.672   1.599  0.00  0.00    -0.062 C 
ATOM      8  C   UNL     1       2.067  -1.432   0.950  0.00  0.00    +0.065 C 
ATOM      9  N   UNL     1       0.931  -0.639   1.282  0.00  0.00    -0.172 NA
ATOM     10  H   UNL     1       3.396  -4.278   0.547  0.00  0.00    -0.086 HD
ATOM     11  H   UNL     1       4.424  -2.989   0.637  0.00  0.00    -0.086 HD
ENDROOT
BRANCH   9  12
ATOM     12  S   UNL     1       0.251  -0.441   2.779  0.00  0.00    +0.062 S 
ATOM     13  O   UNL     1       1.311  -0.519   3.721  0.00  0.00    -0.153 OA
ATOM     14  O   UNL     1      -0.607   0.689   2.689  0.00  0.00    -0.153 OA
BRANCH  12  15
ATOM     15  C   UNL     1      -0.785  -1.837   3.069  0.00  0.00    +0.119 A 
ATOM     16  C   UNL     1      -0.441  -2.763   4.035  0.00  0.00    +0.029 A 
ATOM     17  C   UNL     1      -1.254  -3.858   4.263  0.00  0.00    +0.002 A 
ATOM     18  C   UNL     1      -2.410  -4.027   3.525  0.00  0.00    +0.001 A 
ATOM     19  C   UNL     1      -2.755  -3.101   2.558  0.00  0.00    +0.017 A 
ATOM     20  C   UNL     1      -1.944  -2.003   2.333  0.00  0.00    +0.044 A 
ATOM     21 BR   UNL     1      -2.419  -0.732   1.016  0.00  0.00    -0.048 Br
ENDBRANCH  12  15
ENDBRANCH   9  12
TORSDOF 2
