REMARK  Name = ZINC34791388
REMARK  15 active torsions:
REMARK  status: ('A' for Active; 'I' for Inactive)
REMARK    1  A    between atoms: C_1  and  C_2
REMARK    2  A    between atoms: C_2  and  N_3
REMARK    3  A    between atoms: C_6  and  C_11
REMARK    4  A    between atoms: C_14  and  C_18
REMARK    5  A    between atoms: C_16  and  C_17
REMARK    6  A    between atoms: N_21  and  C_23
REMARK    7  A    between atoms: C_23  and  C_25
REMARK    8  A    between atoms: C_23  and  C_29
REMARK    9  A    between atoms: C_25  and  C_26
REMARK   10  A    between atoms: C_26  and  C_27
REMARK   11  A    between atoms: C_26  and  C_28
REMARK   12  A    between atoms: N_31  and  C_32
REMARK   13  A    between atoms: C_32  and  C_33
REMARK   14  A    between atoms: C_33  and  C_34
REMARK   15  A    between atoms: C_34  and  C_35
REMARK                            x       y       z     vdW  Elec       q    Type
REMARK                         _______ _______ _______ _____ _____    ______ ____
ROOT
ATOM      1  N   UNL     1       1.052   0.595  -1.566  0.00  0.00    -0.257 N 
ATOM      2  C   UNL     1       0.727   0.178  -2.825  0.00  0.00    +0.042 C 
ATOM      3  C   UNL     1       1.651  -0.366  -3.642  0.00  0.00    +0.058 C 
ATOM      4  C   UNL     1       3.066  -0.500  -3.115  0.00  0.00    +0.142 C 
ATOM      5  N   UNL     1       3.315  -0.021  -1.745  0.00  0.00    -0.288 N 
ATOM      6  C   UNL     1       2.286   0.505  -1.052  0.00  0.00    +0.307 C 
ATOM      7  O   UNL     1       2.482   0.907   0.078  0.00  0.00    -0.252 OA
ATOM      8  C   UNL     1       1.070  -0.713  -4.879  0.00  0.00    +0.247 C 
ATOM      9  O   UNL     1       1.674  -1.223  -5.805  0.00  0.00    -0.270 OA
ATOM     10  N   UNL     1      -0.240  -0.407  -4.903  0.00  0.00    -0.281 N 
ATOM     11  C   UNL     1      -0.573   0.186  -3.599  0.00  0.00    +0.160 C 
ATOM     12  H   UNL     1       4.200  -0.079  -1.352  0.00  0.00    +0.151 HD
ENDROOT
BRANCH   4  13
ATOM     13  C   UNL     1       3.981   0.256  -4.044  0.00  0.00    -0.020 A 
ATOM     14  C   UNL     1       3.471   1.245  -4.864  0.00  0.00    +0.006 A 
ATOM     15  C   UNL     1       4.310   1.938  -5.716  0.00  0.00    +0.004 A 
ATOM     16  C   UNL     1       5.660   1.642  -5.748  0.00  0.00    -0.050 A 
ATOM     17  C   UNL     1       6.171   0.654  -4.928  0.00  0.00    +0.007 A 
ATOM     18  C   UNL     1       5.332  -0.036  -4.072  0.00  0.00    -0.045 A 
ATOM     19  C   UNL     1       5.889  -1.110  -3.174  0.00  0.00    +0.044 C 
ATOM     20  C   UNL     1       6.575   2.397  -6.678  0.00  0.00    +0.044 C 
ENDBRANCH   4  13
BRANCH   1  22
ATOM     21  C   UNL     1      -0.060   2.688  -0.966  0.00  0.00    +0.025 C 
ATOM     22  C   UNL     1      -0.004   1.177  -0.735  0.00  0.00    +0.111 C 
ENDBRANCH   1  22
BRANCH  10  23
ATOM     23  C   UNL     1      -1.163  -0.624  -6.020  0.00  0.00    +0.163 C 
BRANCH  23  24
ATOM     24  C   UNL     1      -0.779   0.271  -7.170  0.00  0.00    +0.234 C 
ATOM     25  O   UNL     1       0.172   1.017  -7.067  0.00  0.00    -0.274 OA
ATOM     26  N   UNL     1      -1.492   0.243  -8.313  0.00  0.00    -0.314 N 
ATOM     27  H   UNL     1      -2.253  -0.354  -8.395  0.00  0.00    +0.149 HD
BRANCH  26  28
ATOM     28  C   UNL     1      -1.119   1.113  -9.431  0.00  0.00    +0.104 C 
BRANCH  28  29
ATOM     29  C   UNL     1      -2.083   0.886 -10.597  0.00  0.00    +0.023 C 
BRANCH  29  30
ATOM     30  C   UNL     1      -1.694   1.795 -11.765  0.00  0.00    +0.036 C 
BRANCH  30  31
ATOM     31  C   UNL     1      -2.643   1.572 -12.914  0.00  0.00    -0.047 A 
ATOM     32  C   UNL     1      -2.363   0.609 -13.865  0.00  0.00    +0.003 A 
ATOM     33  C   UNL     1      -3.233   0.404 -14.919  0.00  0.00    +0.000 A 
ATOM     34  C   UNL     1      -4.385   1.162 -15.021  0.00  0.00    +0.000 A 
ATOM     35  C   UNL     1      -4.665   2.124 -14.070  0.00  0.00    +0.000 A 
ATOM     36  C   UNL     1      -3.797   2.326 -13.013  0.00  0.00    +0.003 A 
ENDBRANCH  30  31
ENDBRANCH  29  30
ENDBRANCH  28  29
ENDBRANCH  26  28
ENDBRANCH  23  24
BRANCH  23  37
ATOM     37  C   UNL     1      -1.090  -2.086  -6.465  0.00  0.00    +0.035 C 
BRANCH  37  38
ATOM     38  C   UNL     1      -1.643  -2.985  -5.357  0.00  0.00    -0.015 C 
ATOM     39  C   UNL     1      -1.787  -4.414  -5.884  0.00  0.00    +0.007 C 
ATOM     40  C   UNL     1      -0.684  -2.975  -4.165  0.00  0.00    +0.007 C 
ENDBRANCH  37  38
ENDBRANCH  23  37
ENDBRANCH  10  23
TORSDOF 10
