REMARK  Name = ZINC66135795
REMARK  9 active torsions:
REMARK  status: ('A' for Active; 'I' for Inactive)
REMARK    1  A    between atoms: C_1  and  C_2
REMARK    2  A    between atoms: C_3  and  C_22
REMARK    3  A    between atoms: C_4  and  C_9
REMARK    4  A    between atoms: C_9  and  O_10
REMARK    5  A    between atoms: O_10  and  C_11
REMARK    6  A    between atoms: C_14  and  C_18
REMARK    7  A    between atoms: C_18  and  C_19
REMARK    8  A    between atoms: C_18  and  C_20
REMARK    9  A    between atoms: C_18  and  C_21
REMARK                            x       y       z     vdW  Elec       q    Type
REMARK                         _______ _______ _______ _____ _____    ______ ____
ROOT
ATOM      1  C   UNL     1      -0.018   1.503   0.010  0.00  0.00    +0.066 C 
ATOM      2  C   UNL     1       0.002  -0.004   0.002  0.00  0.00    +0.056 A 
ATOM      3  C   UNL     1       0.006  -0.709  -1.209  0.00  0.00    +0.082 A 
ATOM      4  C   UNL     1       0.026  -2.108  -1.163  0.00  0.00    +0.096 A 
ATOM      5  N   UNL     1       0.040  -2.709   0.012  0.00  0.00    -0.215 NA
ATOM      6  C   UNL     1       0.035  -2.006   1.137  0.00  0.00    +0.213 A 
ATOM      7  N   UNL     1       0.022  -0.680   1.135  0.00  0.00    -0.219 NA
ATOM      8  N   UNL     1       0.051  -2.674   2.344  0.00  0.00    -0.327 N 
ATOM      9  H   UNL     1       0.064  -3.644   2.362  0.00  0.00    +0.145 HD
ATOM     10  H   UNL     1       0.048  -2.174   3.175  0.00  0.00    +0.145 HD
ENDROOT
BRANCH   3  11
ATOM     11  C   UNL     1      -0.011   0.006  -2.500  0.00  0.00    +0.245 C 
ATOM     12  O   UNL     1       1.036   0.315  -3.038  0.00  0.00    -0.270 OA
ATOM     13  N   UNL     1      -1.185   0.315  -3.084  0.00  0.00    -0.325 N 
ATOM     14  H   UNL     1      -2.020   0.068  -2.656  0.00  0.00    +0.145 HD
ATOM     15  H   UNL     1      -1.196   0.785  -3.933  0.00  0.00    +0.145 HD
ENDBRANCH   3  11
BRANCH   4  16
ATOM     16  C   UNL     1       0.030  -2.916  -2.435  0.00  0.00    +0.285 C 
BRANCH  16  17
ATOM     17  O   UNL     1       1.379  -3.153  -2.844  0.00  0.00    -0.485 OA
BRANCH  17  18
ATOM     18  C   UNL     1       1.561  -3.872  -3.982  0.00  0.00    +0.135 A 
ATOM     19  C   UNL     1       0.465  -4.336  -4.694  0.00  0.00    +0.047 A 
ATOM     20  C   UNL     1       0.652  -5.068  -5.851  0.00  0.00    +0.008 A 
ATOM     21  C   UNL     1       1.932  -5.338  -6.300  0.00  0.00    -0.041 A 
ATOM     22  C   UNL     1       3.027  -4.877  -5.593  0.00  0.00    +0.023 A 
ATOM     23  C   UNL     1       2.845  -4.140  -4.438  0.00  0.00    +0.060 A 
ATOM     24 BR   UNL     1       4.343  -3.502  -3.476  0.00  0.00    -0.047 Br
BRANCH  21  25
ATOM     25  C   UNL     1       2.133  -6.136  -7.562  0.00  0.00    -0.013 C 
ATOM     26  C   UNL     1       1.474  -5.409  -8.736  0.00  0.00    +0.015 C 
ATOM     27  C   UNL     1       3.631  -6.291  -7.834  0.00  0.00    +0.015 C 
ATOM     28  C   UNL     1       1.499  -7.519  -7.398  0.00  0.00    +0.015 C 
ENDBRANCH  21  25
ENDBRANCH  17  18
ENDBRANCH  16  17
ENDBRANCH   4  16
TORSDOF 5
