REMARK  Name = ZINC25597194
REMARK  10 active torsions:
REMARK  status: ('A' for Active; 'I' for Inactive)
REMARK    1  A    between atoms: C_1  and  C_2
REMARK    2  A    between atoms: C_2  and  C_3
REMARK    3  A    between atoms: C_2  and  C_4
REMARK    4  A    between atoms: C_2  and  C_5
REMARK    5  A    between atoms: C_8  and  O_11
REMARK    6  A    between atoms: O_11  and  C_12
REMARK    7  A    between atoms: C_12  and  C_13
REMARK    8  A    between atoms: C_16  and  C_19
REMARK    9  A    between atoms: N_21  and  N_22
REMARK   10  A    between atoms: C_23  and  C_25
REMARK                            x       y       z     vdW  Elec       q    Type
REMARK                         _______ _______ _______ _____ _____    ______ ____
ROOT
ATOM      1  C   UNL     1       4.748  -4.185  -0.068  0.00  0.00    +0.260 C 
ATOM      2  O   UNL     1       3.677  -4.760  -0.060  0.00  0.00    -0.269 OA
ATOM      3  N   UNL     1       4.789  -2.838  -0.060  0.00  0.00    -0.230 N 
ATOM      4  H   UNL     1       5.758  -2.318  -0.067  0.00  0.00    +0.173 HD
ENDROOT
BRANCH   1   8
ATOM      5  C   UNL     1       8.358  -6.422  -0.115  0.00  0.00    -0.010 A 
ATOM      6  C   UNL     1       7.141  -7.079  -0.107  0.00  0.00    +0.008 A 
ATOM      7  C   UNL     1       5.965  -6.359  -0.092  0.00  0.00    +0.013 A 
ATOM      8  C   UNL     1       6.004  -4.963  -0.084  0.00  0.00    +0.038 A 
ATOM      9  C   UNL     1       7.236  -4.306  -0.098  0.00  0.00    +0.013 A 
ATOM     10  C   UNL     1       8.405  -5.039  -0.107  0.00  0.00    +0.008 A 
BRANCH   5  11
ATOM     11  C   UNL     1       9.639  -7.215  -0.131  0.00  0.00    +0.264 C 
BRANCH  11  12
ATOM     12  O   UNL     1      10.032  -7.458  -1.484  0.00  0.00    -0.487 OA
BRANCH  12  16
ATOM     13  C   UNL     1      13.504  -9.609  -2.069  0.00  0.00    -0.042 A 
ATOM     14  C   UNL     1      12.778  -9.160  -3.157  0.00  0.00    +0.008 A 
ATOM     15  C   UNL     1      11.615  -8.439  -2.964  0.00  0.00    +0.046 A 
ATOM     16  C   UNL     1      11.175  -8.167  -1.677  0.00  0.00    +0.121 A 
ATOM     17  C   UNL     1      11.908  -8.614  -0.586  0.00  0.00    +0.046 A 
ATOM     18  C   UNL     1      13.067  -9.339  -0.785  0.00  0.00    +0.008 A 
BRANCH  13  20
ATOM     19  C   UNL     1      15.772  -9.544  -3.069  0.00  0.00    +0.015 C 
ATOM     20  C   UNL     1      14.772 -10.394  -2.283  0.00  0.00    -0.013 C 
ATOM     21  C   UNL     1      15.375 -10.768  -0.927  0.00  0.00    +0.015 C 
ATOM     22  C   UNL     1      14.456 -11.668  -3.069  0.00  0.00    +0.015 C 
ENDBRANCH  13  20
ENDBRANCH  12  16
ENDBRANCH  11  12
ENDBRANCH   5  11
ENDBRANCH   1   8
BRANCH   3  23
ATOM     23  N   UNL     1       3.598  -2.100  -0.044  0.00  0.00    -0.229 N 
ATOM     24  C   UNL     1       3.640  -0.753  -0.037  0.00  0.00    +0.277 C 
ATOM     25  O   UNL     1       4.712  -0.178  -0.044  0.00  0.00    -0.267 OA
ATOM     26  H   UNL     1       2.629  -2.620  -0.038  0.00  0.00    +0.173 HD
BRANCH  24  27
ATOM     27  C   UNL     1       2.387   0.023  -0.021  0.00  0.00    +0.106 A 
ATOM     28  C   UNL     1       2.453   1.378  -0.014  0.00  0.00    +0.039 A 
ATOM     29  C   UNL     1       1.215   2.158   0.002  0.00  0.00    -0.011 A 
ATOM     30  C   UNL     1       1.226   3.554   0.010  0.00  0.00    +0.009 A 
ATOM     31  C   UNL     1       0.032   4.242   0.025  0.00  0.00    +0.001 A 
ATOM     32  C   UNL     1      -1.178   3.561   0.033  0.00  0.00    +0.001 A 
ATOM     33  C   UNL     1      -1.212   2.183   0.031  0.00  0.00    +0.014 A 
ATOM     34  C   UNL     1      -0.018   1.466   0.010  0.00  0.00    +0.046 A 
ATOM     35  C   UNL     1       0.002  -0.004   0.002  0.00  0.00    +0.257 A 
ATOM     36  O   UNL     1      -1.041  -0.632   0.008  0.00  0.00    -0.267 OA
ATOM     37  N   UNL     1       1.184  -0.650  -0.013  0.00  0.00    -0.318 N 
ATOM     38  H   UNL     1       1.170  -1.750  -0.018  0.00  0.00    +0.169 HD
ENDBRANCH  24  27
ENDBRANCH   3  23
TORSDOF 7
