REMARK  Name = ZINC16009836
REMARK  5 active torsions:
REMARK  status: ('A' for Active; 'I' for Inactive)
REMARK    1  A    between atoms: C_1  and  C_2
REMARK    2  A    between atoms: C_16  and  C_19
REMARK    3  A    between atoms: C_19  and  C_20
REMARK    4  A    between atoms: C_20  and  C_21
REMARK    5  A    between atoms: N_26  and  C_29
REMARK                            x       y       z     vdW  Elec       q    Type
REMARK                         _______ _______ _______ _____ _____    ______ ____
ROOT
ATOM      1  C   UNL     1       1.084   1.296   0.162  0.00  0.00    +0.047 C 
ATOM      2  C   UNL     1       0.789  -0.181   0.107  0.00  0.00    -0.011 A 
ATOM      3  C   UNL     1       0.626  -0.805  -1.114  0.00  0.00    +0.046 A 
ATOM      4  C   UNL     1       0.355  -2.161  -1.174  0.00  0.00    +0.021 A 
ATOM      5  C   UNL     1       0.247  -2.894  -0.005  0.00  0.00    +0.009 A 
ATOM      6  C   UNL     1       0.408  -2.275   1.214  0.00  0.00    +0.004 A 
ATOM      7  C   UNL     1       0.687  -0.913   1.287  0.00  0.00    +0.043 A 
ATOM      8  N   UNL     1       0.815  -0.516   2.620  0.00  0.00    -0.283 N 
ATOM      9  C   UNL     1       0.642  -1.544   3.474  0.00  0.00    +0.243 C 
ATOM     10  O   UNL     1       0.696  -1.496   4.685  0.00  0.00    -0.273 OA
ATOM     11  C   UNL     1       0.357  -2.760   2.635  0.00  0.00    +0.136 C 
ATOM     12  C   UNL     1      -1.006  -3.378   2.970  0.00  0.00    +0.123 C 
ATOM     13  C   UNL     1      -0.784  -4.910   2.833  0.00  0.00    +0.107 C 
ATOM     14  C   UNL     1       0.688  -5.060   2.394  0.00  0.00    +0.068 C 
ATOM     15  N   UNL     1       1.354  -3.817   2.884  0.00  0.00    -0.295 NA
ATOM     16  C   UNL     1      -0.953  -5.415   4.248  0.00  0.00    +0.232 C 
ATOM     17  O   UNL     1      -0.847  -6.571   4.596  0.00  0.00    -0.274 OA
ATOM     18  N   UNL     1      -1.237  -4.387   5.056  0.00  0.00    -0.210 N 
ATOM     19  C   UNL     1      -1.303  -3.184   4.440  0.00  0.00    +0.233 C 
ATOM     20  O   UNL     1      -1.555  -2.123   4.970  0.00  0.00    -0.274 OA
ATOM     21 CL   UNL     1       0.761   0.114  -2.580  0.00  0.00    -0.083 Cl
ATOM     22  H   UNL     1       1.007   0.393   2.898  0.00  0.00    +0.155 HD
ATOM     23  H   UNL     1       2.204  -3.640   2.369  0.00  0.00    +0.123 HD
ENDROOT
BRANCH  18  24
ATOM     24  C   UNL     1      -1.455  -4.542   6.433  0.00  0.00    +0.044 A 
ATOM     25  C   UNL     1      -0.409  -4.920   7.264  0.00  0.00    +0.025 A 
ATOM     26  C   UNL     1      -0.627  -5.073   8.619  0.00  0.00    +0.022 A 
ATOM     27  C   UNL     1      -1.886  -4.849   9.149  0.00  0.00    +0.041 A 
ATOM     28  C   UNL     1      -2.929  -4.473   8.322  0.00  0.00    +0.022 A 
ATOM     29  C   UNL     1      -2.715  -4.313   6.967  0.00  0.00    +0.025 A 
ATOM     30 CL   UNL     1      -2.156  -5.041  10.853  0.00  0.00    -0.084 Cl
ENDBRANCH  18  24
BRANCH  14  31
ATOM     31  C   UNL     1       1.320  -6.285   3.060  0.00  0.00    +0.028 C 
BRANCH  31  32
ATOM     32  C   UNL     1       2.736  -6.486   2.517  0.00  0.00    +0.097 C 
BRANCH  32  33
ATOM     33  C   UNL     1       3.358  -7.692   3.172  0.00  0.00    +0.211 C 
ATOM     34  O   UNL     1       2.731  -8.327   3.993  0.00  0.00    -0.276 OA
ATOM     35  N   UNL     1       4.612  -8.064   2.846  0.00  0.00    -0.329 N 
ATOM     36  H   UNL     1       5.114  -7.556   2.190  0.00  0.00    +0.145 HD
ATOM     37  H   UNL     1       5.013  -8.840   3.268  0.00  0.00    +0.145 HD
ENDBRANCH  32  33
ENDBRANCH  31  32
ENDBRANCH  14  31
TORSDOF 4
