REMARK  Name = ZINC10000142
REMARK  9 active torsions:
REMARK  status: ('A' for Active; 'I' for Inactive)
REMARK    1  A    between atoms: C_1  and  C_2
REMARK    2  A    between atoms: C_2  and  C_3
REMARK    3  A    between atoms: C_2  and  C_4
REMARK    4  A    between atoms: C_4  and  C_6
REMARK    5  A    between atoms: C_4  and  N_22
REMARK    6  A    between atoms: N_8  and  N_9
REMARK    7  A    between atoms: C_10  and  C_11
REMARK    8  A    between atoms: C_14  and  N_16
REMARK    9  A    between atoms: C_23  and  C_25
REMARK                            x       y       z     vdW  Elec       q    Type
REMARK                         _______ _______ _______ _____ _____    ______ ____
ROOT
ATOM      1  C   UNL     1       4.583  -4.148  -0.182  0.00  0.00    +0.253 C 
ATOM      2  O   UNL     1       5.158  -3.119  -0.470  0.00  0.00    -0.272 OA
ATOM      3  N   UNL     1       5.203  -5.334  -0.345  0.00  0.00    -0.205 N 
ATOM      4  H   UNL     1       4.717  -6.160  -0.194  0.00  0.00    +0.177 HD
ENDROOT
BRANCH   3   5
ATOM      5  N   UNL     1       6.548  -5.373  -0.733  0.00  0.00    -0.185 NA
ATOM      6  C   UNL     1       7.119  -6.516  -0.988  0.00  0.00    +0.176 C 
BRANCH   6   7
ATOM      7  C   UNL     1       6.334  -7.750  -0.952  0.00  0.00    +0.150 A 
ATOM      8  C   UNL     1       6.827  -9.017  -1.085  0.00  0.00    +0.053 A 
ATOM      9  C   UNL     1       5.732  -9.891  -0.989  0.00  0.00    +0.066 A 
ATOM     10  C   UNL     1       4.625  -9.124  -0.802  0.00  0.00    +0.189 A 
ATOM     11  O   UNL     1       4.997  -7.834  -0.776  0.00  0.00    -0.440 OA
BRANCH  10  12
ATOM     12  N   UNL     1       3.329  -9.596  -0.658  0.00  0.00    -0.301 N 
ATOM     13  C   UNL     1       3.035 -10.639  -1.649  0.00  0.00    +0.108 C 
ATOM     14  C   UNL     1       1.654 -11.236  -1.369  0.00  0.00    +0.019 C 
ATOM     15  C   UNL     1       0.601 -10.128  -1.439  0.00  0.00    +0.003 C 
ATOM     16  C   UNL     1       0.956  -9.031  -0.432  0.00  0.00    +0.019 C 
ATOM     17  C   UNL     1       2.357  -8.498  -0.739  0.00  0.00    +0.108 C 
ENDBRANCH  10  12
ENDBRANCH   6   7
ENDBRANCH   3   5
BRANCH   1  18
ATOM     18  C   UNL     1       3.176  -4.101   0.356  0.00  0.00    +0.163 C 
BRANCH  18  19
ATOM     19  N   UNL     1       2.550  -2.833  -0.025  0.00  0.00    -0.300 N 
ATOM     20  C   UNL     1       1.208  -2.745  -0.117  0.00  0.00    +0.245 C 
ATOM     21  O   UNL     1       0.518  -3.718   0.116  0.00  0.00    -0.270 OA
ATOM     22  H   UNL     1       3.101  -2.056  -0.210  0.00  0.00    +0.150 HD
BRANCH  20  23
ATOM     23  C   UNL     1       0.576  -1.465  -0.502  0.00  0.00    +0.037 A 
ATOM     24  C   UNL     1      -0.814  -1.371  -0.598  0.00  0.00    +0.014 A 
ATOM     25  C   UNL     1      -1.397  -0.175  -0.958  0.00  0.00    +0.021 A 
ATOM     26  C   UNL     1      -0.608   0.932  -1.223  0.00  0.00    +0.041 A 
ATOM     27  C   UNL     1       0.771   0.845  -1.129  0.00  0.00    +0.021 A 
ATOM     28  C   UNL     1       1.366  -0.346  -0.770  0.00  0.00    +0.014 A 
ATOM     29 CL   UNL     1      -1.351   2.434  -1.676  0.00  0.00    -0.084 Cl
ENDBRANCH  20  23
ENDBRANCH  18  19
BRANCH  18  31
ATOM     30  C   UNL     1       1.795  -4.048   2.438  0.00  0.00    +0.009 C 
ATOM     31  C   UNL     1       3.211  -4.215   1.882  0.00  0.00    +0.012 C 
ATOM     32  C   UNL     1       3.756  -5.588   2.279  0.00  0.00    +0.009 C 
ENDBRANCH  18  31
ENDBRANCH   1  18
TORSDOF 7
