REMARK  Name = ZINC44963150
REMARK  6 active torsions:
REMARK  status: ('A' for Active; 'I' for Inactive)
REMARK    1  A    between atoms: C_1  and  C_2
REMARK    2  A    between atoms: C_3  and  C_4
REMARK    3  A    between atoms: C_4  and  O_33
REMARK    4  A    between atoms: C_9  and  C_32
REMARK    5  A    between atoms: C_11  and  C_25
REMARK    6  A    between atoms: C_28  and  N_31
REMARK                            x       y       z     vdW  Elec       q    Type
REMARK                         _______ _______ _______ _____ _____    ______ ____
ROOT
ATOM      1  C   UNL     1       0.384  -2.758  -0.739  0.00  0.00    +0.132 C 
ATOM      2  C   UNL     1       1.054  -3.224   0.567  0.00  0.00    +0.049 C 
ATOM      3  C   UNL     1      -0.031  -3.970   1.378  0.00  0.00    +0.008 C 
ATOM      4  C   UNL     1      -1.347  -3.403   0.817  0.00  0.00    +0.006 C 
ATOM      5  C   UNL     1      -1.076  -3.286  -0.691  0.00  0.00    +0.012 C 
ATOM      6  C   UNL     1      -1.053  -4.675  -1.338  0.00  0.00    +0.023 C 
ATOM      7  C   UNL     1      -2.399  -5.367  -1.144  0.00  0.00    +0.046 C 
ATOM      8  C   UNL     1      -2.671  -5.472   0.345  0.00  0.00    -0.055 C 
ATOM      9  C   UNL     1      -3.008  -6.658   0.842  0.00  0.00    -0.044 C 
ATOM     10  C   UNL     1      -3.104  -7.877  -0.046  0.00  0.00    +0.043 C 
ATOM     11  C   UNL     1      -2.466  -9.063   0.685  0.00  0.00    +0.083 C 
ATOM     12  C   UNL     1      -3.033  -9.178   2.074  0.00  0.00    +0.157 C 
ATOM     13  O   UNL     1      -3.208 -10.279   2.555  0.00  0.00    -0.293 OA
ATOM     14  C   UNL     1      -3.362  -8.036   2.825  0.00  0.00    +0.050 C 
ATOM     15  C   UNL     1      -3.322  -6.810   2.263  0.00  0.00    -0.041 C 
ATOM     16  C   UNL     1      -3.601  -5.558   3.058  0.00  0.00    +0.036 C 
ATOM     17  C   UNL     1      -2.552  -4.515   2.677  0.00  0.00    +0.013 C 
ATOM     18  C   UNL     1      -2.550  -4.244   1.169  0.00  0.00    +0.020 C 
ATOM     19  C   UNL     1      -2.058  -2.336  -1.380  0.00  0.00    +0.015 C 
ENDROOT
BRANCH   7  20
ATOM     20  C   UNL     1      -3.486  -4.559  -1.804  0.00  0.00    -0.040 A 
ATOM     21  C   UNL     1      -3.313  -4.094  -3.095  0.00  0.00    +0.006 A 
ATOM     22  C   UNL     1      -4.307  -3.352  -3.702  0.00  0.00    +0.023 A 
ATOM     23  C   UNL     1      -5.482  -3.073  -3.015  0.00  0.00    +0.025 A 
ATOM     24  C   UNL     1      -5.652  -3.542  -1.719  0.00  0.00    +0.023 A 
ATOM     25  C   UNL     1      -4.657  -4.287  -1.119  0.00  0.00    +0.006 A 
BRANCH  23  26
ATOM     26  N   UNL     1      -6.489  -2.323  -3.627  0.00  0.00    -0.358 N 
ATOM     27  H   UNL     1      -6.368  -1.997  -4.532  0.00  0.00    +0.142 HD
ATOM     28  H   UNL     1      -7.309  -2.129  -3.146  0.00  0.00    +0.142 HD
ENDBRANCH  23  26
ENDBRANCH   7  20
BRANCH   1  31
ATOM     29  C   UNL     1       0.396   1.355  -0.947  0.00  0.00    +0.106 C 
ATOM     30  C   UNL     1       0.392  -0.115  -0.873  0.00  0.00    -0.103 C 
ATOM     31  C   UNL     1       0.389  -1.288  -0.814  0.00  0.00    -0.067 C 
ENDBRANCH   1  31
BRANCH   1  32
ATOM     32  O   UNL     1       1.068  -3.308  -1.867  0.00  0.00    -0.376 OA
ATOM     33  H   UNL     1       1.990  -3.026  -1.944  0.00  0.00    +0.211 HD
ENDBRANCH   1  32
TORSDOF 4
