REMARK  Name = ZINC01371345
REMARK  8 active torsions:
REMARK  status: ('A' for Active; 'I' for Inactive)
REMARK    1  A    between atoms: C_1  and  C_2
REMARK    2  A    between atoms: C_4  and  C_36
REMARK    3  A    between atoms: C_7  and  C_14
REMARK    4  A    between atoms: C_14  and  N_15
REMARK    5  A    between atoms: N_15  and  C_16
REMARK    6  A    between atoms: C_16  and  C_17
REMARK    7  A    between atoms: N_28  and  C_29
REMARK    8  A    between atoms: C_29  and  C_30
REMARK                            x       y       z     vdW  Elec       q    Type
REMARK                         _______ _______ _______ _____ _____    ______ ____
ROOT
ATOM      1  N   UNL     1       0.060  -2.282   2.888  0.00  0.00    -0.277 N 
ATOM      2  C   UNL     1       0.042  -1.826   1.619  0.00  0.00    +0.303 C 
ATOM      3  O   UNL     1       0.044  -2.611   0.691  0.00  0.00    -0.253 OA
ATOM      4  N   UNL     1       0.022  -0.500   1.381  0.00  0.00    -0.295 N 
ATOM      5  H   UNL     1       0.020   0.127   2.121  0.00  0.00    +0.151 HD
ENDROOT
BRANCH   1   6
ATOM      6  C   UNL     1       0.083  -3.724   3.147  0.00  0.00    +0.150 C 
BRANCH   6  13
ATOM      7  C   UNL     1       7.565  -6.123   4.518  0.00  0.00    +0.044 C 
ATOM      8  C   UNL     1       6.136  -5.644   4.491  0.00  0.00    -0.048 A 
ATOM      9  C   UNL     1       5.497  -5.323   5.680  0.00  0.00    +0.007 A 
ATOM     10  C   UNL     1       4.202  -4.887   5.678  0.00  0.00    -0.041 A 
ATOM     11  C   UNL     1       3.514  -4.763   4.466  0.00  0.00    +0.002 A 
ATOM     12  C   UNL     1       2.128  -4.294   4.426  0.00  0.00    +0.020 A 
ATOM     13  C   UNL     1       1.511  -4.199   3.223  0.00  0.00    +0.035 A 
ATOM     14  C   UNL     1       2.203  -4.537   2.040  0.00  0.00    +0.254 A 
ATOM     15  O   UNL     1       1.630  -4.440   0.969  0.00  0.00    -0.268 OA
ATOM     16  N   UNL     1       3.478  -4.964   2.066  0.00  0.00    -0.322 N 
ATOM     17  H   UNL     1       3.924  -5.188   1.235  0.00  0.00    +0.169 HD
ATOM     18  C   UNL     1       4.160  -5.088   3.258  0.00  0.00    +0.050 A 
ATOM     19  C   UNL     1       5.479  -5.529   3.285  0.00  0.00    +0.029 A 
ATOM     20  C   UNL     1       3.518  -4.540   6.975  0.00  0.00    +0.044 C 
ENDBRANCH   6  13
ENDBRANCH   1   6
BRANCH   1  21
ATOM     21  C   UNL     1       0.058  -1.336   4.006  0.00  0.00    +0.145 C 
BRANCH  21  22
ATOM     22  C   UNL     1      -1.363  -1.031   4.403  0.00  0.00    -0.026 A 
ATOM     23  C   UNL     1      -2.032   0.027   3.816  0.00  0.00    +0.009 A 
ATOM     24  C   UNL     1      -3.337   0.307   4.172  0.00  0.00    +0.050 A 
ATOM     25  C   UNL     1      -3.976  -0.465   5.130  0.00  0.00    +0.166 A 
ATOM     26  C   UNL     1      -3.300  -1.527   5.725  0.00  0.00    +0.167 A 
ATOM     27  C   UNL     1      -1.994  -1.806   5.359  0.00  0.00    +0.054 A 
ATOM     28  O   UNL     1      -4.135  -2.126   6.625  0.00  0.00    -0.453 OA
ATOM     29  C   UNL     1      -5.185  -1.171   6.869  0.00  0.00    +0.466 C 
ATOM     30  O   UNL     1      -5.234  -0.398   5.655  0.00  0.00    -0.453 OA
ENDBRANCH  21  22
ENDBRANCH   1  21
BRANCH   4  31
ATOM     31  C   UNL     1       0.002  -0.004   0.002  0.00  0.00    +0.141 C 
BRANCH  31  32
ATOM     32  C   UNL     1      -0.018   1.503   0.010  0.00  0.00    -0.030 A 
ATOM     33  C   UNL     1      -1.225   2.178   0.020  0.00  0.00    +0.005 A 
ATOM     34  C   UNL     1      -1.244   3.560   0.032  0.00  0.00    +0.000 A 
ATOM     35  C   UNL     1      -0.056   4.267   0.025  0.00  0.00    +0.000 A 
ATOM     36  C   UNL     1       1.151   3.592   0.010  0.00  0.00    +0.000 A 
ATOM     37  C   UNL     1       1.169   2.210   0.003  0.00  0.00    +0.005 A 
ENDBRANCH  31  32
ENDBRANCH   4  31
TORSDOF 6
