REMARK  Name = ZINC04903760
REMARK  5 active torsions:
REMARK  status: ('A' for Active; 'I' for Inactive)
REMARK    1  A    between atoms: C_1  and  C_2
REMARK    2  A    between atoms: C_5  and  N_8
REMARK    3  A    between atoms: N_8  and  C_9
REMARK    4  A    between atoms: C_10  and  C_18
REMARK    5  A    between atoms: C_27  and  O_28
REMARK                            x       y       z     vdW  Elec       q    Type
REMARK                         _______ _______ _______ _____ _____    ______ ____
ROOT
ATOM      1  C   UNL     1       0.946   1.765  -0.508  0.00  0.00    +0.137 A 
ATOM      2  C   UNL     1       2.266   1.557  -0.168  0.00  0.00    +0.117 A 
ATOM      3  N   UNL     1       2.885   2.753  -0.150  0.00  0.00    -0.208 NA
ATOM      4  C   UNL     1       2.017   3.701  -0.463  0.00  0.00    +0.237 A 
ATOM      5  N   UNL     1       0.796   3.111  -0.698  0.00  0.00    -0.271 N 
ATOM      6  C   UNL     1      -0.282   3.882  -1.037  0.00  0.00    +0.097 A 
ATOM      7  C   UNL     1      -0.125   5.223  -1.146  0.00  0.00    +0.038 A 
ATOM      8  C   UNL     1       1.136   5.790  -0.905  0.00  0.00    +0.116 A 
ATOM      9  N   UNL     1       2.155   5.032  -0.577  0.00  0.00    -0.220 NA
ENDROOT
BRANCH   2  10
ATOM     10  C   UNL     1       2.893   0.248   0.126  0.00  0.00    +0.046 A 
ATOM     11  C   UNL     1       2.261  -0.640   0.977  0.00  0.00    +0.022 A 
ATOM     12  C   UNL     1       2.859  -1.879   1.252  0.00  0.00    -0.017 A 
ATOM     13  C   UNL     1       2.245  -2.807   2.112  0.00  0.00    +0.008 A 
ATOM     14  C   UNL     1       2.851  -4.000   2.360  0.00  0.00    +0.001 A 
ATOM     15  C   UNL     1       4.074  -4.319   1.773  0.00  0.00    +0.001 A 
ATOM     16  C   UNL     1       4.698  -3.446   0.935  0.00  0.00    +0.008 A 
ATOM     17  C   UNL     1       4.104  -2.204   0.654  0.00  0.00    -0.014 A 
ATOM     18  C   UNL     1       4.724  -1.282  -0.207  0.00  0.00    +0.054 A 
ATOM     19  C   UNL     1       4.127  -0.085  -0.468  0.00  0.00    +0.127 A 
BRANCH  19  20
ATOM     20  O   UNL     1       4.730   0.798  -1.306  0.00  0.00    -0.506 OA
ATOM     21  H   UNL     1       5.348   1.398  -0.866  0.00  0.00    +0.292 HD
ENDBRANCH  19  20
ENDBRANCH   2  10
BRANCH   1  22
ATOM     22  N   UNL     1      -0.044   0.791  -0.639  0.00  0.00    -0.299 N 
ATOM     23  H   UNL     1       0.005   0.144  -1.360  0.00  0.00    +0.154 HD
BRANCH  22  28
ATOM     24  C   UNL     1      -4.362   0.625   3.033  0.00  0.00    +0.044 C 
ATOM     25  C   UNL     1      -3.214   0.668   2.057  0.00  0.00    -0.050 A 
ATOM     26  C   UNL     1      -3.204  -0.180   0.965  0.00  0.00    +0.005 A 
ATOM     27  C   UNL     1      -2.155  -0.142   0.069  0.00  0.00    +0.023 A 
ATOM     28  C   UNL     1      -1.107   0.750   0.265  0.00  0.00    +0.032 A 
ATOM     29  C   UNL     1      -1.117   1.597   1.367  0.00  0.00    +0.023 A 
ATOM     30  C   UNL     1      -2.173   1.557   2.256  0.00  0.00    +0.005 A 
ENDBRANCH  22  28
ENDBRANCH   1  22
TORSDOF 4
