REMARK  Name = ZINC06194772
REMARK  10 active torsions:
REMARK  status: ('A' for Active; 'I' for Inactive)
REMARK    1  A    between atoms: C_1  and  C_2
REMARK    2  A    between atoms: C_6  and  C_15
REMARK    3  A    between atoms: C_13  and  C_14
REMARK    4  A    between atoms: C_15  and  C_17
REMARK    5  A    between atoms: C_15  and  N_72
REMARK    6  A    between atoms: N_21  and  C_22
REMARK    7  A    between atoms: C_27  and  C_28
REMARK    8  A    between atoms: C_27  and  N_72
REMARK    9  A    between atoms: C_34  and  C_35
REMARK   10  A    between atoms: C_34  and  N_72
REMARK                            x       y       z     vdW  Elec       q    Type
REMARK                         _______ _______ _______ _____ _____    ______ ____
ROOT
ATOM      1  C   UNL     1       0.080  -1.308  -0.531  0.00  0.00    +0.040 C 
ENDROOT
BRANCH   1   7
ATOM      2  C   UNL     1       1.295   6.039  -0.937  0.00  0.00    +0.044 C 
ATOM      3  C   UNL     1       0.355   4.867  -0.817  0.00  0.00    -0.047 A 
ATOM      4  C   UNL     1       0.857   3.596  -0.799  0.00  0.00    +0.013 A 
ATOM      5  C   UNL     1      -0.015   2.508  -0.688  0.00  0.00    -0.001 A 
ATOM      6  C   UNL     1       0.488   1.133  -0.666  0.00  0.00    +0.017 A 
ATOM      7  C   UNL     1      -0.405   0.119  -0.557  0.00  0.00    +0.011 A 
ATOM      8  C   UNL     1      -1.786   0.394  -0.466  0.00  0.00    +0.251 A 
ATOM      9  O   UNL     1      -2.571  -0.533  -0.368  0.00  0.00    -0.268 OA
ATOM     10  N   UNL     1      -2.258   1.653  -0.485  0.00  0.00    -0.322 N 
ATOM     11  H   UNL     1      -3.214   1.806  -0.424  0.00  0.00    +0.169 HD
ATOM     12  C   UNL     1      -1.402   2.728  -0.594  0.00  0.00    +0.049 A 
ATOM     13  C   UNL     1      -1.890   4.031  -0.614  0.00  0.00    +0.030 A 
ATOM     14  C   UNL     1      -1.012   5.088  -0.726  0.00  0.00    -0.046 A 
ATOM     15  C   UNL     1      -1.542   6.498  -0.747  0.00  0.00    +0.044 C 
ENDBRANCH   1   7
BRANCH   1  16
ATOM     16  C   UNL     1      -0.257  -1.929   0.800  0.00  0.00    +0.143 A 
ATOM     17  N   UNL     1      -1.388  -2.501   1.133  0.00  0.00    -0.115 NA
ATOM     18  N   UNL     1      -1.286  -2.907   2.352  0.00  0.00    -0.023 NA
ATOM     19  N   UNL     1      -0.118  -2.608   2.805  0.00  0.00    -0.044 NA
ATOM     20  N   UNL     1       0.548  -2.009   1.876  0.00  0.00    -0.227 N 
BRANCH  20  21
ATOM     21  C   UNL     1       1.920  -1.507   1.976  0.00  0.00    +0.111 C 
ATOM     22  C   UNL     1       2.882  -2.662   2.322  0.00  0.00    +0.027 C 
ATOM     23  C   UNL     1       3.917  -2.020   3.279  0.00  0.00    +0.002 C 
ATOM     24  C   UNL     1       3.049  -1.057   4.127  0.00  0.00    +0.002 C 
ATOM     25  C   UNL     1       2.027  -0.486   3.122  0.00  0.00    +0.027 C 
ENDBRANCH  20  21
ENDBRANCH   1  16
BRANCH   1  26
ATOM     26  N   UNL     1      -0.602  -2.072  -1.597  0.00  0.00    +0.395 N 
ATOM     27  H   UNL     1      -1.575  -2.241  -1.316  0.00  0.00    -0.079 HD
BRANCH  26  28
ATOM     28  C   UNL     1       0.072  -3.372  -1.798  0.00  0.00    -0.041 C 
BRANCH  28  29
ATOM     29  C   UNL     1      -0.388  -4.324  -0.724  0.00  0.00    -0.064 A 
ATOM     30  C   UNL     1       0.396  -4.537   0.394  0.00  0.00    +0.002 A 
ATOM     31  C   UNL     1      -0.028  -5.407   1.381  0.00  0.00    +0.000 A 
ATOM     32  C   UNL     1      -1.233  -6.072   1.244  0.00  0.00    +0.000 A 
ATOM     33  C   UNL     1      -2.014  -5.863   0.124  0.00  0.00    +0.000 A 
ATOM     34  C   UNL     1      -1.593  -4.989  -0.861  0.00  0.00    +0.002 A 
ENDBRANCH  28  29
ENDBRANCH  26  28
BRANCH  26  35
ATOM     35  C   UNL     1      -0.594  -1.299  -2.857  0.00  0.00    -0.040 C 
BRANCH  35  36
ATOM     36  C   UNL     1      -1.517  -1.967  -3.843  0.00  0.00    -0.046 A 
ATOM     37  C   UNL     1      -1.011  -2.826  -4.807  0.00  0.00    +0.005 A 
ATOM     38  C   UNL     1      -1.898  -3.422  -5.690  0.00  0.00    +0.020 A 
ATOM     39  C   UNL     1      -3.246  -3.135  -5.587  0.00  0.00    +0.111 A 
ATOM     40  N   UNL     1      -3.691  -2.309  -4.661  0.00  0.00    -0.263 NA
ATOM     41  C   UNL     1      -2.877  -1.728  -3.801  0.00  0.00    +0.112 A 
ENDBRANCH  35  36
ENDBRANCH  26  35
ENDBRANCH   1  26
TORSDOF 8
