REMARK  Name = ZINC12390837
REMARK  10 active torsions:
REMARK  status: ('A' for Active; 'I' for Inactive)
REMARK    1  A    between atoms: C_1  and  C_2
REMARK    2  A    between atoms: C_5  and  C_20
REMARK    3  A    between atoms: C_6  and  O_19
REMARK    4  A    between atoms: C_7  and  C_18
REMARK    5  A    between atoms: C_12  and  C_13
REMARK    6  A    between atoms: C_13  and  C_14
REMARK    7  A    between atoms: C_14  and  O_16
REMARK    8  A    between atoms: O_16  and  C_17
REMARK    9  A    between atoms: C_20  and  N_53
REMARK   10  A    between atoms: C_21  and  N_53
REMARK                            x       y       z     vdW  Elec       q    Type
REMARK                         _______ _______ _______ _____ _____    ______ ____
ROOT
ATOM      1  C   UNL     1      -2.412   0.964   2.512  0.00  0.00    +0.045 C 
ATOM      2  C   UNL     1      -2.967   0.489   1.194  0.00  0.00    -0.029 A 
ATOM      3  C   UNL     1      -4.067  -0.476   1.146  0.00  0.00    +0.021 A 
ATOM      4  C   UNL     1      -4.633  -0.984   2.321  0.00  0.00    +0.017 A 
ATOM      5  C   UNL     1      -5.658  -1.883   2.247  0.00  0.00    -0.022 A 
ATOM      6  C   UNL     1      -6.145  -2.298   1.009  0.00  0.00    +0.125 A 
ATOM      7  C   UNL     1      -5.597  -1.805  -0.164  0.00  0.00    +0.034 A 
ATOM      8  C   UNL     1      -4.555  -0.892  -0.107  0.00  0.00    +0.146 A 
ATOM      9  O   UNL     1      -4.007  -0.399  -1.239  0.00  0.00    -0.422 OA
ATOM     10  C   UNL     1      -3.002   0.489  -1.201  0.00  0.00    +0.341 A 
ATOM     11  O   UNL     1      -2.543   0.910  -2.248  0.00  0.00    -0.245 OA
ATOM     12  C   UNL     1      -2.462   0.945   0.019  0.00  0.00    +0.051 A 
ATOM     13  C   UNL     1      -6.132  -2.261  -1.497  0.00  0.00    +0.051 C 
ENDROOT
BRANCH   6  14
ATOM     14  O   UNL     1      -7.165  -3.191   0.953  0.00  0.00    -0.506 OA
ATOM     15  H   UNL     1      -8.043  -2.786   0.943  0.00  0.00    +0.292 HD
ENDBRANCH   6  14
BRANCH  12  16
ATOM     16  C   UNL     1      -1.329   1.940   0.019  0.00  0.00    +0.163 C 
BRANCH  16  17
ATOM     17  C   UNL     1      -0.014   1.204   0.009  0.00  0.00    +0.311 C 
ATOM     18  O   UNL     1       0.002  -0.004   0.002  0.00  0.00    -0.250 OA
BRANCH  17  19
ATOM     19  O   UNL     1       1.139   1.891   0.001  0.00  0.00    -0.468 OA
ATOM     20  C   UNL     1       2.367   1.117  -0.015  0.00  0.00    +0.280 C 
ENDBRANCH  17  19
ENDBRANCH  16  17
ENDBRANCH  12  16
BRANCH   5  21
ATOM     21  C   UNL     1      -6.267  -2.429   3.513  0.00  0.00    -0.043 C 
BRANCH  21  22
ATOM     22  N   UNL     1      -5.710  -3.769   3.778  0.00  0.00    +0.384 N 
ATOM     23  H   UNL     1      -4.691  -3.698   3.883  0.00  0.00    -0.085 HD
ATOM     24  H   UNL     1      -5.930  -4.389   2.989  0.00  0.00    -0.085 HD
BRANCH  22  25
ATOM     25  C   UNL     1      -6.290  -4.330   5.013  0.00  0.00    -0.071 C 
ATOM     26  C   UNL     1      -5.496  -3.830   6.222  0.00  0.00    -0.016 C 
ATOM     27  C   UNL     1      -6.092  -4.418   7.502  0.00  0.00    -0.002 C 
ATOM     28  C   UNL     1      -6.022  -5.946   7.442  0.00  0.00    -0.000 C 
ATOM     29  C   UNL     1      -6.816  -6.445   6.233  0.00  0.00    -0.002 C 
ATOM     30  C   UNL     1      -6.220  -5.857   4.953  0.00  0.00    -0.016 C 
ENDBRANCH  22  25
ENDBRANCH  21  22
ENDBRANCH   5  21
TORSDOF 7
