REMARK  Name = ZINC26973899
REMARK  6 active torsions:
REMARK  status: ('A' for Active; 'I' for Inactive)
REMARK    1  A    between atoms: C_1  and  C_2
REMARK    2  A    between atoms: C_2  and  C_4
REMARK    3  A    between atoms: C_2  and  O_21
REMARK    4  A    between atoms: N_6  and  N_7
REMARK    5  A    between atoms: C_8  and  C_10
REMARK    6  A    between atoms: O_21  and  C_22
REMARK                            x       y       z     vdW  Elec       q    Type
REMARK                         _______ _______ _______ _____ _____    ______ ____
ROOT
ATOM      1  C   UNL     1       3.331  -5.037   0.079  0.00  0.00    +0.270 C 
ATOM      2  O   UNL     1       4.361  -4.594   0.541  0.00  0.00    -0.270 OA
ATOM      3  N   UNL     1       2.339  -4.199  -0.283  0.00  0.00    -0.231 N 
ATOM      4  H   UNL     1       1.405  -4.601  -0.702  0.00  0.00    +0.173 HD
ENDROOT
BRANCH   3   5
ATOM      5  N   UNL     1       2.499  -2.816  -0.127  0.00  0.00    -0.231 N 
ATOM      6  C   UNL     1       1.508  -1.978  -0.489  0.00  0.00    +0.273 C 
ATOM      7  O   UNL     1       0.478  -2.421  -0.951  0.00  0.00    -0.270 OA
ATOM      8  H   UNL     1       3.434  -2.414   0.292  0.00  0.00    +0.173 HD
BRANCH   6   9
ATOM      9  C   UNL     1       1.680  -0.490  -0.321  0.00  0.00    +0.297 C 
ATOM     10  C   UNL     1       2.784   0.013  -1.261  0.00  0.00    +0.283 C 
ATOM     11  O   UNL     1       2.911   1.429  -1.084  0.00  0.00    -0.484 OA
ATOM     12  C   UNL     1       1.756   2.149  -1.063  0.00  0.00    +0.162 A 
ATOM     13  C   UNL     1       1.806   3.521  -1.255  0.00  0.00    +0.049 A 
ATOM     14  C   UNL     1       0.642   4.266  -1.233  0.00  0.00    +0.004 A 
ATOM     15  C   UNL     1      -0.574   3.646  -1.018  0.00  0.00    +0.004 A 
ATOM     16  C   UNL     1      -0.632   2.278  -0.832  0.00  0.00    +0.049 A 
ATOM     17  C   UNL     1       0.533   1.524  -0.850  0.00  0.00    +0.163 A 
ATOM     18  O   UNL     1       0.461   0.178  -0.662  0.00  0.00    -0.472 OA
ENDBRANCH   6   9
ENDBRANCH   3   5
BRANCH   1  20
ATOM     19  C   UNL     1       3.048  -6.861  -1.578  0.00  0.00    +0.062 C 
ATOM     20  C   UNL     1       3.159  -6.525  -0.089  0.00  0.00    +0.257 C 
BRANCH  20  21
ATOM     21  O   UNL     1       4.287  -7.201   0.469  0.00  0.00    -0.480 OA
BRANCH  21  22
ATOM     22  C   UNL     1       4.099  -8.485   0.874  0.00  0.00    +0.122 A 
ATOM     23  C   UNL     1       2.886  -9.116   0.642  0.00  0.00    +0.047 A 
ATOM     24  C   UNL     1       2.699 -10.422   1.050  0.00  0.00    +0.019 A 
ATOM     25  C   UNL     1       3.716 -11.098   1.699  0.00  0.00    +0.018 A 
ATOM     26  C   UNL     1       4.925 -10.468   1.937  0.00  0.00    +0.019 A 
ATOM     27  C   UNL     1       5.118  -9.164   1.526  0.00  0.00    +0.047 A 
ATOM     28 BR   UNL     1       3.455 -12.884   2.262  0.00  0.00    -0.050 Br
ENDBRANCH  21  22
ENDBRANCH  20  21
ENDBRANCH   1  20
TORSDOF 5
