REMARK  Name = ZINC59680394
REMARK  10 active torsions:
REMARK  status: ('A' for Active; 'I' for Inactive)
REMARK    1  A    between atoms: C_1  and  C_2
REMARK    2  A    between atoms: C_5  and  C_34
REMARK    3  A    between atoms: N_6  and  C_7
REMARK    4  A    between atoms: C_10  and  C_13
REMARK    5  A    between atoms: N_15  and  N_16
REMARK    6  A    between atoms: C_17  and  C_18
REMARK    7  A    between atoms: C_20  and  C_33
REMARK    8  A    between atoms: N_21  and  C_24
REMARK    9  A    between atoms: C_22  and  C_23
REMARK   10  A    between atoms: C_28  and  N_30
REMARK                            x       y       z     vdW  Elec       q    Type
REMARK                         _______ _______ _______ _____ _____    ______ ____
ROOT
ATOM      1  C   UNL     1      -0.649   1.156   6.363  0.00  0.00    +0.263 C 
ATOM      2  O   UNL     1       0.290   1.098   7.134  0.00  0.00    -0.268 OA
ATOM      3  N   UNL     1      -1.822   1.681   6.770  0.00  0.00    -0.203 N 
ATOM      4  H   UNL     1      -2.571   1.727   6.155  0.00  0.00    +0.178 HD
ENDROOT
BRANCH   1   8
ATOM      5  C   UNL     1      -0.233  -0.296   2.394  0.00  0.00    +0.047 A 
ATOM      6  C   UNL     1       0.842  -0.362   3.273  0.00  0.00    +0.027 A 
ATOM      7  C   UNL     1       0.711   0.107   4.561  0.00  0.00    +0.015 A 
ATOM      8  C   UNL     1      -0.504   0.652   4.984  0.00  0.00    +0.038 A 
ATOM      9  C   UNL     1      -1.583   0.717   4.097  0.00  0.00    +0.015 A 
ATOM     10  C   UNL     1      -1.443   0.250   2.810  0.00  0.00    +0.027 A 
BRANCH   5  16
ATOM     11  C   UNL     1      -0.260   1.487  -0.098  0.00  0.00    +0.064 C 
ATOM     12  C   UNL     1      -0.104  -0.011  -0.045  0.00  0.00    +0.021 A 
ATOM     13  C   UNL     1       0.059  -0.826  -1.110  0.00  0.00    +0.023 A 
ATOM     14  C   UNL     1       0.167  -2.142  -0.630  0.00  0.00    +0.028 A 
ATOM     15  C   UNL     1       0.065  -2.090   0.727  0.00  0.00    +0.054 A 
ATOM     16  N   UNL     1      -0.097  -0.774   1.088  0.00  0.00    -0.313 N 
BRANCH  15  17
ATOM     17  C   UNL     1       0.123  -3.244   1.649  0.00  0.00    -0.001 A 
ATOM     18  C   UNL     1      -0.388  -3.134   2.943  0.00  0.00    +0.010 A 
ATOM     19  C   UNL     1      -0.331  -4.214   3.799  0.00  0.00    +0.001 A 
ATOM     20  C   UNL     1       0.232  -5.406   3.377  0.00  0.00    +0.000 A 
ATOM     21  C   UNL     1       0.741  -5.522   2.095  0.00  0.00    +0.001 A 
ATOM     22  C   UNL     1       0.684  -4.450   1.228  0.00  0.00    +0.010 A 
ENDBRANCH  15  17
ENDBRANCH   5  16
ENDBRANCH   1   8
BRANCH   3  23
ATOM     23  N   UNL     1      -1.959   2.159   8.079  0.00  0.00    -0.187 NA
ATOM     24  C   UNL     1      -3.089   2.665   8.470  0.00  0.00    +0.140 C 
BRANCH  24  25
ATOM     25  C   UNL     1      -3.234   3.168   9.848  0.00  0.00    +0.016 A 
ATOM     26  C   UNL     1      -4.434   3.759  10.447  0.00  0.00    +0.032 A 
ATOM     27  C   UNL     1      -4.115   4.074  11.716  0.00  0.00    +0.022 A 
ATOM     28  N   UNL     1      -2.815   3.725  11.945  0.00  0.00    -0.317 N 
ATOM     29  C   UNL     1      -2.278   3.172  10.823  0.00  0.00    +0.030 A 
ATOM     30  C   UNL     1      -0.869   2.656  10.681  0.00  0.00    +0.064 C 
ATOM     31  C   UNL     1      -5.042   4.710  12.721  0.00  0.00    +0.064 C 
BRANCH  28  32
ATOM     32  C   UNL     1      -2.136   3.904  13.158  0.00  0.00    +0.049 A 
ATOM     33  C   UNL     1      -1.062   4.781  13.230  0.00  0.00    +0.026 A 
ATOM     34  C   UNL     1      -0.395   4.955  14.427  0.00  0.00    +0.004 A 
ATOM     35  C   UNL     1      -0.795   4.257  15.552  0.00  0.00    +0.033 A 
ATOM     36  C   UNL     1      -1.864   3.383  15.482  0.00  0.00    +0.128 A 
ATOM     37  C   UNL     1      -2.539   3.209  14.290  0.00  0.00    +0.058 A 
BRANCH  36  38
ATOM     38  N   UNL     1      -2.289   2.637  16.688  0.00  0.00    +0.056 N 
ATOM     39  O   UNL     1      -1.701   2.793  17.733  0.00  0.00    -0.126 OA
ATOM     40  O   UNL     1      -3.224   1.873  16.628  0.00  0.00    -0.126 OA
ENDBRANCH  36  38
ENDBRANCH  28  32
ENDBRANCH  24  25
ENDBRANCH   3  23
TORSDOF 7
