REMARK  Name = ZINC09783748
REMARK  4 active torsions:
REMARK  status: ('A' for Active; 'I' for Inactive)
REMARK    1  A    between atoms: C_10  and  C_13
REMARK    2  A    between atoms: C_16  and  C_18
REMARK    3  A    between atoms: C_21  and  S_24
REMARK    4  A    between atoms: S_24  and  N_27
REMARK                            x       y       z     vdW  Elec       q    Type
REMARK                         _______ _______ _______ _____ _____    ______ ____
ROOT
ATOM      1  C   UNL     1      -2.484   5.004  -2.092  0.00  0.00    +0.144 A 
ATOM      2  C   UNL     1      -1.979   5.870  -2.992  0.00  0.00    +0.049 A 
ATOM      3  C   UNL     1      -2.223   5.326  -4.269  0.00  0.00    +0.050 A 
ATOM      4  C   UNL     1      -2.876   4.150  -4.076  0.00  0.00    +0.135 A 
ATOM      5  O   UNL     1      -3.027   3.967  -2.750  0.00  0.00    -0.456 OA
ENDROOT
BRANCH   1  15
ATOM      6  C   UNL     1       1.182   1.779   0.000  0.00  0.00    +0.001 A 
ATOM      7  C   UNL     1      -0.013   1.076   0.008  0.00  0.00    +0.002 A 
ATOM      8  C   UNL     1      -1.222   1.744   0.017  0.00  0.00    +0.024 A 
ATOM      9  C   UNL     1      -1.239   3.128   0.030  0.00  0.00    +0.041 A 
ATOM     10  C   UNL     1      -0.029   3.845   0.025  0.00  0.00    +0.058 A 
ATOM     11  C   UNL     1       1.182   3.159   0.009  0.00  0.00    +0.015 A 
ATOM     12  C   UNL     1      -0.086   5.318   0.039  0.00  0.00    +0.248 C 
ATOM     13  O   UNL     1       0.911   5.970   0.283  0.00  0.00    -0.270 OA
ATOM     14  N   UNL     1      -1.258   5.935  -0.221  0.00  0.00    -0.287 N 
ATOM     15  C   UNL     1      -2.449   5.173  -0.595  0.00  0.00    +0.226 C 
ATOM     16  N   UNL     1      -2.427   3.850   0.040  0.00  0.00    -0.319 N 
ATOM     17  H   UNL     1      -1.311   6.902  -0.159  0.00  0.00    +0.151 HD
ATOM     18  H   UNL     1      -3.224   3.487   0.458  0.00  0.00    +0.148 HD
ENDBRANCH   1  15
BRANCH   4  19
ATOM     19  C   UNL     1      -3.341   3.231  -5.136  0.00  0.00    +0.017 A 
ATOM     20  C   UNL     1      -3.124   3.544  -6.479  0.00  0.00    +0.013 A 
ATOM     21  C   UNL     1      -3.556   2.680  -7.464  0.00  0.00    +0.029 A 
ATOM     22  C   UNL     1      -4.212   1.510  -7.123  0.00  0.00    +0.106 A 
ATOM     23  C   UNL     1      -4.434   1.197  -5.795  0.00  0.00    +0.029 A 
ATOM     24  C   UNL     1      -4.003   2.050  -4.800  0.00  0.00    +0.013 A 
BRANCH  22  25
ATOM     25  S   UNL     1      -4.766   0.416  -8.388  0.00  0.00    +0.061 S 
ATOM     26  O   UNL     1      -3.956   0.668  -9.528  0.00  0.00    -0.153 OA
ATOM     27  O   UNL     1      -4.868  -0.872  -7.795  0.00  0.00    -0.153 OA
BRANCH  25  28
ATOM     28  N   UNL     1      -6.306   0.874  -8.791  0.00  0.00    -0.172 NA
ATOM     29  C   UNL     1      -7.472   0.299  -8.102  0.00  0.00    +0.137 C 
ATOM     30  C   UNL     1      -8.371   1.455  -7.636  0.00  0.00    +0.177 C 
ATOM     31  O   UNL     1      -8.649   2.311  -8.748  0.00  0.00    -0.377 OA
ATOM     32  C   UNL     1      -7.492   2.939  -9.306  0.00  0.00    +0.177 C 
ATOM     33  C   UNL     1      -6.548   1.863  -9.854  0.00  0.00    +0.137 C 
ENDBRANCH  25  28
ENDBRANCH  22  25
ENDBRANCH   4  19
TORSDOF 4
