REMARK  Name = ZINC10025026
REMARK  9 active torsions:
REMARK  status: ('A' for Active; 'I' for Inactive)
REMARK    1  A    between atoms: C_1  and  C_2
REMARK    2  A    between atoms: C_2  and  C_3
REMARK    3  A    between atoms: C_2  and  C_4
REMARK    4  A    between atoms: C_4  and  C_6
REMARK    5  A    between atoms: C_4  and  N_17
REMARK    6  A    between atoms: N_8  and  C_9
REMARK    7  A    between atoms: C_9  and  C_16
REMARK    8  A    between atoms: N_17  and  C_18
REMARK    9  A    between atoms: C_21  and  C_25
REMARK                            x       y       z     vdW  Elec       q    Type
REMARK                         _______ _______ _______ _____ _____    ______ ____
ROOT
ATOM      1  C   UNL     1      -3.833   3.013  -0.034  0.00  0.00    +0.159 C 
ENDROOT
BRANCH   1   2
ATOM      2  C   UNL     1      -4.735   3.894   0.790  0.00  0.00    +0.234 C 
ATOM      3  O   UNL     1      -4.276   4.846   1.385  0.00  0.00    -0.274 OA
ATOM      4  N   UNL     1      -6.054   3.625   0.866  0.00  0.00    -0.307 N 
ATOM      5  H   UNL     1      -6.410   2.824   0.452  0.00  0.00    +0.149 HD
BRANCH   4   6
ATOM      6  C   UNL     1      -6.949   4.543   1.575  0.00  0.00    +0.053 C 
ATOM      7  C   UNL     1      -6.803   5.937   0.967  0.00  0.00    +0.049 C 
ATOM      8  C   UNL     1      -7.819   6.127  -0.194  0.00  0.00    +0.168 C 
ATOM      9  S   UNL     1      -9.284   5.272   0.536  0.00  0.00    -0.029 S 
ATOM     10  O   UNL     1     -10.024   4.644  -0.502  0.00  0.00    -0.174 OA
ATOM     11  O   UNL     1      -9.943   6.155   1.433  0.00  0.00    -0.174 OA
ATOM     12  C   UNL     1      -8.385   3.987   1.501  0.00  0.00    +0.191 C 
ATOM     13  C   UNL     1      -6.523   4.605   3.043  0.00  0.00    +0.033 C 
ENDBRANCH   4   6
ENDBRANCH   1   2
BRANCH   1  15
ATOM     14  C   UNL     1      -3.530   4.782  -1.772  0.00  0.00    +0.009 C 
ATOM     15  C   UNL     1      -4.005   3.350  -1.516  0.00  0.00    +0.012 C 
ATOM     16  C   UNL     1      -3.177   2.379  -2.360  0.00  0.00    +0.009 C 
ENDBRANCH   1  15
BRANCH   1  17
ATOM     17  N   UNL     1      -2.439   3.238   0.359  0.00  0.00    -0.332 N 
ATOM     18  H   UNL     1      -2.128   4.136   0.551  0.00  0.00    +0.147 HD
BRANCH  17  19
ATOM     19  C   UNL     1      -1.558   2.157   0.457  0.00  0.00    +0.046 A 
ATOM     20  C   UNL     1      -1.975   0.884   0.092  0.00  0.00    +0.025 A 
ATOM     21  C   UNL     1      -1.103  -0.182   0.195  0.00  0.00    +0.014 A 
ATOM     22  C   UNL     1       0.187   0.018   0.651  0.00  0.00    +0.056 A 
ATOM     23  C   UNL     1       0.608   1.285   1.010  0.00  0.00    +0.034 A 
ATOM     24  C   UNL     1      -0.261   2.356   0.914  0.00  0.00    +0.062 A 
ATOM     25 CL   UNL     1       0.268   3.947   1.365  0.00  0.00    -0.082 Cl
BRANCH  22  26
ATOM     26  C   UNL     1       1.137  -1.147   0.756  0.00  0.00    +0.417 C 
ATOM     27  F   UNL     1       1.834  -1.291  -0.449  0.00  0.00    -0.166 F 
ATOM     28  F   UNL     1       2.045  -0.917   1.795  0.00  0.00    -0.166 F 
ATOM     29  F   UNL     1       0.414  -2.316   1.019  0.00  0.00    -0.166 F 
ENDBRANCH  22  26
ENDBRANCH  17  19
ENDBRANCH   1  17
TORSDOF 6
