REMARK  Name = ZINC63478526
REMARK  6 active torsions:
REMARK  status: ('A' for Active; 'I' for Inactive)
REMARK    1  A    between atoms: C_1  and  C_2
REMARK    2  A    between atoms: C_2  and  C_3
REMARK    3  A    between atoms: C_2  and  C_4
REMARK    4  A    between atoms: C_2  and  N_5
REMARK    5  A    between atoms: C_10  and  C_28
REMARK    6  A    between atoms: C_28  and  C_29
REMARK                            x       y       z     vdW  Elec       q    Type
REMARK                         _______ _______ _______ _____ _____    ______ ____
ROOT
ATOM      1  N   UNL     1       0.688  -0.476  -1.203  0.00  0.00    -0.236 N 
ATOM      2  C   UNL     1       0.091  -1.247  -2.120  0.00  0.00    +0.228 C 
ATOM      3  O   UNL     1      -1.054  -1.640  -2.067  0.00  0.00    -0.275 OA
ATOM      4  C   UNL     1       1.067  -1.549  -3.234  0.00  0.00    +0.107 C 
ATOM      5  C   UNL     1       1.414  -3.053  -3.215  0.00  0.00    +0.072 C 
ATOM      6  N   UNL     1       2.546  -3.171  -2.258  0.00  0.00    -0.295 NA
ATOM      7  C   UNL     1       3.363  -1.970  -2.513  0.00  0.00    +0.136 C 
ATOM      8  C   UNL     1       2.363  -0.818  -2.784  0.00  0.00    +0.122 C 
ATOM      9  C   UNL     1       1.960  -0.168  -1.480  0.00  0.00    +0.229 C 
ATOM     10  O   UNL     1       2.679   0.522  -0.790  0.00  0.00    -0.275 OA
ATOM     11  C   UNL     1       4.263  -1.659  -1.352  0.00  0.00    +0.006 A 
ATOM     12  C   UNL     1       4.033  -1.378  -0.023  0.00  0.00    +0.046 A 
ATOM     13  C   UNL     1       5.098  -1.127   0.826  0.00  0.00    +0.124 A 
ATOM     14  C   UNL     1       6.393  -1.161   0.335  0.00  0.00    +0.040 A 
ATOM     15  C   UNL     1       6.626  -1.442  -0.995  0.00  0.00    +0.026 A 
ATOM     16  C   UNL     1       5.560  -1.694  -1.855  0.00  0.00    +0.039 A 
ATOM     17  N   UNL     1       5.540  -1.996  -3.220  0.00  0.00    -0.283 N 
ATOM     18  C   UNL     1       4.287  -2.173  -3.683  0.00  0.00    +0.243 C 
ATOM     19  O   UNL     1       3.967  -2.443  -4.821  0.00  0.00    -0.273 OA
ATOM     20  F   UNL     1       4.875  -0.851   2.130  0.00  0.00    -0.205 F 
ATOM     21  H   UNL     1       2.214  -3.187  -1.305  0.00  0.00    +0.124 HD
ATOM     22  H   UNL     1       6.336  -2.070  -3.770  0.00  0.00    +0.155 HD
ENDROOT
BRANCH   1  24
ATOM     23  C   UNL     1      -0.019   1.526   0.010  0.00  0.00    +0.031 C 
ATOM     24  C   UNL     1       0.002  -0.004   0.002  0.00  0.00    +0.036 C 
ATOM     25  C   UNL     1       0.742  -0.511   1.242  0.00  0.00    +0.031 C 
ATOM     26  C   UNL     1      -1.433  -0.534   0.013  0.00  0.00    +0.031 C 
ENDBRANCH   1  24
BRANCH   5  27
ATOM     27  C   UNL     1       0.216  -3.870  -2.728  0.00  0.00    +0.052 C 
BRANCH  27  28
ATOM     28  C   UNL     1       0.533  -5.339  -2.833  0.00  0.00    -0.040 C 
ATOM     29  C   UNL     1       1.011  -6.140  -1.853  0.00  0.00    -0.001 A 
ATOM     30  C   UNL     1       1.365  -5.892  -0.450  0.00  0.00    +0.010 A 
ATOM     31  C   UNL     1       1.829  -6.917   0.300  0.00  0.00    +0.001 A 
ATOM     32  C   UNL     1       1.980  -8.207  -0.227  0.00  0.00    +0.002 A 
ATOM     33  C   UNL     1       1.676  -8.512  -1.506  0.00  0.00    +0.026 A 
ATOM     34  C   UNL     1       1.179  -7.511  -2.385  0.00  0.00    +0.043 A 
ATOM     35  N   UNL     1       0.820  -7.556  -3.645  0.00  0.00    -0.380 N 
ATOM     36  C   UNL     1       0.376  -6.218  -4.053  0.00  0.00    +0.144 C 
ATOM     37  H   UNL     1       0.840  -8.343  -4.212  0.00  0.00    +0.160 HD
ENDBRANCH  27  28
ENDBRANCH   5  27
TORSDOF 3
