REMARK  Name = ZINC15594125
REMARK  5 active torsions:
REMARK  status: ('A' for Active; 'I' for Inactive)
REMARK    1  A    between atoms: C_1  and  C_2
REMARK    2  A    between atoms: C_2  and  C_4
REMARK    3  A    between atoms: C_2  and  N_31
REMARK    4  A    between atoms: C_13  and  C_14
REMARK    5  A    between atoms: C_13  and  N_31
REMARK                            x       y       z     vdW  Elec       q    Type
REMARK                         _______ _______ _______ _____ _____    ______ ____
ROOT
ATOM      1  C   UNL     1      -4.043   3.122  -1.272  0.00  0.00    -0.006 C 
ATOM      2  C   UNL     1      -2.751   3.933  -1.387  0.00  0.00    -0.005 C 
ENDROOT
BRANCH   2   3
ATOM      3  C   UNL     1      -2.753   4.701  -2.684  0.00  0.00    +0.123 A 
ATOM      4  N   UNL     1      -2.548   4.205  -3.877  0.00  0.00    -0.135 NA
ATOM      5  N   UNL     1      -2.620   5.134  -4.764  0.00  0.00    -0.129 NA
ATOM      6  C   UNL     1      -2.879   6.289  -4.174  0.00  0.00    +0.161 A 
ATOM      7  N   UNL     1      -2.976   6.036  -2.828  0.00  0.00    -0.288 N 
ATOM      8  C   UNL     1      -3.234   7.048  -1.951  0.00  0.00    +0.094 A 
ATOM      9  C   UNL     1      -3.409   8.310  -2.393  0.00  0.00    +0.018 A 
ATOM     10  C   UNL     1      -3.321   8.601  -3.766  0.00  0.00    +0.005 A 
ATOM     11  C   UNL     1      -3.059   7.602  -4.652  0.00  0.00    +0.048 A 
ENDBRANCH   2   3
BRANCH   2  12
ATOM     12  N   UNL     1      -1.593   3.020  -1.367  0.00  0.00    +0.388 N 
ATOM     13  H   UNL     1      -0.802   3.465  -1.849  0.00  0.00    -0.084 HD
ATOM     14  H   UNL     1      -1.840   2.148  -1.850  0.00  0.00    -0.084 HD
BRANCH  12  15
ATOM     15  C   UNL     1      -1.206   2.714   0.023  0.00  0.00    -0.038 C 
BRANCH  15  16
ATOM     16  C   UNL     1      -0.022   1.781   0.012  0.00  0.00    -0.026 A 
ATOM     17  C   UNL     1       1.300   2.080   0.001  0.00  0.00    +0.024 A 
ATOM     18  C   UNL     1       2.220   1.048  -0.013  0.00  0.00    +0.025 A 
ATOM     19  C   UNL     1       1.773  -0.232  -0.016  0.00  0.00    +0.060 A 
ATOM     20  S   UNL     1       0.002  -0.004   0.002  0.00  0.00    -0.102 S 
ATOM     21 BR   UNL     1       4.075   1.416  -0.029  0.00  0.00    -0.050 Br
ENDBRANCH  15  16
ENDBRANCH  12  15
ENDBRANCH   2  12
TORSDOF 4
