REMARK  Name = ZINC63515547
REMARK  10 active torsions:
REMARK  status: ('A' for Active; 'I' for Inactive)
REMARK    1  A    between atoms: C_1  and  C_2
REMARK    2  A    between atoms: C_4  and  O_28
REMARK    3  A    between atoms: C_5  and  S_10
REMARK    4  A    between atoms: C_6  and  C_9
REMARK    5  A    between atoms: S_10  and  N_13
REMARK    6  A    between atoms: N_13  and  C_14
REMARK    7  A    between atoms: C_14  and  C_15
REMARK    8  A    between atoms: C_15  and  C_16
REMARK    9  A    between atoms: C_24  and  C_26
REMARK   10  A    between atoms: O_28  and  C_29
REMARK                            x       y       z     vdW  Elec       q    Type
REMARK                         _______ _______ _______ _____ _____    ______ ____
ROOT
ATOM      1  N   UNL     1       0.629  -4.576  -0.066  0.00  0.00    -0.190 NA
ATOM      2  H   UNL     1       1.300  -4.914  -0.680  0.00  0.00    +0.148 HD
ENDROOT
BRANCH   1   3
ATOM      3  S   UNL     1      -0.837  -4.063  -0.641  0.00  0.00    +0.062 S 
ATOM      4  O   UNL     1      -1.830  -4.717   0.137  0.00  0.00    -0.153 OA
ATOM      5  O   UNL     1      -0.780  -4.176  -2.056  0.00  0.00    -0.153 OA
BRANCH   3  10
ATOM      6  C   UNL     1      -1.274   1.830   0.599  0.00  0.00    +0.045 C 
ATOM      7  C   UNL     1      -1.167   0.359   0.292  0.00  0.00    -0.028 A 
ATOM      8  C   UNL     1      -1.756  -0.567   1.131  0.00  0.00    +0.052 A 
ATOM      9  C   UNL     1      -1.656  -1.921   0.848  0.00  0.00    +0.147 A 
ATOM     10  C   UNL     1      -0.965  -2.343  -0.278  0.00  0.00    +0.151 A 
ATOM     11  C   UNL     1      -0.378  -1.415  -1.115  0.00  0.00    -0.002 A 
ATOM     12  C   UNL     1      -0.482  -0.064  -0.834  0.00  0.00    +0.049 A 
ATOM     13 CL   UNL     1       0.251   1.101  -1.891  0.00  0.00    -0.083 Cl
ATOM     14  C   UNL     1       0.373  -1.873  -2.339  0.00  0.00    +0.047 C 
BRANCH   9  15
ATOM     15  O   UNL     1      -2.235  -2.833   1.673  0.00  0.00    -0.493 OA
ATOM     16  C   UNL     1      -2.930  -2.326   2.814  0.00  0.00    +0.277 C 
ENDBRANCH   9  15
ENDBRANCH   3  10
ENDBRANCH   1   3
BRANCH   1  17
ATOM     17  C   UNL     1       0.912  -4.521   1.371  0.00  0.00    +0.110 C 
BRANCH  17  18
ATOM     18  C   UNL     1       2.420  -4.642   1.598  0.00  0.00    +0.050 C 
BRANCH  18  19
ATOM     19  C   UNL     1       2.714  -4.568   3.074  0.00  0.00    -0.037 C 
ATOM     20  C   UNL     1       1.817  -4.405   4.074  0.00  0.00    +0.001 A 
ATOM     21  C   UNL     1       0.358  -4.254   4.089  0.00  0.00    +0.010 A 
ATOM     22  C   UNL     1      -0.284  -4.104   5.268  0.00  0.00    +0.002 A 
ATOM     23  C   UNL     1       0.393  -4.087   6.494  0.00  0.00    +0.022 A 
ATOM     24  C   UNL     1       1.735  -4.218   6.588  0.00  0.00    +0.064 A 
ATOM     25  C   UNL     1       2.535  -4.387   5.369  0.00  0.00    +0.062 A 
ATOM     26  N   UNL     1       3.822  -4.533   5.178  0.00  0.00    -0.377 N 
ATOM     27  C   UNL     1       4.069  -4.667   3.738  0.00  0.00    +0.103 C 
ATOM     28  C   UNL     1       4.977  -3.534   3.255  0.00  0.00    +0.035 C 
ATOM     29 CL   UNL     1       2.509  -4.187   8.141  0.00  0.00    -0.081 Cl
ATOM     30  H   UNL     1       4.499  -4.553   5.873  0.00  0.00    +0.160 HD
ENDBRANCH  18  19
ENDBRANCH  17  18
ENDBRANCH   1  17
TORSDOF 6
