REMARK  Name = ZINC08845601
REMARK  9 active torsions:
REMARK  status: ('A' for Active; 'I' for Inactive)
REMARK    1  A    between atoms: C_1  and  C_2
REMARK    2  A    between atoms: C_4  and  O_36
REMARK    3  A    between atoms: C_5  and  C_9
REMARK    4  A    between atoms: N_17  and  C_29
REMARK    5  A    between atoms: C_18  and  C_20
REMARK    6  A    between atoms: C_23  and  O_28
REMARK    7  A    between atoms: C_24  and  O_26
REMARK    8  A    between atoms: O_26  and  C_27
REMARK    9  A    between atoms: C_29  and  C_30
REMARK                            x       y       z     vdW  Elec       q    Type
REMARK                         _______ _______ _______ _____ _____    ______ ____
ROOT
ATOM      1  C   UNL     1      -0.070  -4.533  -0.156  0.00  0.00    +0.075 A 
ATOM      2  C   UNL     1       1.066  -5.210  -0.465  0.00  0.00    +0.035 A 
ATOM      3  C   UNL     1       0.757  -6.580  -0.308  0.00  0.00    +0.153 A 
ATOM      4  N   UNL     1      -0.503  -6.648   0.073  0.00  0.00    -0.168 NA
ATOM      5  N   UNL     1      -1.007  -5.470   0.176  0.00  0.00    -0.276 N 
ATOM      6  H   UNL     1      -1.918  -5.275   0.446  0.00  0.00    +0.189 HD
ATOM      7  C   UNL     1       1.966  -7.357  -0.635  0.00  0.00    +0.268 C 
ATOM      8  O   UNL     1       2.042  -8.569  -0.601  0.00  0.00    -0.268 OA
ATOM      9  N   UNL     1       2.974  -6.535  -0.977  0.00  0.00    -0.281 N 
ATOM     10  C   UNL     1       2.504  -5.147  -0.901  0.00  0.00    +0.142 C 
ENDROOT
BRANCH   1  15
ATOM     11  C   UNL     1      -0.792   1.181  -0.212  0.00  0.00    +0.045 C 
ATOM     12  C   UNL     1      -0.602  -0.314  -0.195  0.00  0.00    -0.029 A 
ATOM     13  C   UNL     1       0.275  -0.885   0.709  0.00  0.00    +0.050 A 
ATOM     14  C   UNL     1       0.454  -2.259   0.728  0.00  0.00    +0.126 A 
ATOM     15  C   UNL     1      -0.256  -3.065  -0.169  0.00  0.00    +0.043 A 
ATOM     16  C   UNL     1      -1.137  -2.478  -1.076  0.00  0.00    +0.034 A 
ATOM     17  C   UNL     1      -1.310  -1.108  -1.081  0.00  0.00    +0.045 A 
ATOM     18 CL   UNL     1      -2.413  -0.379  -2.205  0.00  0.00    -0.083 Cl
BRANCH  14  19
ATOM     19  O   UNL     1       1.315  -2.821   1.615  0.00  0.00    -0.506 OA
ATOM     20  H   UNL     1       0.929  -2.990   2.486  0.00  0.00    +0.292 HD
ENDBRANCH  14  19
ENDBRANCH   1  15
BRANCH  10  21
ATOM     21  C   UNL     1       2.607  -4.491  -2.254  0.00  0.00    -0.019 A 
ATOM     22  C   UNL     1       2.095  -5.127  -3.369  0.00  0.00    +0.009 A 
ATOM     23  C   UNL     1       2.187  -4.530  -4.613  0.00  0.00    +0.049 A 
ATOM     24  C   UNL     1       2.792  -3.290  -4.743  0.00  0.00    +0.158 A 
ATOM     25  C   UNL     1       3.307  -2.650  -3.620  0.00  0.00    +0.162 A 
ATOM     26  C   UNL     1       3.208  -3.252  -2.376  0.00  0.00    +0.055 A 
BRANCH  25  27
ATOM     27  O   UNL     1       3.903  -1.433  -3.742  0.00  0.00    -0.491 OA
ATOM     28  C   UNL     1       4.409  -0.835  -2.547  0.00  0.00    +0.277 C 
ENDBRANCH  25  27
BRANCH  24  29
ATOM     29  O   UNL     1       2.884  -2.701  -5.965  0.00  0.00    -0.503 OA
ATOM     30  H   UNL     1       2.131  -2.136  -6.187  0.00  0.00    +0.292 HD
ENDBRANCH  24  29
ENDBRANCH  10  21
BRANCH   9  31
ATOM     31  C   UNL     1       4.323  -6.957  -1.362  0.00  0.00    +0.144 C 
BRANCH  31  32
ATOM     32  C   UNL     1       4.377  -7.165  -2.854  0.00  0.00    -0.030 A 
ATOM     33  C   UNL     1       4.080  -8.404  -3.390  0.00  0.00    +0.005 A 
ATOM     34  C   UNL     1       4.130  -8.595  -4.758  0.00  0.00    +0.000 A 
ATOM     35  C   UNL     1       4.476  -7.547  -5.590  0.00  0.00    +0.000 A 
ATOM     36  C   UNL     1       4.771  -6.307  -5.054  0.00  0.00    +0.000 A 
ATOM     37  C   UNL     1       4.718  -6.115  -3.686  0.00  0.00    +0.005 A 
ENDBRANCH  31  32
ENDBRANCH   9  31
TORSDOF 7
