REMARK  Name = ZINC20673325
REMARK  5 active torsions:
REMARK  status: ('A' for Active; 'I' for Inactive)
REMARK    1  A    between atoms: C_1  and  C_2
REMARK    2  A    between atoms: C_7  and  C_32
REMARK    3  A    between atoms: C_14  and  C_30
REMARK    4  A    between atoms: N_20  and  C_23
REMARK    5  A    between atoms: C_23  and  C_24
REMARK                            x       y       z     vdW  Elec       q    Type
REMARK                         _______ _______ _______ _____ _____    ______ ____
ROOT
ATOM      1  C   UNL     1       4.354   3.251  -1.351  0.00  0.00    +0.028 C 
ATOM      2  C   UNL     1       4.331   3.194  -2.880  0.00  0.00    +0.073 C 
ATOM      3  C   UNL     1       5.641   3.756  -3.430  0.00  0.00    +0.022 C 
ATOM      4  C   UNL     1       5.559   3.829  -4.957  0.00  0.00    +0.004 C 
ATOM      5  C   UNL     1       4.420   4.767  -5.364  0.00  0.00    +0.022 C 
ATOM      6  C   UNL     1       3.094   4.212  -4.835  0.00  0.00    +0.073 C 
ATOM      7  N   UNL     1       3.213   4.001  -3.386  0.00  0.00    -0.298 N 
ATOM      8  C   UNL     1       2.308   4.549  -2.528  0.00  0.00    +0.186 C 
ATOM      9  N   UNL     1       2.581   5.693  -1.923  0.00  0.00    -0.257 N 
ATOM     10  C   UNL     1       1.730   6.282  -1.094  0.00  0.00    +0.239 C 
ATOM     11  O   UNL     1       2.051   7.320  -0.549  0.00  0.00    -0.274 OA
ATOM     12  C   UNL     1       0.373   5.689  -0.813  0.00  0.00    +0.205 C 
ATOM     13  C   UNL     1       0.444   4.173  -1.015  0.00  0.00    +0.086 C 
ATOM     14  N   UNL     1       1.120   3.915  -2.295  0.00  0.00    -0.247 NA
ATOM     15  C   UNL     1       1.238   3.535   0.124  0.00  0.00    +0.013 C 
ATOM     16  C   UNL     1       1.257   2.015  -0.061  0.00  0.00    -0.076 C 
ATOM     17  N   UNL     1      -0.120   1.506  -0.077  0.00  0.00    +0.382 N 
ATOM     18  C   UNL     1      -0.882   2.066  -1.200  0.00  0.00    -0.076 C 
ATOM     19  C   UNL     1      -0.968   3.587  -1.051  0.00  0.00    +0.013 C 
ATOM     20  C   UNL     1       1.970   5.211  -5.118  0.00  0.00    +0.028 C 
ATOM     21  H   UNL     1      -0.608   1.831   0.854  0.00  0.00    -0.081 HD
ATOM     22  H   UNL     1       3.544   6.193  -2.100  0.00  0.00    +0.157 HD
ENDROOT
BRANCH  12  23
ATOM     23  C   UNL     1      -0.620   6.264  -1.735  0.00  0.00    +0.078 C 
ATOM     24  N   UNL     1      -1.386   6.708  -2.447  0.00  0.00    -0.196 NA
ENDBRANCH  12  23
BRANCH  17  25
ATOM     25  C   UNL     1      -0.138   0.037  -0.109  0.00  0.00    -0.043 C 
BRANCH  25  26
ATOM     26  C   UNL     1      -1.544  -0.453   0.122  0.00  0.00    -0.064 A 
ATOM     27  C   UNL     1      -1.983  -0.712   1.407  0.00  0.00    +0.002 A 
ATOM     28  C   UNL     1      -3.274  -1.158   1.619  0.00  0.00    +0.000 A 
ATOM     29  C   UNL     1      -4.123  -1.353   0.546  0.00  0.00    +0.000 A 
ATOM     30  C   UNL     1      -3.682  -1.100  -0.739  0.00  0.00    +0.000 A 
ATOM     31  C   UNL     1      -2.393  -0.650  -0.951  0.00  0.00    +0.002 A 
ENDBRANCH  25  26
ENDBRANCH  17  25
TORSDOF 3
