REMARK  Name = ZINC20727483
REMARK  8 active torsions:
REMARK  status: ('A' for Active; 'I' for Inactive)
REMARK    1  A    between atoms: C_1  and  C_2
REMARK    2  A    between atoms: C_2  and  C_3
REMARK    3  A    between atoms: C_2  and  C_4
REMARK    4  A    between atoms: C_4  and  C_6
REMARK    5  A    between atoms: C_4  and  N_10
REMARK    6  A    between atoms: C_6  and  O_8
REMARK    7  A    between atoms: O_8  and  C_9
REMARK    8  A    between atoms: C_22  and  C_24
REMARK                            x       y       z     vdW  Elec       q    Type
REMARK                         _______ _______ _______ _____ _____    ______ ____
ROOT
ATOM      1  N   UNL     1      -1.241  -2.039   1.998  0.00  0.00    -0.286 N 
ATOM      2  C   UNL     1      -1.265  -2.840   0.915  0.00  0.00    +0.304 C 
ATOM      3  O   UNL     1      -1.424  -2.362  -0.192  0.00  0.00    -0.253 OA
ATOM      4  N   UNL     1      -1.111  -4.172   1.058  0.00  0.00    -0.273 N 
ATOM      5  C   UNL     1      -1.008  -5.048  -0.118  0.00  0.00    +0.116 C 
ATOM      6  C   UNL     1       0.382  -5.698  -0.139  0.00  0.00    +0.074 C 
ATOM      7  C   UNL     1       0.709  -6.189   1.247  0.00  0.00    +0.040 A 
ATOM      8  C   UNL     1       0.086  -5.787   2.375  0.00  0.00    +0.062 A 
ATOM      9  N   UNL     1       0.640  -6.427   3.407  0.00  0.00    -0.348 N 
ATOM     10  C   UNL     1       1.583  -7.217   2.963  0.00  0.00    +0.171 A 
ATOM     11  N   UNL     1       1.655  -7.096   1.618  0.00  0.00    -0.349 N 
ATOM     12  H   UNL     1       2.265  -7.566   1.028  0.00  0.00    +0.166 HD
ATOM     13  C   UNL     1      -1.038  -4.784   2.397  0.00  0.00    +0.157 C 
ATOM     14  H   UNL     1      -1.179  -2.425   2.886  0.00  0.00    +0.151 HD
ATOM     15  H   UNL     1       0.383  -6.324   4.336  0.00  0.00    +0.167 HD
ENDROOT
BRANCH  13  16
ATOM     16  C   UNL     1      -2.336  -5.480   2.714  0.00  0.00    -0.003 A 
ATOM     17  C   UNL     1      -2.424  -6.856   2.614  0.00  0.00    +0.009 A 
ATOM     18  C   UNL     1      -3.614  -7.496   2.905  0.00  0.00    +0.020 A 
ATOM     19  C   UNL     1      -4.718  -6.760   3.297  0.00  0.00    +0.042 A 
ATOM     20  C   UNL     1      -4.630  -5.383   3.398  0.00  0.00    +0.040 A 
ATOM     21  C   UNL     1      -3.437  -4.744   3.111  0.00  0.00    +0.048 A 
ATOM     22 CL   UNL     1      -3.325  -3.016   3.243  0.00  0.00    -0.083 Cl
ATOM     23 CL   UNL     1      -6.213  -7.564   3.662  0.00  0.00    -0.083 Cl
ENDBRANCH  13  16
BRANCH   1  24
ATOM     24  C   UNL     1      -1.310  -0.585   1.835  0.00  0.00    +0.186 C 
BRANCH  24  26
ATOM     25  C   UNL     1      -2.845   1.367   1.559  0.00  0.00    +0.009 C 
ATOM     26  C   UNL     1      -2.773  -0.152   1.729  0.00  0.00    +0.014 C 
ATOM     27  C   UNL     1      -3.419  -0.831   0.519  0.00  0.00    +0.009 C 
ENDBRANCH  24  26
BRANCH  24  28
ATOM     28  C   UNL     1      -0.674   0.085   3.026  0.00  0.00    +0.328 C 
ATOM     29  O   UNL     1      -0.211  -0.585   3.920  0.00  0.00    -0.249 OA
BRANCH  28  30
ATOM     30  O   UNL     1      -0.621   1.424   3.095  0.00  0.00    -0.467 OA
ATOM     31  C   UNL     1      -0.004   1.991   4.253  0.00  0.00    +0.280 C 
ENDBRANCH  28  30
ENDBRANCH  24  28
ENDBRANCH   1  24
TORSDOF 5
