REMARK  Name = ZINC19166718
REMARK  8 active torsions:
REMARK  status: ('A' for Active; 'I' for Inactive)
REMARK    1  A    between atoms: C_3  and  N_12
REMARK    2  A    between atoms: C_4  and  C_8
REMARK    3  A    between atoms: C_13  and  C_15
REMARK    4  A    between atoms: C_15  and  O_16
REMARK    5  A    between atoms: O_16  and  C_17
REMARK    6  A    between atoms: C_17  and  C_19
REMARK    7  A    between atoms: C_19  and  C_20
REMARK    8  A    between atoms: C_27  and  O_30
REMARK                            x       y       z     vdW  Elec       q    Type
REMARK                         _______ _______ _______ _____ _____    ______ ____
ROOT
ATOM      1  C   UNL     1       4.863   4.231  -0.238  0.00  0.00    +0.328 C 
ENDROOT
BRANCH   1   3
ATOM      2  N   UNL     1       3.584   2.125  -0.021  0.00  0.00    -0.282 N 
ATOM      3  C   UNL     1       3.569   3.469  -0.116  0.00  0.00    +0.255 C 
ATOM      4  O   UNL     1       2.513   4.066  -0.103  0.00  0.00    -0.272 OA
ATOM      5  H   UNL     1       4.429   1.653   0.049  0.00  0.00    +0.155 HD
BRANCH   2   8
ATOM      6  C   UNL     1       0.065   1.243  -0.620  0.00  0.00    +0.022 A 
ATOM      7  C   UNL     1       1.250   1.952  -0.619  0.00  0.00    +0.025 A 
ATOM      8  C   UNL     1       2.381   1.409  -0.024  0.00  0.00    +0.045 A 
ATOM      9  C   UNL     1       2.317   0.154   0.567  0.00  0.00    +0.077 A 
ATOM     10  C   UNL     1       1.130  -0.550   0.562  0.00  0.00    +0.034 A 
ATOM     11  C   UNL     1       0.004  -0.007  -0.031  0.00  0.00    +0.042 A 
ATOM     12 CL   UNL     1      -1.488  -0.895  -0.034  0.00  0.00    -0.084 Cl
BRANCH   9  13
ATOM     13  C   UNL     1       3.543  -0.439   1.213  0.00  0.00    +0.419 C 
ATOM     14  F   UNL     1       3.232  -1.699   1.735  0.00  0.00    -0.166 F 
ATOM     15  F   UNL     1       4.558  -0.567   0.258  0.00  0.00    -0.166 F 
ATOM     16  F   UNL     1       3.978   0.399   2.245  0.00  0.00    -0.166 F 
ENDBRANCH   9  13
ENDBRANCH   2   8
ENDBRANCH   1   3
BRANCH   1  17
ATOM     17  O   UNL     1       4.586   5.630  -0.323  0.00  0.00    -0.455 OA
BRANCH  17  18
ATOM     18  C   UNL     1       5.639   6.454  -0.437  0.00  0.00    +0.308 C 
ATOM     19  O   UNL     1       6.760   6.002  -0.464  0.00  0.00    -0.251 OA
BRANCH  18  20
ATOM     20  C   UNL     1       5.425   7.943  -0.532  0.00  0.00    +0.127 C 
BRANCH  20  21
ATOM     21  C   UNL     1       6.778   8.646  -0.653  0.00  0.00    -0.016 C 
ATOM     22  C   UNL     1       7.498   8.154  -1.910  0.00  0.00    +0.011 C 
ATOM     23  C   UNL     1       8.851   8.858  -2.031  0.00  0.00    -0.007 C 
ATOM     24  C   UNL     1       9.702   8.542  -0.800  0.00  0.00    +0.007 C 
ATOM     25  C   UNL     1       8.982   9.035   0.457  0.00  0.00    -0.007 C 
ATOM     26  C   UNL     1       7.629   8.331   0.579  0.00  0.00    +0.011 C 
ATOM     27  C   UNL     1       8.765  10.546   0.361  0.00  0.00    +0.038 C 
ATOM     28  C   UNL     1       7.914  10.861  -0.871  0.00  0.00    +0.067 C 
ATOM     29  C   UNL     1       8.634  10.369  -2.128  0.00  0.00    +0.038 C 
ATOM     30  C   UNL     1       6.560  10.158  -0.749  0.00  0.00    +0.042 C 
BRANCH  28  31
ATOM     31  O   UNL     1       7.710  12.273  -0.960  0.00  0.00    -0.389 OA
ATOM     32  H   UNL     1       8.527  12.784  -1.040  0.00  0.00    +0.210 HD
ENDBRANCH  28  31
ENDBRANCH  20  21
ENDBRANCH  18  20
ENDBRANCH  17  18
ENDBRANCH   1  17
TORSDOF 8
