REMARK  Name = ZINC17731405
REMARK  7 active torsions:
REMARK  status: ('A' for Active; 'I' for Inactive)
REMARK    1  A    between atoms: C_6  and  N_7
REMARK    2  A    between atoms: C_11  and  S_15
REMARK    3  A    between atoms: S_15  and  C_16
REMARK    4  A    between atoms: N_18  and  N_19
REMARK    5  A    between atoms: C_20  and  C_21
REMARK    6  A    between atoms: C_24  and  O_28
REMARK    7  A    between atoms: C_25  and  O_27
REMARK                            x       y       z     vdW  Elec       q    Type
REMARK                         _______ _______ _______ _____ _____    ______ ____
ROOT
ATOM      1  C   UNL     1      -2.143  -5.075   0.976  0.00  0.00    +0.146 C 
ATOM      2  N   UNL     1      -1.504  -5.174  -0.158  0.00  0.00    -0.380 N 
ATOM      3  N   UNL     1      -2.156  -6.135   1.854  0.00  0.00    -0.217 N 
ATOM      4  H   UNL     1      -1.038  -5.995  -0.381  0.00  0.00    +0.158 HD
ATOM      5  H   UNL     1      -2.631  -6.061   2.696  0.00  0.00    +0.176 HD
ATOM      6  H   UNL     1      -1.495  -4.427  -0.776  0.00  0.00    +0.158 HD
ENDROOT
BRANCH   3   7
ATOM      7  N   UNL     1      -1.483  -7.321   1.531  0.00  0.00    -0.188 NA
ATOM      8  C   UNL     1      -1.495  -8.320   2.359  0.00  0.00    +0.138 C 
BRANCH   8   9
ATOM      9  C   UNL     1      -0.786  -9.568   2.019  0.00  0.00    -0.002 A 
ATOM     10  C   UNL     1      -0.096  -9.674   0.809  0.00  0.00    +0.013 A 
ATOM     11  C   UNL     1       0.566 -10.841   0.493  0.00  0.00    +0.050 A 
ATOM     12  C   UNL     1       0.550 -11.912   1.374  0.00  0.00    +0.158 A 
ATOM     13  C   UNL     1      -0.136 -11.814   2.583  0.00  0.00    +0.159 A 
ATOM     14  C   UNL     1      -0.798 -10.644   2.909  0.00  0.00    +0.058 A 
BRANCH  13  15
ATOM     15  O   UNL     1      -0.151 -12.866   3.444  0.00  0.00    -0.503 OA
ATOM     16  H   UNL     1       0.575 -12.862   4.083  0.00  0.00    +0.292 HD
ENDBRANCH  13  15
BRANCH  12  17
ATOM     17  O   UNL     1       1.205 -13.061   1.058  0.00  0.00    -0.503 OA
ATOM     18  H   UNL     1       2.124 -13.084   1.356  0.00  0.00    +0.292 HD
ENDBRANCH  12  17
ENDBRANCH   8   9
ENDBRANCH   3   7
BRANCH   1  19
ATOM     19  S   UNL     1      -2.990  -3.584   1.382  0.00  0.00    -0.078 S 
BRANCH  19  24
ATOM     20  N   UNL     1      -1.202  -0.723   0.010  0.00  0.00    -0.209 N 
ATOM     21  C   UNL     1      -2.398  -0.131   0.118  0.00  0.00    +0.228 C 
ATOM     22  O   UNL     1      -2.585   1.062   0.218  0.00  0.00    -0.275 OA
ATOM     23  C   UNL     1      -3.480  -1.189   0.094  0.00  0.00    +0.120 C 
ATOM     24  C   UNL     1      -2.694  -2.508  -0.048  0.00  0.00    +0.149 C 
ATOM     25  C   UNL     1      -1.250  -2.057  -0.095  0.00  0.00    +0.240 C 
ATOM     26  O   UNL     1      -0.289  -2.787  -0.207  0.00  0.00    -0.274 OA
BRANCH  20  32
ATOM     27  C   UNL     1       0.775   0.044  -1.150  0.00  0.00    +0.025 A 
ATOM     28  C   UNL     1       1.961   0.753  -1.155  0.00  0.00    +0.017 A 
ATOM     29  C   UNL     1       2.378   1.415  -0.014  0.00  0.00    +0.018 A 
ATOM     30  C   UNL     1       1.609   1.368   1.135  0.00  0.00    +0.017 A 
ATOM     31  C   UNL     1       0.423   0.660   1.146  0.00  0.00    +0.025 A 
ATOM     32  C   UNL     1       0.002  -0.004   0.002  0.00  0.00    +0.044 A 
ATOM     33 BR   UNL     1       4.001   2.384  -0.025  0.00  0.00    -0.050 Br
ENDBRANCH  20  32
ENDBRANCH  19  24
ENDBRANCH   1  19
TORSDOF 7
