REMARK  Name = ZINC35846256
REMARK  9 active torsions:
REMARK  status: ('A' for Active; 'I' for Inactive)
REMARK    1  A    between atoms: C_1  and  C_2
REMARK    2  A    between atoms: C_2  and  C_3
REMARK    3  A    between atoms: C_3  and  C_4
REMARK    4  A    between atoms: C_4  and  C_5
REMARK    5  A    between atoms: C_5  and  N_6
REMARK    6  A    between atoms: C_7  and  C_9
REMARK    7  A    between atoms: C_12  and  C_14
REMARK    8  A    between atoms: C_14  and  N_15
REMARK    9  A    between atoms: C_23  and  C_25
REMARK                            x       y       z     vdW  Elec       q    Type
REMARK                         _______ _______ _______ _____ _____    ______ ____
ROOT
ATOM      1  N   UNL     1      -1.991  -9.834  -1.409  0.00  0.00    +0.394 N 
ATOM      2  C   UNL     1      -1.265  -8.739  -2.065  0.00  0.00    -0.055 C 
ATOM      3  C   UNL     1      -1.224  -8.975  -3.580  0.00  0.00    +0.103 C 
ATOM      4  N   UNL     1      -0.740 -10.342  -3.814  0.00  0.00    -0.353 N 
ATOM      5  C   UNL     1      -0.264 -10.879  -4.965  0.00  0.00    +0.086 A 
ATOM      6  C   UNL     1       0.074 -12.164  -4.721  0.00  0.00    +0.019 A 
ATOM      7  C   UNL     1      -0.208 -12.427  -3.364  0.00  0.00    +0.021 A 
ATOM      8  C   UNL     1      -0.706 -11.300  -2.834  0.00  0.00    +0.009 A 
ATOM      9  C   UNL     1      -1.171 -11.058  -1.419  0.00  0.00    +0.014 C 
ATOM     10  H   UNL     1      -2.854 -10.005  -1.903  0.00  0.00    -0.080 HD
ENDROOT
BRANCH   9  11
ATOM     11  C   UNL     1      -1.996 -12.227  -0.948  0.00  0.00    -0.020 A 
ATOM     12  C   UNL     1      -3.372 -12.202  -1.084  0.00  0.00    +0.008 A 
ATOM     13  C   UNL     1      -4.130 -13.274  -0.652  0.00  0.00    +0.039 A 
ATOM     14  C   UNL     1      -3.512 -14.375  -0.083  0.00  0.00    +0.126 A 
ATOM     15  C   UNL     1      -2.135 -14.401   0.054  0.00  0.00    +0.077 A 
ATOM     16  C   UNL     1      -1.376 -13.329  -0.384  0.00  0.00    +0.128 A 
ATOM     17  F   UNL     1      -0.031 -13.356  -0.256  0.00  0.00    -0.205 F 
ATOM     18  F   UNL     1      -4.253 -15.422   0.340  0.00  0.00    -0.205 F 
ENDBRANCH   9  11
BRANCH   1  19
ATOM     19  C   UNL     1      -2.290  -9.459  -0.020  0.00  0.00    -0.002 C 
BRANCH  19  23
ATOM     20  C   UNL     1      -3.966  -6.214   0.007  0.00  0.00    +0.189 A 
ATOM     21  C   UNL     1      -5.060  -7.031   0.007  0.00  0.00    +0.055 A 
ATOM     22  C   UNL     1      -4.579  -8.350  -0.003  0.00  0.00    +0.043 A 
ATOM     23  C   UNL     1      -3.229  -8.280  -0.009  0.00  0.00    +0.090 A 
ATOM     24  O   UNL     1      -2.864  -6.992  -0.009  0.00  0.00    -0.457 OA
BRANCH  20  26
ATOM     25  N   UNL     1      -2.828  -4.058   0.007  0.00  0.00    -0.309 N 
ATOM     26  C   UNL     1      -3.986  -4.748   0.015  0.00  0.00    +0.279 C 
ATOM     27  O   UNL     1      -5.048  -4.154   0.028  0.00  0.00    -0.267 OA
ATOM     28  H   UNL     1      -1.982  -4.531  -0.003  0.00  0.00    +0.149 HD
BRANCH  25  29
ATOM     29  C   UNL     1      -2.848  -2.593   0.015  0.00  0.00    +0.104 C 
BRANCH  29  30
ATOM     30  C   UNL     1      -1.413  -2.063   0.004  0.00  0.00    +0.019 C 
BRANCH  30  31
ATOM     31  C   UNL     1      -1.433  -0.534   0.013  0.00  0.00    +0.001 C 
BRANCH  31  33
ATOM     32  C   UNL     1      -0.019   1.526   0.010  0.00  0.00    +0.004 C 
ATOM     33  C   UNL     1       0.002  -0.004   0.002  0.00  0.00    -0.003 C 
ENDBRANCH  31  33
ENDBRANCH  30  31
ENDBRANCH  29  30
ENDBRANCH  25  29
ENDBRANCH  20  26
ENDBRANCH  19  23
ENDBRANCH   1  19
TORSDOF 8
