REMARK  Name = ZINC13981427
REMARK  7 active torsions:
REMARK  status: ('A' for Active; 'I' for Inactive)
REMARK    1  A    between atoms: C_10  and  C_11
REMARK    2  A    between atoms: C_11  and  C_12
REMARK    3  A    between atoms: N_14  and  N_15
REMARK    4  A    between atoms: N_15  and  C_16
REMARK    5  A    between atoms: C_16  and  N_18
REMARK    6  A    between atoms: C_19  and  C_21
REMARK    7  A    between atoms: C_22  and  C_23
REMARK                            x       y       z     vdW  Elec       q    Type
REMARK                         _______ _______ _______ _____ _____    ______ ____
ROOT
ATOM      1  N   UNL     1      -2.506   5.412   0.043  0.00  0.00    -0.246 N 
ATOM      2  H   UNL     1      -3.352   5.886   0.050  0.00  0.00    +0.172 HD
ENDROOT
BRANCH   1   5
ATOM      3  C   UNL     1      -1.320   7.477   0.049  0.00  0.00    +0.233 C 
ATOM      4  O   UNL     1      -2.378   8.069   0.057  0.00  0.00    -0.274 OA
ATOM      5  N   UNL     1      -1.302   6.129   0.042  0.00  0.00    -0.235 N 
ATOM      6  H   UNL     1      -0.455   5.656   0.035  0.00  0.00    +0.173 HD
BRANCH   3   7
ATOM      7  C   UNL     1      -0.025   8.248   0.047  0.00  0.00    +0.133 C 
BRANCH   7  17
ATOM      8  C   UNL     1      -1.032  11.749   3.643  0.00  0.00    +0.001 A 
ATOM      9  C   UNL     1      -0.761  10.382   3.654  0.00  0.00    +0.001 A 
ATOM     10  C   UNL     1      -0.527   9.704   2.497  0.00  0.00    +0.009 A 
ATOM     11  C   UNL     1      -0.563  10.390   1.271  0.00  0.00    -0.014 A 
ATOM     12  C   UNL     1      -0.834  11.781   1.260  0.00  0.00    -0.018 A 
ATOM     13  C   UNL     1      -1.071  12.446   2.475  0.00  0.00    +0.008 A 
ATOM     14  C   UNL     1      -0.866  12.467   0.034  0.00  0.00    +0.008 A 
ATOM     15  C   UNL     1      -0.631  11.790  -1.123  0.00  0.00    +0.001 A 
ATOM     16  C   UNL     1      -0.360  10.423  -1.112  0.00  0.00    +0.005 A 
ATOM     17  C   UNL     1      -0.321   9.726   0.056  0.00  0.00    -0.031 A 
ENDBRANCH   7  17
ENDBRANCH   3   7
ENDBRANCH   1   5
BRANCH   1  18
ATOM     18  C   UNL     1      -2.487   4.065   0.036  0.00  0.00    +0.153 C 
ATOM     19  S   UNL     1      -3.958   3.189   0.038  0.00  0.00    -0.017 S 
BRANCH  18  20
ATOM     20  N   UNL     1      -1.311   3.407   0.027  0.00  0.00    -0.263 N 
ATOM     21  C   UNL     1      -1.293   2.059   0.019  0.00  0.00    +0.242 C 
ATOM     22  O   UNL     1      -2.338   1.437   0.021  0.00  0.00    -0.270 OA
ATOM     23  H   UNL     1      -0.478   3.903   0.025  0.00  0.00    +0.157 HD
BRANCH  21  24
ATOM     24  C   UNL     1      -0.016   1.345   0.009  0.00  0.00    +0.068 C 
ATOM     25  C   UNL     1       0.002  -0.004   0.002  0.00  0.00    +0.014 C 
BRANCH  25  26
ATOM     26  C   UNL     1       1.286  -0.722  -0.014  0.00  0.00    -0.007 A 
ATOM     27  C   UNL     1       2.490  -0.010  -0.022  0.00  0.00    +0.009 A 
ATOM     28  C   UNL     1       3.689  -0.690  -0.036  0.00  0.00    +0.001 A 
ATOM     29  C   UNL     1       3.704  -2.075  -0.043  0.00  0.00    +0.001 A 
ATOM     30  C   UNL     1       2.519  -2.787  -0.036  0.00  0.00    +0.020 A 
ATOM     31  C   UNL     1       1.309  -2.122  -0.016  0.00  0.00    +0.048 A 
ATOM     32 CL   UNL     1      -0.177  -3.018   0.001  0.00  0.00    -0.083 Cl
ENDBRANCH  25  26
ENDBRANCH  21  24
ENDBRANCH  18  20
ENDBRANCH   1  18
TORSDOF 7
