REMARK  Name = ZINC49193581
REMARK  7 active torsions:
REMARK  status: ('A' for Active; 'I' for Inactive)
REMARK    1  A    between atoms: C_1  and  C_2
REMARK    2  A    between atoms: C_2  and  N_3
REMARK    3  A    between atoms: C_4  and  C_6
REMARK    4  A    between atoms: C_6  and  C_8
REMARK    5  A    between atoms: C_6  and  N_9
REMARK    6  A    between atoms: N_9  and  C_10
REMARK    7  A    between atoms: C_15  and  N_16
REMARK                            x       y       z     vdW  Elec       q    Type
REMARK                         _______ _______ _______ _____ _____    ______ ____
ROOT
ATOM      1  C   UNL     1       1.656  -4.443  -3.888  0.00  0.00    +0.051 A 
ATOM      2  C   UNL     1       1.746  -3.741  -5.081  0.00  0.00    +0.051 A 
ATOM      3  C   UNL     1       1.848  -4.429  -6.279  0.00  0.00    +0.078 A 
ATOM      4  C   UNL     1       1.861  -5.823  -6.288  0.00  0.00    +0.144 A 
ATOM      5  C   UNL     1       1.772  -6.524  -5.097  0.00  0.00    +0.072 A 
ATOM      6  C   UNL     1       1.675  -5.837  -3.896  0.00  0.00    +0.049 A 
ATOM      7  O   UNL     1       1.960  -6.484  -7.473  0.00  0.00    -0.481 OA
ATOM      8  C   UNL     1       1.349  -5.864  -8.608  0.00  0.00    +0.325 C 
ATOM      9  C   UNL     1       1.723  -4.404  -8.650  0.00  0.00    +0.255 C 
ATOM     10  O   UNL     1       1.827  -3.833  -9.715  0.00  0.00    -0.272 OA
ATOM     11  N   UNL     1       1.941  -3.736  -7.497  0.00  0.00    -0.280 N 
ATOM     12  H   UNL     1       2.159  -2.790  -7.510  0.00  0.00    +0.155 HD
ENDROOT
BRANCH   6  13
ATOM     13  N   UNL     1       1.590  -6.545  -2.689  0.00  0.00    -0.356 N 
ATOM     14  H   UNL     1       1.518  -6.065  -1.849  0.00  0.00    +0.142 HD
ATOM     15  H   UNL     1       1.603  -7.515  -2.693  0.00  0.00    +0.142 HD
ENDBRANCH   6  13
BRANCH   1  16
ATOM     16  N   UNL     1       1.552  -3.749  -2.673  0.00  0.00    -0.332 N 
ATOM     17  H   UNL     1       1.493  -4.240  -1.838  0.00  0.00    +0.147 HD
BRANCH  16  18
ATOM     18  C   UNL     1       1.532  -2.285  -2.665  0.00  0.00    +0.154 C 
ATOM     19  C   UNL     1       2.968  -1.755  -2.676  0.00  0.00    +0.038 C 
BRANCH  18  21
ATOM     20  N   UNL     1       0.688  -0.476  -1.203  0.00  0.00    -0.314 N 
ATOM     21  C   UNL     1       0.827  -1.799  -1.425  0.00  0.00    +0.233 C 
ATOM     22  O   UNL     1       0.384  -2.597  -0.627  0.00  0.00    -0.274 OA
ATOM     23  H   UNL     1       1.042   0.162  -1.842  0.00  0.00    +0.149 HD
BRANCH  20  25
ATOM     24  C   UNL     1      -0.019   1.526   0.010  0.00  0.00    +0.024 C 
ATOM     25  C   UNL     1       0.002  -0.004   0.002  0.00  0.00    +0.101 C 
ENDBRANCH  20  25
ENDBRANCH  18  21
ENDBRANCH  16  18
ENDBRANCH   1  16
TORSDOF 5
