REMARK  Name = ZINC39710256
REMARK  12 active torsions:
REMARK  status: ('A' for Active; 'I' for Inactive)
REMARK    1  A    between atoms: C_1  and  C_2
REMARK    2  A    between atoms: C_9  and  C_14
REMARK    3  A    between atoms: C_14  and  C_16
REMARK    4  A    between atoms: C_14  and  N_26
REMARK    5  A    between atoms: N_21  and  C_22
REMARK    6  A    between atoms: C_22  and  C_23
REMARK    7  A    between atoms: C_22  and  C_24
REMARK    8  A    between atoms: C_22  and  C_25
REMARK    9  A    between atoms: N_26  and  C_27
REMARK   10  A    between atoms: N_26  and  C_34
REMARK   11  A    between atoms: C_27  and  C_28
REMARK   12  A    between atoms: C_34  and  C_35
REMARK                            x       y       z     vdW  Elec       q    Type
REMARK                         _______ _______ _______ _____ _____    ______ ____
ROOT
ATOM      1  C   UNL     1      -1.939  -4.165   3.067  0.00  0.00    -0.009 C 
ENDROOT
BRANCH   1  10
ATOM      2  C   UNL     1       4.598  -4.115   5.945  0.00  0.00    +0.044 C 
ATOM      3  C   UNL     1       3.498  -3.537   5.093  0.00  0.00    -0.050 A 
ATOM      4  C   UNL     1       3.492  -2.168   4.822  0.00  0.00    +0.005 A 
ATOM      5  C   UNL     1       2.534  -1.575   4.062  0.00  0.00    +0.024 A 
ATOM      6  C   UNL     1       1.489  -2.337   3.507  0.00  0.00    +0.040 A 
ATOM      7  N   UNL     1       0.555  -1.746   2.763  0.00  0.00    -0.285 N 
ATOM      8  C   UNL     1      -0.453  -2.401   2.213  0.00  0.00    +0.223 C 
ATOM      9  O   UNL     1      -1.276  -1.806   1.543  0.00  0.00    -0.275 OA
ATOM     10  C   UNL     1      -0.579  -3.894   2.420  0.00  0.00    +0.088 C 
ATOM     11  C   UNL     1       0.481  -4.572   3.266  0.00  0.00    -0.006 C 
ATOM     12  C   UNL     1       1.470  -3.786   3.777  0.00  0.00    -0.007 A 
ATOM     13  C   UNL     1       2.536  -4.359   4.600  0.00  0.00    +0.012 A 
ATOM     14  H   UNL     1       0.618  -0.788   2.618  0.00  0.00    +0.155 HD
ENDBRANCH   1  10
BRANCH   1  15
ATOM     15  C   UNL     1      -1.732  -4.834   4.428  0.00  0.00    +0.205 C 
ATOM     16  N   UNL     1      -2.499  -6.084   4.506  0.00  0.00    -0.152 NA
ATOM     17  N   UNL     1      -3.318  -5.993   5.423  0.00  0.00    -0.070 NA
ATOM     18  N   UNL     1      -3.261  -4.765   6.081  0.00  0.00    -0.179 N 
ATOM     19  N   UNL     1      -2.285  -3.989   5.507  0.00  0.00    -0.183 NA
ATOM     20  H   UNL     1      -3.822  -4.501   6.827  0.00  0.00    +0.191 HD
BRANCH  19  21
ATOM     21  C   UNL     1      -1.246  -3.637   6.485  0.00  0.00    +0.035 C 
ATOM     22  C   UNL     1       0.054  -3.304   5.750  0.00  0.00    +0.029 C 
ATOM     23  C   UNL     1      -1.699  -2.421   7.295  0.00  0.00    +0.029 C 
ATOM     24  C   UNL     1      -1.011  -4.819   7.427  0.00  0.00    +0.029 C 
ENDBRANCH  19  21
ENDBRANCH   1  15
BRANCH   1  25
ATOM     25  N   UNL     1      -2.725  -5.052   2.200  0.00  0.00    +0.390 N 
ATOM     26  H   UNL     1      -2.417  -6.005   2.324  0.00  0.00    -0.080 HD
BRANCH  25  27
ATOM     27  C   UNL     1      -4.147  -4.948   2.555  0.00  0.00    -0.042 C 
BRANCH  27  28
ATOM     28  C   UNL     1      -4.943  -5.929   1.732  0.00  0.00    -0.064 A 
ATOM     29  C   UNL     1      -5.427  -5.557   0.491  0.00  0.00    +0.002 A 
ATOM     30  C   UNL     1      -6.157  -6.456  -0.263  0.00  0.00    +0.000 A 
ATOM     31  C   UNL     1      -6.402  -7.727   0.222  0.00  0.00    +0.000 A 
ATOM     32  C   UNL     1      -5.918  -8.099   1.462  0.00  0.00    +0.000 A 
ATOM     33  C   UNL     1      -5.184  -7.201   2.215  0.00  0.00    +0.002 A 
ENDBRANCH  27  28
ENDBRANCH  25  27
BRANCH  25  34
ATOM     34  C   UNL     1      -2.540  -4.656   0.798  0.00  0.00    -0.040 C 
BRANCH  34  35
ATOM     35  C   UNL     1      -1.454  -5.497   0.178  0.00  0.00    -0.046 A 
ATOM     36  C   UNL     1      -0.328  -4.892  -0.348  0.00  0.00    +0.003 A 
ATOM     37  C   UNL     1       0.669  -5.663  -0.917  0.00  0.00    +0.000 A 
ATOM     38  C   UNL     1       0.540  -7.039  -0.960  0.00  0.00    +0.001 A 
ATOM     39  C   UNL     1      -0.586  -7.644  -0.434  0.00  0.00    +0.020 A 
ATOM     40  C   UNL     1      -1.581  -6.874   0.140  0.00  0.00    +0.042 A 
ATOM     41 CL   UNL     1      -2.992  -7.634   0.807  0.00  0.00    -0.083 Cl
ENDBRANCH  34  35
ENDBRANCH  25  34
ENDBRANCH   1  25
TORSDOF 8
