REMARK  Name = ZINC60628320
REMARK  8 active torsions:
REMARK  status: ('A' for Active; 'I' for Inactive)
REMARK    1  A    between atoms: C_1  and  S_2
REMARK    2  A    between atoms: S_2  and  C_3
REMARK    3  A    between atoms: C_3  and  C_4
REMARK    4  A    between atoms: C_4  and  C_5
REMARK    5  A    between atoms: C_5  and  C_7
REMARK    6  A    between atoms: C_5  and  N_17
REMARK    7  A    between atoms: N_20  and  C_21
REMARK    8  A    between atoms: C_21  and  C_22
REMARK                            x       y       z     vdW  Elec       q    Type
REMARK                         _______ _______ _______ _____ _____    ______ ____
ROOT
ATOM      1  N   UNL     1       0.907  -1.853  -4.112  0.00  0.00    -0.290 N 
ATOM      2  C   UNL     1       1.010  -0.583  -4.552  0.00  0.00    +0.301 C 
ATOM      3  O   UNL     1       1.762   0.194  -3.995  0.00  0.00    -0.253 OA
ATOM      4  N   UNL     1       0.280  -0.175  -5.608  0.00  0.00    -0.292 N 
ATOM      5  H   UNL     1       0.307  -2.473  -4.556  0.00  0.00    +0.151 HD
ATOM      6  H   UNL     1      -0.320  -0.795  -6.052  0.00  0.00    +0.151 HD
ENDROOT
BRANCH   1   7
ATOM      7  C   UNL     1       1.701  -2.297  -2.963  0.00  0.00    +0.141 C 
BRANCH   7   8
ATOM      8  C   UNL     1       1.900  -3.789  -3.037  0.00  0.00    +0.129 A 
ATOM      9  N   UNL     1       1.503  -4.578  -4.071  0.00  0.00    -0.340 N 
ATOM     10  H   UNL     1       1.050  -4.285  -4.877  0.00  0.00    +0.167 HD
ATOM     11  C   UNL     1       1.865  -5.874  -3.761  0.00  0.00    +0.066 A 
ATOM     12  C   UNL     1       1.732  -7.096  -4.408  0.00  0.00    +0.028 A 
ATOM     13  C   UNL     1       2.215  -8.240  -3.810  0.00  0.00    +0.002 A 
ATOM     14  C   UNL     1       2.832  -8.179  -2.568  0.00  0.00    +0.002 A 
ATOM     15  C   UNL     1       2.971  -6.986  -1.917  0.00  0.00    +0.030 A 
ATOM     16  C   UNL     1       2.489  -5.812  -2.504  0.00  0.00    +0.089 A 
ATOM     17  N   UNL     1       2.482  -4.509  -2.122  0.00  0.00    -0.231 NA
ENDBRANCH   7   8
BRANCH   7  18
ATOM     18  C   UNL     1       0.966  -1.944  -1.668  0.00  0.00    +0.041 C 
BRANCH  18  19
ATOM     19  C   UNL     1       0.873  -0.423  -1.533  0.00  0.00    +0.071 C 
BRANCH  19  21
ATOM     20  C   UNL     1      -0.022   1.810   0.012  0.00  0.00    +0.084 C 
ATOM     21  S   UNL     1       0.002  -0.004   0.002  0.00  0.00    -0.164 S 
ENDBRANCH  19  21
ENDBRANCH  18  19
ENDBRANCH   7  18
ENDBRANCH   1   7
BRANCH   4  22
ATOM     22  C   UNL     1       0.392   1.205  -6.087  0.00  0.00    +0.180 C 
BRANCH  22  23
ATOM     23  C   UNL     1      -0.521   1.403  -7.269  0.00  0.00    +0.123 A 
ATOM     24  C   UNL     1      -1.796   1.809  -7.195  0.00  0.00    +0.055 A 
ATOM     25  C   UNL     1      -2.290   1.860  -8.576  0.00  0.00    +0.020 A 
ATOM     26  C   UNL     1      -3.509   2.198  -9.163  0.00  0.00    +0.011 A 
ATOM     27  C   UNL     1      -3.645   2.139 -10.522  0.00  0.00    +0.001 A 
ATOM     28  C   UNL     1      -2.580   1.744 -11.319  0.00  0.00    +0.004 A 
ATOM     29  C   UNL     1      -1.368   1.406 -10.756  0.00  0.00    +0.047 A 
ATOM     30  C   UNL     1      -1.208   1.460  -9.377  0.00  0.00    +0.135 A 
ATOM     31  O   UNL     1      -0.173   1.203  -8.552  0.00  0.00    -0.458 OA
ENDBRANCH  22  23
ENDBRANCH   4  22
TORSDOF 7
