REMARK  Name = ZINC14742629
REMARK  8 active torsions:
REMARK  status: ('A' for Active; 'I' for Inactive)
REMARK    1  A    between atoms: C_1  and  C_2
REMARK    2  A    between atoms: C_2  and  C_3
REMARK    3  A    between atoms: C_3  and  N_4
REMARK    4  A    between atoms: C_7  and  C_9
REMARK    5  A    between atoms: C_18  and  N_71
REMARK    6  A    between atoms: C_22  and  C_23
REMARK    7  A    between atoms: C_22  and  N_71
REMARK    8  A    between atoms: C_23  and  C_29
REMARK                            x       y       z     vdW  Elec       q    Type
REMARK                         _______ _______ _______ _____ _____    ______ ____
ROOT
ATOM      1  N   UNL     1      -2.525  -0.884   1.147  0.00  0.00    -0.267 N 
ATOM      2  C   UNL     1      -2.101  -2.156   1.064  0.00  0.00    +0.043 A 
ATOM      3  C   UNL     1      -0.750  -2.137   1.182  0.00  0.00    +0.004 A 
ATOM      4  C   UNL     1      -0.396  -0.788   1.351  0.00  0.00    +0.151 A 
ATOM      5  N   UNL     1      -1.521  -0.094   1.315  0.00  0.00    -0.166 NA
ATOM      6  C   UNL     1       0.128  -3.357   1.145  0.00  0.00    +0.023 C 
ATOM      7  C   UNL     1      -0.684  -4.514   0.546  0.00  0.00    -0.067 C 
ATOM      8  C   UNL     1      -2.036  -4.613   1.258  0.00  0.00    -0.009 C 
ATOM      9  C   UNL     1      -2.910  -3.413   0.873  0.00  0.00    +0.054 C 
ENDROOT
BRANCH   4  10
ATOM     10  C   UNL     1       0.968  -0.249   1.528  0.00  0.00    +0.267 C 
ATOM     11  O   UNL     1       1.910  -1.008   1.646  0.00  0.00    -0.268 OA
ATOM     12  N   UNL     1       1.167   1.083   1.559  0.00  0.00    -0.295 N 
ATOM     13  C   UNL     1       0.058   1.988   1.252  0.00  0.00    +0.119 C 
ATOM     14  C   UNL     1      -0.306   2.789   2.513  0.00  0.00    +0.088 C 
ATOM     15  S   UNL     1       1.173   3.681   3.080  0.00  0.00    -0.158 S 
ATOM     16  C   UNL     1       2.419   2.365   3.226  0.00  0.00    +0.088 C 
ATOM     17  C   UNL     1       2.492   1.609   1.894  0.00  0.00    +0.119 C 
ENDBRANCH   4  10
BRANCH   7  18
ATOM     18  N   UNL     1       0.062  -5.774   0.729  0.00  0.00    +0.382 N 
ATOM     19  H   UNL     1      -0.139  -6.154   1.662  0.00  0.00    -0.085 HD
ATOM     20  H   UNL     1       1.068  -5.587   0.646  0.00  0.00    -0.085 HD
BRANCH  18  21
ATOM     21  C   UNL     1      -0.337  -6.758  -0.294  0.00  0.00    -0.071 C 
BRANCH  21  22
ATOM     22  C   UNL     1       0.553  -7.997  -0.172  0.00  0.00    -0.015 C 
ATOM     23  C   UNL     1       0.017  -9.105  -1.084  0.00  0.00    +0.038 C 
ATOM     24  C   UNL     1      -1.385  -9.507  -0.612  0.00  0.00    +0.160 C 
ATOM     25  O   UNL     1      -1.326  -9.928   0.752  0.00  0.00    -0.380 OA
ATOM     26  C   UNL     1      -0.876  -8.917   1.656  0.00  0.00    +0.160 C 
ATOM     27  C   UNL     1       0.545  -8.493   1.277  0.00  0.00    +0.038 C 
BRANCH  22  28
ATOM     28  C   UNL     1       1.961  -7.647  -0.578  0.00  0.00    -0.043 A 
ATOM     29  C   UNL     1       2.239  -6.402  -1.109  0.00  0.00    +0.004 A 
ATOM     30  C   UNL     1       3.531  -6.079  -1.477  0.00  0.00    +0.000 A 
ATOM     31  C   UNL     1       4.545  -7.007  -1.324  0.00  0.00    +0.000 A 
ATOM     32  C   UNL     1       4.267  -8.254  -0.798  0.00  0.00    +0.000 A 
ATOM     33  C   UNL     1       2.975  -8.575  -0.425  0.00  0.00    +0.004 A 
ENDBRANCH  22  28
ENDBRANCH  21  22
ENDBRANCH  18  21
ENDBRANCH   7  18
BRANCH   1  34
ATOM     34  C   UNL     1      -3.924  -0.458   1.058  0.00  0.00    +0.143 C 
BRANCH  34  36
ATOM     35  C   UNL     1      -5.739   0.274  -0.495  0.00  0.00    +0.005 C 
ATOM     36  C   UNL     1      -4.278  -0.172  -0.403  0.00  0.00    +0.020 C 
ENDBRANCH  34  36
ENDBRANCH   1  34
TORSDOF 7
