REMARK  Name = ZINC35317800
REMARK  14 active torsions:
REMARK  status: ('A' for Active; 'I' for Inactive)
REMARK    1  A    between atoms: C_1  and  C_2
REMARK    2  A    between atoms: N_11  and  C_12
REMARK    3  A    between atoms: C_12  and  C_13
REMARK    4  A    between atoms: C_12  and  C_14
REMARK    5  A    between atoms: C_15  and  C_17
REMARK    6  A    between atoms: C_17  and  C_19
REMARK    7  A    between atoms: C_17  and  N_30
REMARK    8  A    between atoms: C_19  and  C_20
REMARK    9  A    between atoms: C_31  and  C_33
REMARK   10  A    between atoms: C_33  and  C_34
REMARK   11  A    between atoms: C_34  and  C_35
REMARK   12  A    between atoms: C_35  and  C_36
REMARK   13  A    between atoms: C_36  and  C_37
REMARK   14  A    between atoms: C_37  and  N_38
REMARK                            x       y       z     vdW  Elec       q    Type
REMARK                         _______ _______ _______ _____ _____    ______ ____
ROOT
ATOM      1  C   UNL     1       0.459  -4.333  -1.921  0.00  0.00    +0.163 C 
ENDROOT
BRANCH   1  12
ATOM      2  C   UNL     1      -0.518   1.319   0.283  0.00  0.00    +0.030 C 
ATOM      3  C   UNL     1      -0.479  -0.206   0.158  0.00  0.00    +0.092 C 
ATOM      4  C   UNL     1       0.402  -0.603  -1.032  0.00  0.00    +0.130 C 
ATOM      5  N   UNL     1       0.637  -2.053  -0.979  0.00  0.00    -0.297 N 
ATOM      6  C   UNL     1       1.209  -2.634   0.244  0.00  0.00    +0.127 C 
ATOM      7  C   UNL     1       0.327  -2.236   1.434  0.00  0.00    +0.128 C 
ATOM      8  N   UNL     1       0.089  -0.787   1.383  0.00  0.00    -0.280 N 
ATOM      9  C   UNL     1       0.390  -0.004   2.438  0.00  0.00    +0.303 C 
ATOM     10  O   UNL     1       0.098   1.177   2.422  0.00  0.00    -0.253 OA
ATOM     11  N   UNL     1       1.015  -0.529   3.510  0.00  0.00    -0.297 N 
ATOM     12  C   UNL     1       0.334  -2.836  -2.033  0.00  0.00    +0.236 C 
ATOM     13  O   UNL     1      -0.040  -2.335  -3.073  0.00  0.00    -0.274 OA
ATOM     14  H   UNL     1       1.181  -1.484   3.555  0.00  0.00    +0.150 HD
BRANCH  11  15
ATOM     15  C   UNL     1       1.442   0.341   4.608  0.00  0.00    +0.068 C 
ATOM     16  C   UNL     1       1.532  -0.474   5.900  0.00  0.00    +0.027 C 
ATOM     17  C   UNL     1       2.814   0.936   4.284  0.00  0.00    +0.027 C 
ENDBRANCH  11  15
ENDBRANCH   1  12
BRANCH   1  18
ATOM     18  N   UNL     1      -0.101  -4.962  -3.119  0.00  0.00    -0.304 N 
ATOM     19  C   UNL     1      -0.565  -6.226  -3.063  0.00  0.00    +0.214 C 
ATOM     20  O   UNL     1      -0.518  -6.843  -2.021  0.00  0.00    -0.276 OA
ATOM     21  H   UNL     1      -0.138  -4.468  -3.954  0.00  0.00    +0.149 HD
BRANCH  19  22
ATOM     22  C   UNL     1      -1.141  -6.873  -4.297  0.00  0.00    +0.096 C 
BRANCH  22  23
ATOM     23  C   UNL     1      -1.590  -8.297  -3.963  0.00  0.00    +0.009 C 
BRANCH  23  24
ATOM     24  C   UNL     1      -2.175  -8.953  -5.215  0.00  0.00    -0.001 C 
BRANCH  24  25
ATOM     25  C   UNL     1      -2.625 -10.377  -4.882  0.00  0.00    -0.020 C 
BRANCH  25  26
ATOM     26  C   UNL     1      -3.210 -11.034  -6.134  0.00  0.00    -0.086 C 
BRANCH  26  27
ATOM     27  N   UNL     1      -3.641 -12.401  -5.814  0.00  0.00    +0.378 N 
ATOM     28  H   UNL     1      -4.027 -12.834  -6.640  0.00  0.00    -0.090 HD
ATOM     29  H   UNL     1      -2.849 -12.937  -5.492  0.00  0.00    -0.090 HD
ATOM     30  H   UNL     1      -4.344 -12.371  -5.090  0.00  0.00    -0.090 HD
ENDBRANCH  26  27
ENDBRANCH  25  26
ENDBRANCH  24  25
ENDBRANCH  23  24
ENDBRANCH  22  23
ENDBRANCH  19  22
ENDBRANCH   1  18
BRANCH   1  31
ATOM     31  C   UNL     1       1.935  -4.713  -1.788  0.00  0.00    +0.069 C 
BRANCH  31  32
ATOM     32  C   UNL     1       2.058  -6.207  -1.633  0.00  0.00    -0.020 A 
ATOM     33  C   UNL     1       2.142  -6.885  -0.477  0.00  0.00    +0.087 A 
ATOM     34  N   UNL     1       2.241  -8.226  -0.730  0.00  0.00    -0.360 N 
ATOM     35  H   UNL     1       2.314  -8.917  -0.053  0.00  0.00    +0.165 HD
ATOM     36  C   UNL     1       2.224  -8.449  -2.089  0.00  0.00    +0.047 A 
ATOM     37  C   UNL     1       2.102  -7.195  -2.713  0.00  0.00    +0.003 A 
ATOM     38  C   UNL     1       2.052  -7.112  -4.106  0.00  0.00    +0.010 A 
ATOM     39  C   UNL     1       2.118  -8.252  -4.856  0.00  0.00    +0.001 A 
ATOM     40  C   UNL     1       2.235  -9.493  -4.245  0.00  0.00    +0.002 A 
ATOM     41  C   UNL     1       2.295  -9.597  -2.872  0.00  0.00    +0.026 A 
ENDBRANCH  31  32
ENDBRANCH   1  31
TORSDOF 11
