REMARK  Name = ZINC36523168
REMARK  14 active torsions:
REMARK  status: ('A' for Active; 'I' for Inactive)
REMARK    1  A    between atoms: C_1  and  C_2
REMARK    2  A    between atoms: C_2  and  C_3
REMARK    3  A    between atoms: C_3  and  C_4
REMARK    4  A    between atoms: C_4  and  N_5
REMARK    5  A    between atoms: C_6  and  C_8
REMARK    6  A    between atoms: C_8  and  C_10
REMARK    7  A    between atoms: C_8  and  N_19
REMARK    8  A    between atoms: C_11  and  O_18
REMARK    9  A    between atoms: C_13  and  O_17
REMARK   10  A    between atoms: C_15  and  O_16
REMARK   11  A    between atoms: N_19  and  C_20
REMARK   12  A    between atoms: C_21  and  C_23
REMARK   13  A    between atoms: C_23  and  C_31
REMARK   14  A    between atoms: C_24  and  C_25
REMARK                            x       y       z     vdW  Elec       q    Type
REMARK                         _______ _______ _______ _____ _____    ______ ____
ROOT
ATOM      1  C   UNL     1       2.188  -4.069  -3.881  0.00  0.00    +0.199 C 
ENDROOT
BRANCH   1   2
ATOM      2  C   UNL     1       3.489  -3.360  -3.605  0.00  0.00    +0.065 A 
ATOM      3  C   UNL     1       4.546  -3.480  -4.494  0.00  0.00    +0.129 A 
ATOM      4  C   UNL     1       5.743  -2.827  -4.240  0.00  0.00    +0.091 A 
ATOM      5  C   UNL     1       5.882  -2.054  -3.098  0.00  0.00    +0.124 A 
ATOM      6  C   UNL     1       4.824  -1.932  -2.209  0.00  0.00    +0.091 A 
ATOM      7  C   UNL     1       3.626  -2.582  -2.465  0.00  0.00    +0.129 A 
BRANCH   7   8
ATOM      8  O   UNL     1       2.587  -2.459  -1.597  0.00  0.00    -0.506 OA
ATOM      9  H   UNL     1       2.577  -3.128  -0.900  0.00  0.00    +0.292 HD
ENDBRANCH   7   8
BRANCH   5  10
ATOM     10  O   UNL     1       7.055  -1.414  -2.848  0.00  0.00    -0.507 OA
ATOM     11  H   UNL     1       7.104  -0.523  -3.220  0.00  0.00    +0.292 HD
ENDBRANCH   5  10
BRANCH   3  12
ATOM     12  O   UNL     1       4.410  -4.239  -5.613  0.00  0.00    -0.506 OA
ATOM     13  H   UNL     1       4.009  -3.771  -6.359  0.00  0.00    +0.292 HD
ENDBRANCH   3  12
ENDBRANCH   1   2
BRANCH   1  15
ATOM     14  N   UNL     1       0.668  -2.213  -3.280  0.00  0.00    -0.313 N 
ATOM     15  C   UNL     1       1.097  -3.466  -3.033  0.00  0.00    +0.238 C 
ATOM     16  O   UNL     1       0.606  -4.109  -2.130  0.00  0.00    -0.273 OA
ATOM     17  H   UNL     1       1.060  -1.699  -4.003  0.00  0.00    +0.149 HD
BRANCH  14  18
ATOM     18  C   UNL     1      -0.393  -1.627  -2.456  0.00  0.00    +0.104 C 
BRANCH  18  19
ATOM     19  C   UNL     1      -0.690  -0.207  -2.942  0.00  0.00    +0.018 C 
BRANCH  19  21
ATOM     20  C   UNL     1      -2.095   1.825  -2.568  0.00  0.00    +0.004 C 
ATOM     21  C   UNL     1      -1.797   0.405  -2.082  0.00  0.00    -0.002 C 
ENDBRANCH  19  21
ENDBRANCH  18  19
ENDBRANCH  14  18
ENDBRANCH   1  15
BRANCH   1  22
ATOM     22  N   UNL     1       2.329  -5.491  -3.556  0.00  0.00    -0.285 N 
ATOM     23  C   UNL     1       2.651  -5.902  -2.188  0.00  0.00    +0.133 C 
ATOM     24  C   UNL     1       2.163  -6.421  -4.517  0.00  0.00    +0.248 C 
ATOM     25  O   UNL     1       1.990  -6.079  -5.672  0.00  0.00    -0.270 OA
BRANCH  24  26
ATOM     26  C   UNL     1       2.189  -7.851  -4.170  0.00  0.00    +0.045 C 
ATOM     27  C   UNL     1       1.142  -8.409  -3.506  0.00  0.00    +0.021 C 
BRANCH  27  28
ATOM     28  C   UNL     1      -0.083  -7.630  -3.278  0.00  0.00    -0.024 A 
ATOM     29  C   UNL     1      -0.491  -6.671  -4.213  0.00  0.00    +0.008 A 
ATOM     30  C   UNL     1      -1.641  -5.945  -3.991  0.00  0.00    +0.001 A 
ATOM     31  C   UNL     1      -2.392  -6.162  -2.849  0.00  0.00    +0.000 A 
ATOM     32  C   UNL     1      -1.995  -7.108  -1.919  0.00  0.00    +0.001 A 
ATOM     33  C   UNL     1      -0.851  -7.847  -2.128  0.00  0.00    +0.008 A 
ENDBRANCH  27  28
BRANCH  26  34
ATOM     34  C   UNL     1       3.357  -8.682  -4.543  0.00  0.00    -0.013 A 
ATOM     35  C   UNL     1       4.604  -8.435  -3.969  0.00  0.00    +0.008 A 
ATOM     36  C   UNL     1       5.688  -9.213  -4.321  0.00  0.00    +0.001 A 
ATOM     37  C   UNL     1       5.540 -10.235  -5.241  0.00  0.00    +0.000 A 
ATOM     38  C   UNL     1       4.306 -10.484  -5.815  0.00  0.00    +0.001 A 
ATOM     39  C   UNL     1       3.213  -9.718  -5.466  0.00  0.00    +0.008 A 
ENDBRANCH  26  34
ENDBRANCH  24  26
ENDBRANCH   1  22
TORSDOF 12
