REMARK  Name = ZINC20673532
REMARK  1 active torsions:
REMARK  status: ('A' for Active; 'I' for Inactive)
REMARK    1  A    between atoms: C_3  and  C_9
REMARK                            x       y       z     vdW  Elec       q    Type
REMARK                         _______ _______ _______ _____ _____    ______ ____
ROOT
ATOM      1  C   UNL     1      -0.056   5.468  -0.052  0.00  0.00    +0.010 A 
ATOM      2  C   UNL     1      -0.067   4.061  -0.016  0.00  0.00    +0.067 A 
ATOM      3  C   UNL     1      -1.270   3.320   0.030  0.00  0.00    +0.131 A 
ATOM      4  N   UNL     1      -1.192   1.996   0.055  0.00  0.00    -0.199 NA
ATOM      5  C   UNL     1      -0.016   1.377   0.046  0.00  0.00    +0.216 A 
ATOM      6  N   UNL     1       1.135   2.023   0.003  0.00  0.00    -0.195 NA
ATOM      7  C   UNL     1       1.165   3.362  -0.027  0.00  0.00    +0.167 A 
ATOM      8  N   UNL     1       2.320   4.030  -0.065  0.00  0.00    -0.231 NA
ATOM      9  C   UNL     1       2.377   5.345  -0.093  0.00  0.00    +0.055 A 
ATOM     10  C   UNL     1       1.200   6.109  -0.095  0.00  0.00    +0.047 A 
ATOM     11  C   UNL     1       1.264   7.574  -0.147  0.00  0.00    +0.165 C 
ATOM     12  O   UNL     1       0.272   8.239  -0.363  0.00  0.00    -0.292 OA
ATOM     13  C   UNL     1       2.612   8.228   0.079  0.00  0.00    +0.080 C 
ATOM     14  C   UNL     1       3.652   7.412  -0.698  0.00  0.00    +0.014 C 
ATOM     15  C   UNL     1       3.732   6.004  -0.116  0.00  0.00    +0.056 C 
ATOM     16  N   UNL     1       0.003  -0.003   0.076  0.00  0.00    -0.327 N 
ATOM     17  N   UNL     1      -2.492   3.956   0.043  0.00  0.00    -0.342 N 
ATOM     18  H   UNL     1       0.963  -0.540   0.070  0.00  0.00    +0.145 HD
ATOM     19  H   UNL     1      -0.942  -0.566   0.108  0.00  0.00    +0.145 HD
ATOM     20  H   UNL     1      -3.419   3.365   0.079  0.00  0.00    +0.144 HD
ATOM     21  H   UNL     1      -2.540   5.055   0.018  0.00  0.00    +0.144 HD
ENDROOT
BRANCH   1  24
ATOM     22  C   UNL     1      -3.108   7.308  -1.235  0.00  0.00    +0.021 A 
ATOM     23  C   UNL     1      -1.935   6.583  -1.248  0.00  0.00    +0.011 A 
ATOM     24  C   UNL     1      -1.313   6.245  -0.045  0.00  0.00    +0.002 A 
ATOM     25  C   UNL     1      -1.887   6.640   1.167  0.00  0.00    +0.050 A 
ATOM     26  C   UNL     1      -3.058   7.370   1.166  0.00  0.00    +0.040 A 
ATOM     27  C   UNL     1      -3.670   7.701  -0.031  0.00  0.00    +0.042 A 
ATOM     28 CL   UNL     1      -5.146   8.614  -0.024  0.00  0.00    -0.083 Cl
ATOM     29 CL   UNL     1      -1.125   6.219   2.669  0.00  0.00    -0.083 Cl
ENDBRANCH   1  24
TORSDOF 1
