REMARK  Name = ZINC66567196
REMARK  4 active torsions:
REMARK  status: ('A' for Active; 'I' for Inactive)
REMARK    1  A    between atoms: C_4  and  N_7
REMARK    2  A    between atoms: N_7  and  C_8
REMARK    3  A    between atoms: N_7  and  C_21
REMARK    4  A    between atoms: C_8  and  C_9
REMARK                            x       y       z     vdW  Elec       q    Type
REMARK                         _______ _______ _______ _____ _____    ______ ____
ROOT
ATOM      1  C   UNL     1       4.864   0.115   0.079  0.00  0.00    +0.178 C 
ENDROOT
BRANCH   1   2
ATOM      2  C   UNL     1       5.103   0.472   1.523  0.00  0.00    +0.139 C 
ATOM      3  N   UNL     1       6.218   1.190   1.805  0.00  0.00    -0.299 N 
ATOM      4  C   UNL     1       6.805   1.273   3.065  0.00  0.00    +0.059 A 
ATOM      5  C   UNL     1       8.123   1.690   3.205  0.00  0.00    +0.025 A 
ATOM      6  C   UNL     1       8.689   1.770   4.462  0.00  0.00    +0.002 A 
ATOM      7  C   UNL     1       7.951   1.437   5.583  0.00  0.00    +0.002 A 
ATOM      8  C   UNL     1       6.638   1.020   5.450  0.00  0.00    +0.031 A 
ATOM      9  C   UNL     1       6.071   0.938   4.198  0.00  0.00    +0.134 A 
ATOM     10  S   UNL     1       4.403   0.403   3.991  0.00  0.00    +0.102 S 
ATOM     11  O   UNL     1       4.279  -0.833   4.681  0.00  0.00    -0.146 OA
ATOM     12  O   UNL     1       3.575   1.523   4.270  0.00  0.00    -0.146 OA
ATOM     13  N   UNL     1       4.230   0.074   2.375  0.00  0.00    -0.116 NA
ATOM     14  H   UNL     1       6.636   1.678   1.079  0.00  0.00    +0.153 HD
ENDBRANCH   1   2
BRANCH   1  15
ATOM     15  N   UNL     1       3.620  -0.649  -0.036  0.00  0.00    -0.320 N 
BRANCH  15  19
ATOM     16  C   UNL     1       0.010   1.333  -0.655  0.00  0.00    +0.000 A 
ATOM     17  C   UNL     1       1.164   2.058  -0.422  0.00  0.00    +0.002 A 
ATOM     18  C   UNL     1       2.363   1.404  -0.216  0.00  0.00    +0.023 A 
ATOM     19  C   UNL     1       2.409   0.016  -0.244  0.00  0.00    +0.030 A 
ATOM     20  C   UNL     1       1.248  -0.710  -0.478  0.00  0.00    +0.023 A 
ATOM     21  C   UNL     1       0.052  -0.050  -0.683  0.00  0.00    +0.002 A 
ENDBRANCH  15  19
BRANCH  15  22
ATOM     22  C   UNL     1       3.645  -2.110   0.066  0.00  0.00    +0.074 C 
ATOM     23  C   UNL     1       4.397  -2.538   1.344  0.00  0.00    +0.022 C 
ATOM     24  C   UNL     1       5.169  -3.812   0.922  0.00  0.00    +0.002 C 
ATOM     25  C   UNL     1       5.616  -3.479  -0.523  0.00  0.00    +0.002 C 
ATOM     26  C   UNL     1       4.420  -2.709  -1.121  0.00  0.00    +0.022 C 
ENDBRANCH  15  22
ENDBRANCH   1  15
TORSDOF 4
