REMARK  Name = ZINC33913293
REMARK  8 active torsions:
REMARK  status: ('A' for Active; 'I' for Inactive)
REMARK    1  A    between atoms: C_1  and  C_2
REMARK    2  A    between atoms: C_5  and  S_8
REMARK    3  A    between atoms: S_8  and  N_11
REMARK    4  A    between atoms: N_11  and  C_12
REMARK    5  A    between atoms: C_17  and  N_18
REMARK    6  A    between atoms: C_19  and  C_20
REMARK    7  A    between atoms: C_23  and  O_29
REMARK    8  A    between atoms: C_24  and  N_26
REMARK                            x       y       z     vdW  Elec       q    Type
REMARK                         _______ _______ _______ _____ _____    ______ ____
ROOT
ATOM      1  C   UNL     1       5.730  -3.112   1.399  0.00  0.00    +0.073 A 
ATOM      2  C   UNL     1       6.402  -3.068   2.612  0.00  0.00    +0.026 A 
ATOM      3  C   UNL     1       7.338  -4.037   2.920  0.00  0.00    +0.002 A 
ATOM      4  C   UNL     1       7.612  -5.056   2.024  0.00  0.00    +0.002 A 
ATOM      5  C   UNL     1       6.954  -5.114   0.813  0.00  0.00    +0.029 A 
ATOM      6  C   UNL     1       6.002  -4.146   0.491  0.00  0.00    +0.086 A 
ENDROOT
BRANCH   1   7
ATOM      7  N   UNL     1       4.785  -2.135   1.087  0.00  0.00    -0.214 N 
ATOM      8  H   UNL     1       4.008  -2.364   0.553  0.00  0.00    +0.174 HD
BRANCH   7   9
ATOM      9  S   UNL     1       4.989  -0.582   1.626  0.00  0.00    +0.072 S 
ATOM     10  O   UNL     1       5.149  -0.660   3.036  0.00  0.00    -0.150 OA
ATOM     11  O   UNL     1       3.970   0.197   1.016  0.00  0.00    -0.150 OA
BRANCH   9  16
ATOM     12  C   UNL     1      10.236   1.405  -0.594  0.00  0.00    +0.044 C 
ATOM     13  C   UNL     1       8.926   0.909  -0.040  0.00  0.00    -0.050 A 
ATOM     14  C   UNL     1       7.758   1.092  -0.757  0.00  0.00    +0.005 A 
ATOM     15  C   UNL     1       6.556   0.637  -0.248  0.00  0.00    +0.029 A 
ATOM     16  C   UNL     1       6.522  -0.003   0.977  0.00  0.00    +0.109 A 
ATOM     17  C   UNL     1       7.689  -0.187   1.694  0.00  0.00    +0.029 A 
ATOM     18  C   UNL     1       8.892   0.265   1.183  0.00  0.00    +0.005 A 
ENDBRANCH   9  16
ENDBRANCH   7   9
ENDBRANCH   1   7
BRANCH   6  19
ATOM     19  N   UNL     1       5.342  -4.202  -0.706  0.00  0.00    -0.253 NA
ATOM     20  C   UNL     1       4.759  -5.307  -1.078  0.00  0.00    +0.119 C 
BRANCH  20  21
ATOM     21  C   UNL     1       4.901  -6.523  -0.263  0.00  0.00    -0.005 A 
ATOM     22  C   UNL     1       4.422  -6.547   1.052  0.00  0.00    +0.013 A 
ATOM     23  C   UNL     1       4.557  -7.688   1.810  0.00  0.00    +0.048 A 
ATOM     24  C   UNL     1       5.167  -8.815   1.273  0.00  0.00    +0.147 A 
ATOM     25  C   UNL     1       5.645  -8.796  -0.032  0.00  0.00    +0.168 A 
ATOM     26  C   UNL     1       5.509  -7.662  -0.801  0.00  0.00    +0.046 A 
BRANCH  25  27
ATOM     27  N   UNL     1       6.295 -10.000  -0.598  0.00  0.00    +0.060 N 
ATOM     28  O   UNL     1       6.710  -9.985  -1.733  0.00  0.00    -0.126 OA
ATOM     29  O   UNL     1       6.410 -10.998   0.074  0.00  0.00    -0.126 OA
ENDBRANCH  25  27
BRANCH  24  30
ATOM     30  O   UNL     1       5.298  -9.938   2.025  0.00  0.00    -0.504 OA
ATOM     31  H   UNL     1       4.552 -10.549   1.952  0.00  0.00    +0.292 HD
ENDBRANCH  24  30
ENDBRANCH  20  21
ENDBRANCH   6  19
TORSDOF 7
