REMARK  Name = ZINC15959339
REMARK  5 active torsions:
REMARK  status: ('A' for Active; 'I' for Inactive)
REMARK    1  A    between atoms: C_4  and  C_7
REMARK    2  A    between atoms: C_7  and  C_8
REMARK    3  A    between atoms: C_8  and  N_9
REMARK    4  A    between atoms: C_14  and  C_31
REMARK    5  A    between atoms: C_31  and  C_32
REMARK                            x       y       z     vdW  Elec       q    Type
REMARK                         _______ _______ _______ _____ _____    ______ ____
ROOT
ATOM      1  N   UNL     1       6.005  -1.103   0.754  0.00  0.00    -0.241 N 
ATOM      2  C   UNL     1       6.108  -2.327   1.284  0.00  0.00    +0.227 C 
ATOM      3  O   UNL     1       5.241  -2.891   1.917  0.00  0.00    -0.275 OA
ATOM      4  C   UNL     1       7.472  -2.897   0.973  0.00  0.00    +0.107 C 
ATOM      5  C   UNL     1       7.319  -4.088   0.004  0.00  0.00    +0.072 C 
ATOM      6  N   UNL     1       7.320  -3.480  -1.353  0.00  0.00    -0.295 NA
ATOM      7  C   UNL     1       8.322  -2.401  -1.263  0.00  0.00    +0.136 C 
ATOM      8  C   UNL     1       8.151  -1.772   0.143  0.00  0.00    +0.122 C 
ATOM      9  C   UNL     1       7.091  -0.694   0.088  0.00  0.00    +0.228 C 
ATOM     10  O   UNL     1       7.209   0.376  -0.469  0.00  0.00    -0.275 OA
ATOM     11  C   UNL     1       8.138  -1.385  -2.353  0.00  0.00    +0.003 A 
ATOM     12  C   UNL     1       7.098  -0.557  -2.713  0.00  0.00    +0.008 A 
ATOM     13  C   UNL     1       7.232   0.293  -3.797  0.00  0.00    +0.000 A 
ATOM     14  C   UNL     1       8.413   0.309  -4.517  0.00  0.00    +0.002 A 
ATOM     15  C   UNL     1       9.459  -0.516  -4.158  0.00  0.00    +0.023 A 
ATOM     16  C   UNL     1       9.332  -1.375  -3.069  0.00  0.00    +0.039 A 
ATOM     17  N   UNL     1      10.233  -2.288  -2.518  0.00  0.00    -0.283 N 
ATOM     18  C   UNL     1       9.717  -2.932  -1.453  0.00  0.00    +0.243 C 
ATOM     19  O   UNL     1      10.269  -3.775  -0.778  0.00  0.00    -0.273 OA
ATOM     20  H   UNL     1       7.582  -4.158  -2.053  0.00  0.00    +0.124 HD
ATOM     21  H   UNL     1      11.127  -2.442  -2.862  0.00  0.00    +0.155 HD
ENDROOT
BRANCH   1  22
ATOM     22  C   UNL     1       4.799  -0.281   0.884  0.00  0.00    +0.121 C 
BRANCH  22  23
ATOM     23  C   UNL     1       3.854  -0.572  -0.283  0.00  0.00    +0.054 C 
BRANCH  23  27
ATOM     24  C   UNL     1       0.338   1.824   0.097  0.00  0.00    +0.000 A 
ATOM     25  C   UNL     1       1.430   2.304  -0.603  0.00  0.00    +0.000 A 
ATOM     26  C   UNL     1       2.568   1.529  -0.725  0.00  0.00    +0.004 A 
ATOM     27  C   UNL     1       2.614   0.274  -0.148  0.00  0.00    -0.046 A 
ATOM     28  C   UNL     1       1.523  -0.206   0.552  0.00  0.00    +0.004 A 
ATOM     29  C   UNL     1       0.385   0.569   0.673  0.00  0.00    +0.000 A 
ENDBRANCH  23  27
ENDBRANCH  22  23
ENDBRANCH   1  22
BRANCH   5  30
ATOM     30  C   UNL     1       8.495  -5.055   0.158  0.00  0.00    +0.054 C 
BRANCH  30  31
ATOM     31  C   UNL     1       8.136  -6.128   1.153  0.00  0.00    -0.046 A 
ATOM     32  C   UNL     1       8.405  -5.943   2.496  0.00  0.00    +0.004 A 
ATOM     33  C   UNL     1       8.076  -6.928   3.409  0.00  0.00    +0.000 A 
ATOM     34  C   UNL     1       7.477  -8.097   2.978  0.00  0.00    +0.000 A 
ATOM     35  C   UNL     1       7.207  -8.282   1.635  0.00  0.00    +0.000 A 
ATOM     36  C   UNL     1       7.533  -7.295   0.723  0.00  0.00    +0.004 A 
ENDBRANCH  30  31
ENDBRANCH   5  30
TORSDOF 5
