REMARK  Name = ZINC45093036
REMARK  8 active torsions:
REMARK  status: ('A' for Active; 'I' for Inactive)
REMARK    1  A    between atoms: C_1  and  C_2
REMARK    2  A    between atoms: C_2  and  C_3
REMARK    3  A    between atoms: C_3  and  N_4
REMARK    4  A    between atoms: N_4  and  C_5
REMARK    5  A    between atoms: N_4  and  S_10
REMARK    6  A    between atoms: C_5  and  C_6
REMARK    7  A    between atoms: N_7  and  O_8
REMARK    8  A    between atoms: S_10  and  C_13
REMARK                            x       y       z     vdW  Elec       q    Type
REMARK                         _______ _______ _______ _____ _____    ______ ____
ROOT
ATOM      1  N   UNL     1       0.738  -1.962  -1.265  0.00  0.00    -0.169 NA
ENDROOT
BRANCH   1   2
ATOM      2  S   UNL     1       2.055  -2.776  -0.676  0.00  0.00    +0.064 S 
ATOM      3  O   UNL     1       2.053  -4.054  -1.296  0.00  0.00    -0.153 OA
ATOM      4  O   UNL     1       3.158  -1.885  -0.769  0.00  0.00    -0.153 OA
BRANCH   2   5
ATOM      5  C   UNL     1       1.772  -3.050   1.042  0.00  0.00    +0.142 A 
ATOM      6  C   UNL     1       2.187  -2.111   1.969  0.00  0.00    +0.070 A 
ATOM      7  C   UNL     1       1.965  -2.326   3.318  0.00  0.00    +0.037 A 
ATOM      8  C   UNL     1       1.328  -3.479   3.739  0.00  0.00    +0.021 A 
ATOM      9  C   UNL     1       0.913  -4.418   2.811  0.00  0.00    +0.037 A 
ATOM     10  C   UNL     1       1.130  -4.200   1.462  0.00  0.00    +0.070 A 
ATOM     11 CL   UNL     1       0.603  -5.375   0.298  0.00  0.00    -0.081 Cl
ATOM     12 BR   UNL     1       1.025  -3.773   5.582  0.00  0.00    -0.050 Br
ATOM     13 CL   UNL     1       2.988  -0.664   1.441  0.00  0.00    -0.081 Cl
ENDBRANCH   2   5
ENDBRANCH   1   2
BRANCH   1  14
ATOM     14  C   UNL     1       0.718  -0.497  -1.257  0.00  0.00    +0.109 C 
BRANCH  14  16
ATOM     15  C   UNL     1      -0.019   1.526   0.010  0.00  0.00    +0.005 C 
ATOM     16  C   UNL     1       0.002  -0.004   0.002  0.00  0.00    +0.014 C 
ENDBRANCH  14  16
ENDBRANCH   1  14
BRANCH   1  17
ATOM     17  C   UNL     1      -0.407  -2.708  -1.794  0.00  0.00    +0.184 C 
BRANCH  17  18
ATOM     18  C   UNL     1      -0.271  -2.841  -3.289  0.00  0.00    +0.147 C 
ATOM     19  N   UNL     1       0.750  -2.330  -3.893  0.00  0.00    -0.075 NA
ATOM     20  N   UNL     1      -1.236  -3.509  -4.011  0.00  0.00    -0.343 N 
ATOM     21  H   UNL     1      -2.003  -3.892  -3.557  0.00  0.00    +0.144 HD
ATOM     22  H   UNL     1      -1.149  -3.595  -4.973  0.00  0.00    +0.144 HD
BRANCH  19  23
ATOM     23  O   UNL     1       0.877  -2.456  -5.298  0.00  0.00    -0.408 OA
ATOM     24  H   UNL     1       1.673  -2.042  -5.660  0.00  0.00    +0.328 HD
ENDBRANCH  19  23
ENDBRANCH  17  18
ENDBRANCH   1  17
TORSDOF 7
