REMARK  Name = ZINC62152882
REMARK  3 active torsions:
REMARK  status: ('A' for Active; 'I' for Inactive)
REMARK    1  A    between atoms: C_3  and  N_22
REMARK    2  A    between atoms: C_6  and  C_7
REMARK    3  A    between atoms: C_14  and  C_17
REMARK                            x       y       z     vdW  Elec       q    Type
REMARK                         _______ _______ _______ _____ _____    ______ ____
ROOT
ATOM      1  C   UNL     1      -1.266  -0.762   0.011  0.00  0.00    +0.139 A 
ATOM      2  N   UNL     1      -1.369  -2.127   0.010  0.00  0.00    -0.338 N 
ATOM      3  H   UNL     1      -0.633  -2.760   0.004  0.00  0.00    +0.167 HD
ATOM      4  C   UNL     1      -2.715  -2.436   0.019  0.00  0.00    +0.068 A 
ATOM      5  C   UNL     1      -3.430  -3.626   0.023  0.00  0.00    +0.047 A 
ATOM      6  C   UNL     1      -4.810  -3.594   0.033  0.00  0.00    +0.044 A 
ATOM      7  C   UNL     1      -5.486  -2.381   0.039  0.00  0.00    +0.034 A 
ATOM      8  C   UNL     1      -4.799  -1.201   0.035  0.00  0.00    +0.084 A 
ATOM      9  C   UNL     1      -3.400  -1.208   0.026  0.00  0.00    +0.101 A 
ATOM     10  N   UNL     1      -2.464  -0.228   0.026  0.00  0.00    -0.227 NA
ATOM     11 CL   UNL     1      -5.707  -5.081   0.036  0.00  0.00    -0.083 Cl
ENDROOT
BRANCH   1  17
ATOM     12  C   UNL     1      -0.017   1.392   0.010  0.00  0.00    +0.013 A 
ATOM     13  C   UNL     1       1.167   2.096   0.002  0.00  0.00    +0.023 A 
ATOM     14  C   UNL     1       2.381   1.417  -0.013  0.00  0.00    +0.025 A 
ATOM     15  C   UNL     1       2.403   0.026  -0.022  0.00  0.00    +0.023 A 
ATOM     16  C   UNL     1       1.222  -0.683  -0.014  0.00  0.00    +0.013 A 
ATOM     17  C   UNL     1       0.002  -0.004   0.002  0.00  0.00    +0.017 A 
BRANCH  14  18
ATOM     18  N   UNL     1       3.578   2.131  -0.022  0.00  0.00    -0.358 N 
ATOM     19  H   UNL     1       3.563   3.101  -0.016  0.00  0.00    +0.142 HD
ATOM     20  H   UNL     1       4.425   1.659  -0.033  0.00  0.00    +0.142 HD
ENDBRANCH  14  18
ENDBRANCH   1  17
BRANCH   8  21
ATOM     21  C   UNL     1      -5.546   0.108   0.042  0.00  0.00    +0.419 C 
ATOM     22  F   UNL     1      -6.923  -0.142   0.051  0.00  0.00    -0.166 F 
ATOM     23  F   UNL     1      -5.197   0.839   1.182  0.00  0.00    -0.166 F 
ATOM     24  F   UNL     1      -5.213   0.841  -1.103  0.00  0.00    -0.166 F 
ENDBRANCH   8  21
TORSDOF 3
