REMARK  Name = ZINC40612371
REMARK  7 active torsions:
REMARK  status: ('A' for Active; 'I' for Inactive)
REMARK    1  A    between atoms: C_1  and  C_2
REMARK    2  A    between atoms: C_10  and  N_32
REMARK    3  A    between atoms: C_11  and  N_15
REMARK    4  A    between atoms: N_15  and  N_16
REMARK    5  A    between atoms: C_17  and  C_19
REMARK    6  A    between atoms: C_19  and  C_20
REMARK    7  A    between atoms: C_19  and  C_26
REMARK                            x       y       z     vdW  Elec       q    Type
REMARK                         _______ _______ _______ _____ _____    ______ ____
ROOT
ATOM      1  N   UNL     1       3.487  -5.677   2.029  0.00  0.00    -0.246 N 
ATOM      2  H   UNL     1       2.547  -5.884   2.152  0.00  0.00    +0.172 HD
ENDROOT
BRANCH   1  12
ATOM      3  C   UNL     1       1.792   2.109   3.163  0.00  0.00    +0.009 C 
ATOM      4  C   UNL     1       2.317   1.245   2.015  0.00  0.00    +0.003 C 
ATOM      5  C   UNL     1       1.576   1.603   0.725  0.00  0.00    +0.006 C 
ATOM      6  C   UNL     1       2.123   0.763  -0.431  0.00  0.00    +0.019 C 
ATOM      7  C   UNL     1       1.888  -0.722  -0.134  0.00  0.00    +0.106 C 
ATOM      8  N   UNL     1       2.474  -1.041   1.175  0.00  0.00    -0.313 N 
ATOM      9  C   UNL     1       2.084  -0.234   2.340  0.00  0.00    +0.109 C 
ATOM     10  C   UNL     1       3.377  -2.084   1.310  0.00  0.00    +0.157 A 
ATOM     11  C   UNL     1       2.932  -3.368   1.608  0.00  0.00    +0.207 A 
ATOM     12  C   UNL     1       3.878  -4.381   1.732  0.00  0.00    +0.171 A 
ATOM     13  N   UNL     1       5.166  -4.086   1.562  0.00  0.00    -0.217 NA
ATOM     14  C   UNL     1       5.547  -2.857   1.280  0.00  0.00    +0.225 A 
ATOM     15  N   UNL     1       4.682  -1.873   1.150  0.00  0.00    -0.218 NA
BRANCH  11  16
ATOM     16  N   UNL     1       1.490  -3.650   1.790  0.00  0.00    +0.063 N 
ATOM     17  O   UNL     1       0.817  -3.990   0.845  0.00  0.00    -0.126 OA
ATOM     18  O   UNL     1       0.986  -3.540   2.883  0.00  0.00    -0.126 OA
ENDBRANCH  11  16
ENDBRANCH   1  12
BRANCH   1  19
ATOM     19  N   UNL     1       4.448  -6.689   2.151  0.00  0.00    -0.235 N 
ATOM     20  C   UNL     1       4.067  -7.949   2.440  0.00  0.00    +0.241 C 
ATOM     21  O   UNL     1       2.892  -8.207   2.594  0.00  0.00    -0.273 OA
ATOM     22  H   UNL     1       5.388  -6.482   2.029  0.00  0.00    +0.173 HD
BRANCH  20  23
ATOM     23  C   UNL     1       5.101  -9.037   2.572  0.00  0.00    +0.136 C 
BRANCH  23  24
ATOM     24  C   UNL     1       6.063  -8.685   3.678  0.00  0.00    -0.031 A 
ATOM     25  C   UNL     1       5.582  -8.303   4.916  0.00  0.00    +0.005 A 
ATOM     26  C   UNL     1       6.464  -7.980   5.930  0.00  0.00    +0.000 A 
ATOM     27  C   UNL     1       7.827  -8.040   5.706  0.00  0.00    +0.000 A 
ATOM     28  C   UNL     1       8.308  -8.423   4.468  0.00  0.00    +0.000 A 
ATOM     29  C   UNL     1       7.426  -8.750   3.455  0.00  0.00    +0.005 A 
ENDBRANCH  23  24
BRANCH  23  30
ATOM     30  C   UNL     1       4.420 -10.342   2.895  0.00  0.00    -0.031 A 
ATOM     31  C   UNL     1       3.542 -10.417   3.961  0.00  0.00    +0.005 A 
ATOM     32  C   UNL     1       2.916 -11.614   4.257  0.00  0.00    +0.000 A 
ATOM     33  C   UNL     1       3.168 -12.735   3.489  0.00  0.00    +0.000 A 
ATOM     34  C   UNL     1       4.045 -12.659   2.423  0.00  0.00    +0.000 A 
ATOM     35  C   UNL     1       4.668 -11.461   2.123  0.00  0.00    +0.005 A 
ENDBRANCH  23  30
ENDBRANCH  20  23
ENDBRANCH   1  19
TORSDOF 6
