REMARK  Name = ZINC40031346
REMARK  9 active torsions:
REMARK  status: ('A' for Active; 'I' for Inactive)
REMARK    1  A    between atoms: C_1  and  C_2
REMARK    2  A    between atoms: C_2  and  O_3
REMARK    3  A    between atoms: O_3  and  C_4
REMARK    4  A    between atoms: C_6  and  C_11
REMARK    5  A    between atoms: C_9  and  O_10
REMARK    6  A    between atoms: N_26  and  C_27
REMARK    7  A    between atoms: C_27  and  C_28
REMARK    8  A    between atoms: C_28  and  C_29
REMARK    9  A    between atoms: C_29  and  O_30
REMARK                            x       y       z     vdW  Elec       q    Type
REMARK                         _______ _______ _______ _____ _____    ______ ____
ROOT
ATOM      1  C   UNL     1       0.654  -4.954  -0.018  0.00  0.00    +0.145 C 
ATOM      2  C   UNL     1       0.879  -5.498  -1.391  0.00  0.00    +0.072 A 
ATOM      3  C   UNL     1       1.149  -4.825  -2.665  0.00  0.00    +0.199 A 
ATOM      4  O   UNL     1       1.406  -3.637  -2.751  0.00  0.00    -0.287 OA
ATOM      5  C   UNL     1       1.079  -5.728  -3.841  0.00  0.00    +0.066 A 
ATOM      6  C   UNL     1       1.115  -5.207  -5.135  0.00  0.00    +0.035 A 
ATOM      7  C   UNL     1       1.044  -6.060  -6.215  0.00  0.00    +0.042 A 
ATOM      8  C   UNL     1       0.937  -7.431  -6.013  0.00  0.00    +0.023 A 
ATOM      9  C   UNL     1       0.902  -7.955  -4.741  0.00  0.00    +0.048 A 
ATOM     10  C   UNL     1       0.976  -7.113  -3.632  0.00  0.00    +0.140 A 
ATOM     11  O   UNL     1       0.951  -7.657  -2.393  0.00  0.00    -0.450 OA
ATOM     12  C   UNL     1       0.789  -6.859  -1.319  0.00  0.00    +0.199 A 
ATOM     13  C   UNL     1       0.501  -7.230   0.078  0.00  0.00    +0.283 C 
ATOM     14  O   UNL     1       0.357  -8.368   0.480  0.00  0.00    -0.267 OA
ATOM     15  N   UNL     1       0.422  -6.123   0.846  0.00  0.00    -0.284 N 
ATOM     16 CL   UNL     1       1.087  -5.422  -7.828  0.00  0.00    -0.084 Cl
ENDROOT
BRANCH   1  19
ATOM     17  C   UNL     1      -1.498  -1.849   0.006  0.00  0.00    +0.162 A 
ATOM     18  C   UNL     1      -0.389  -2.680  -0.003  0.00  0.00    +0.055 A 
ATOM     19  C   UNL     1      -0.553  -4.052  -0.008  0.00  0.00    -0.019 A 
ATOM     20  C   UNL     1      -1.823  -4.600  -0.005  0.00  0.00    +0.009 A 
ATOM     21  C   UNL     1      -2.934  -3.777   0.004  0.00  0.00    +0.049 A 
ATOM     22  C   UNL     1      -2.776  -2.400   0.016  0.00  0.00    +0.158 A 
BRANCH  22  23
ATOM     23  O   UNL     1      -3.868  -1.589   0.030  0.00  0.00    -0.503 OA
ATOM     24  H   UNL     1      -4.192  -1.350  -0.849  0.00  0.00    +0.292 HD
ENDBRANCH  22  23
BRANCH  17  25
ATOM     25  O   UNL     1      -1.339  -0.499   0.012  0.00  0.00    -0.489 OA
BRANCH  25  27
ATOM     26  C   UNL     1      -0.019   1.526   0.010  0.00  0.00    +0.048 C 
ATOM     27  C   UNL     1       0.002  -0.004   0.002  0.00  0.00    +0.226 C 
ENDBRANCH  25  27
ENDBRANCH  17  25
ENDBRANCH   1  19
BRANCH  15  28
ATOM     28  C   UNL     1       0.154  -6.089   2.286  0.00  0.00    +0.111 C 
BRANCH  28  29
ATOM     29  C   UNL     1      -1.355  -5.993   2.522  0.00  0.00    +0.047 C 
BRANCH  29  30
ATOM     30  C   UNL     1      -1.635  -5.957   4.025  0.00  0.00    +0.157 C 
BRANCH  30  31
ATOM     31  O   UNL     1      -3.044  -5.868   4.245  0.00  0.00    -0.395 OA
ATOM     32  H   UNL     1      -3.296  -5.841   5.178  0.00  0.00    +0.209 HD
ENDBRANCH  30  31
ENDBRANCH  29  30
ENDBRANCH  28  29
ENDBRANCH  15  28
TORSDOF 8
