REMARK  Name = ZINC35396479
REMARK  9 active torsions:
REMARK  status: ('A' for Active; 'I' for Inactive)
REMARK    1  A    between atoms: C_1  and  C_2
REMARK    2  A    between atoms: C_2  and  C_3
REMARK    3  A    between atoms: C_4  and  O_38
REMARK    4  A    between atoms: C_7  and  C_9
REMARK    5  A    between atoms: N_10  and  C_11
REMARK    6  A    between atoms: C_11  and  C_12
REMARK    7  A    between atoms: C_12  and  C_14
REMARK    8  A    between atoms: C_20  and  C_37
REMARK    9  A    between atoms: C_35  and  C_36
REMARK                            x       y       z     vdW  Elec       q    Type
REMARK                         _______ _______ _______ _____ _____    ______ ____
ROOT
ATOM      1  C   UNL     1       6.731  -1.367  -5.240  0.00  0.00    +0.063 C 
ATOM      2  C   UNL     1       6.314  -0.550  -6.490  0.00  0.00    +0.012 C 
ATOM      3  C   UNL     1       7.601   0.163  -6.997  0.00  0.00    +0.005 C 
ATOM      4  C   UNL     1       8.713  -0.675  -6.342  0.00  0.00    -0.001 C 
ATOM      5  C   UNL     1       8.154  -0.866  -4.918  0.00  0.00    -0.019 C 
ATOM      6  C   UNL     1       8.995  -1.821  -4.109  0.00  0.00    +0.008 C 
ATOM      7  C   UNL     1      10.443  -1.850  -4.638  0.00  0.00    +0.005 C 
ATOM      8  C   UNL     1      10.828  -0.442  -5.065  0.00  0.00    +0.002 C 
ATOM      9  C   UNL     1      10.095  -0.103  -6.370  0.00  0.00    -0.003 C 
ATOM     10  C   UNL     1      10.216   1.381  -6.672  0.00  0.00    +0.008 C 
ATOM     11  C   UNL     1      11.709   1.687  -6.913  0.00  0.00    +0.032 C 
ATOM     12  C   UNL     1      12.476   1.236  -5.681  0.00  0.00    -0.060 C 
ATOM     13  C   UNL     1      13.252   2.123  -5.068  0.00  0.00    +0.046 C 
ATOM     14  C   UNL     1      13.957   1.748  -3.837  0.00  0.00    +0.156 C 
ATOM     15  O   UNL     1      14.951   2.323  -3.452  0.00  0.00    -0.293 OA
ATOM     16  C   UNL     1      13.327   0.616  -3.045  0.00  0.00    +0.080 C 
ATOM     17  C   UNL     1      13.113  -0.556  -3.995  0.00  0.00    +0.019 C 
ATOM     18  C   UNL     1      12.318  -0.192  -5.228  0.00  0.00    -0.007 C 
ATOM     19  C   UNL     1      12.855  -1.090  -6.342  0.00  0.00    +0.016 C 
ATOM     20  C   UNL     1       8.002   0.467  -4.181  0.00  0.00    +0.012 C 
ENDROOT
BRANCH   1  21
ATOM     21  C   UNL     1       5.811  -1.067  -4.088  0.00  0.00    +0.156 C 
ATOM     22  O   UNL     1       5.121  -0.076  -4.109  0.00  0.00    -0.295 OA
BRANCH  21  23
ATOM     23  C   UNL     1       5.750  -2.002  -2.908  0.00  0.00    +0.187 C 
BRANCH  23  31
ATOM     24  C   UNL     1       1.644  -2.473  -0.392  0.00  0.00    +0.060 A 
ATOM     25  C   UNL     1       2.764  -1.750  -0.605  0.00  0.00    +0.159 A 
ATOM     26  C   UNL     1       3.677  -2.166  -1.679  0.00  0.00    +0.081 A 
ATOM     27  C   UNL     1       3.331  -3.315  -2.444  0.00  0.00    +0.050 A 
ATOM     28  C   UNL     1       2.192  -3.975  -2.160  0.00  0.00    +0.015 A 
ATOM     29  N   UNL     1       1.371  -3.570  -1.157  0.00  0.00    -0.359 N 
ATOM     30  C   UNL     1       1.825  -5.192  -2.968  0.00  0.00    +0.063 C 
ATOM     31  N   UNL     1       4.787  -1.492  -1.929  0.00  0.00    -0.375 N 
ATOM     32  H   UNL     1       4.964  -0.659  -1.464  0.00  0.00    +0.160 HD
ATOM     33  H   UNL     1       0.561  -4.075  -0.980  0.00  0.00    +0.165 HD
BRANCH  24  35
ATOM     34  C   UNL     1      -0.424  -1.202   0.114  0.00  0.00    +0.010 C 
ATOM     35  C   UNL     1       0.691  -2.069   0.703  0.00  0.00    +0.053 C 
ENDBRANCH  24  35
BRANCH  25  36
ATOM     36  O   UNL     1       3.042  -0.658   0.159  0.00  0.00    -0.503 OA
ATOM     37  H   UNL     1       3.868  -0.213  -0.076  0.00  0.00    +0.292 HD
ENDBRANCH  25  36
ENDBRANCH  23  31
ENDBRANCH  21  23
ENDBRANCH   1  21
TORSDOF 5
