REMARK  Name = ZINC16809294
REMARK  10 active torsions:
REMARK  status: ('A' for Active; 'I' for Inactive)
REMARK    1  A    between atoms: C_1  and  C_2
REMARK    2  A    between atoms: C_3  and  C_24
REMARK    3  A    between atoms: C_16  and  C_20
REMARK    4  A    between atoms: C_17  and  C_19
REMARK    5  A    between atoms: C_20  and  C_21
REMARK    6  A    between atoms: C_21  and  C_22
REMARK    7  A    between atoms: C_21  and  C_23
REMARK    8  A    between atoms: C_24  and  C_25
REMARK    9  A    between atoms: C_28  and  O_31
REMARK   10  A    between atoms: O_31  and  C_32
REMARK                            x       y       z     vdW  Elec       q    Type
REMARK                         _______ _______ _______ _____ _____    ______ ____
ROOT
ATOM      1  C   UNL     1       0.631   1.928   1.346  0.00  0.00    +0.066 C 
ATOM      2  C   UNL     1       0.607   0.433   1.530  0.00  0.00    +0.050 A 
ATOM      3  C   UNL     1      -0.534  -0.183   1.954  0.00  0.00    +0.042 A 
ATOM      4  C   UNL     1      -0.531  -1.580   2.118  0.00  0.00    +0.256 A 
ATOM      5  O   UNL     1      -1.534  -2.164   2.495  0.00  0.00    -0.267 OA
ATOM      6  N   UNL     1       0.603  -2.263   1.849  0.00  0.00    -0.295 N 
ATOM      7  H   UNL     1       0.627  -3.226   1.954  0.00  0.00    +0.172 HD
ATOM      8  C   UNL     1       1.710  -1.594   1.429  0.00  0.00    +0.202 A 
ATOM      9  N   UNL     1       1.698  -0.286   1.273  0.00  0.00    -0.221 NA
ATOM     10  N   UNL     1       2.860  -2.295   1.158  0.00  0.00    -0.255 N 
ATOM     11  C   UNL     1       3.986  -1.631   0.733  0.00  0.00    +0.202 A 
ATOM     12  N   UNL     1       5.116  -2.338   0.463  0.00  0.00    -0.295 N 
ATOM     13  H   UNL     1       5.124  -3.302   0.570  0.00  0.00    +0.172 HD
ATOM     14  C   UNL     1       6.226  -1.693   0.045  0.00  0.00    +0.256 A 
ATOM     15  O   UNL     1       7.249  -2.312  -0.202  0.00  0.00    -0.267 OA
ATOM     16  C   UNL     1       6.181  -0.295  -0.101  0.00  0.00    +0.038 A 
ATOM     17  C   UNL     1       5.019   0.360   0.185  0.00  0.00    +0.050 A 
ATOM     18  N   UNL     1       3.950  -0.323   0.589  0.00  0.00    -0.221 NA
ATOM     19  C   UNL     1       4.944   1.858   0.039  0.00  0.00    +0.066 C 
ATOM     20  H   UNL     1       2.877  -3.259   1.267  0.00  0.00    +0.158 HD
ENDROOT
BRANCH  16  21
ATOM     21  C   UNL     1       7.396   0.467  -0.564  0.00  0.00    +0.045 C 
BRANCH  21  22
ATOM     22  C   UNL     1       7.419   0.509  -2.093  0.00  0.00    -0.013 C 
ATOM     23  C   UNL     1       8.567   1.405  -2.561  0.00  0.00    +0.007 C 
ATOM     24  C   UNL     1       7.621  -0.906  -2.639  0.00  0.00    +0.007 C 
ENDBRANCH  21  22
ENDBRANCH  16  21
BRANCH   3  25
ATOM     25  C   UNL     1      -1.777   0.620   2.242  0.00  0.00    +0.077 C 
BRANCH  25  26
ATOM     26  C   UNL     1      -2.665   0.625   1.025  0.00  0.00    -0.043 A 
ATOM     27  C   UNL     1      -2.520   1.614   0.070  0.00  0.00    +0.007 A 
ATOM     28  C   UNL     1      -3.334   1.622  -1.047  0.00  0.00    +0.046 A 
ATOM     29  C   UNL     1      -4.296   0.636  -1.209  0.00  0.00    +0.120 A 
ATOM     30  C   UNL     1      -4.439  -0.356  -0.250  0.00  0.00    +0.046 A 
ATOM     31  C   UNL     1      -3.619  -0.362   0.863  0.00  0.00    +0.007 A 
BRANCH  29  32
ATOM     32  O   UNL     1      -5.098   0.641  -2.307  0.00  0.00    -0.495 OA
ATOM     33  C   UNL     1      -6.066  -0.404  -2.408  0.00  0.00    +0.277 C 
ENDBRANCH  29  32
ENDBRANCH  25  26
ENDBRANCH   3  25
TORSDOF 5
