REMARK  Name = ZINC14544797
REMARK  7 active torsions:
REMARK  status: ('A' for Active; 'I' for Inactive)
REMARK    1  A    between atoms: C_1  and  C_2
REMARK    2  A    between atoms: C_2  and  O_3
REMARK    3  A    between atoms: O_3  and  C_4
REMARK    4  A    between atoms: C_7  and  N_10
REMARK    5  A    between atoms: N_10  and  S_11
REMARK    6  A    between atoms: S_11  and  C_14
REMARK    7  A    between atoms: C_27  and  C_30
REMARK                            x       y       z     vdW  Elec       q    Type
REMARK                         _______ _______ _______ _____ _____    ______ ____
ROOT
ATOM      1  C   UNL     1      -4.253   1.838  -0.598  0.00  0.00    +0.109 A 
ATOM      2  C   UNL     1      -3.610   0.700  -1.051  0.00  0.00    +0.030 A 
ATOM      3  C   UNL     1      -4.090  -0.544  -0.695  0.00  0.00    +0.025 A 
ATOM      4  C   UNL     1      -5.220  -0.650   0.107  0.00  0.00    +0.031 A 
ATOM      5  C   UNL     1      -5.870   0.487   0.560  0.00  0.00    -0.018 A 
ATOM      6  C   UNL     1      -5.375   1.733   0.199  0.00  0.00    +0.034 A 
ATOM      7  C   UNL     1      -7.087   0.422   1.426  0.00  0.00    +0.049 C 
ATOM      8  C   UNL     1      -6.761   0.766   2.861  0.00  0.00    -0.023 C 
ATOM      9  C   UNL     1      -7.478   0.033   3.677  0.00  0.00    -0.030 C 
ATOM     10  C   UNL     1      -8.386  -0.898   2.897  0.00  0.00    +0.033 C 
ATOM     11  C   UNL     1      -7.694  -0.992   1.505  0.00  0.00    +0.029 C 
ATOM     12  C   UNL     1      -6.578  -2.034   1.622  0.00  0.00    +0.107 C 
ATOM     13  N   UNL     1      -5.696  -1.919   0.456  0.00  0.00    -0.336 N 
ATOM     14  H   UNL     1      -5.448  -2.702  -0.060  0.00  0.00    +0.147 HD
ENDROOT
BRANCH  12  15
ATOM     15  C   UNL     1      -5.787  -1.788   2.880  0.00  0.00    -0.002 A 
ATOM     16  C   UNL     1      -4.650  -1.081   2.983  0.00  0.00    +0.089 A 
ATOM     17  N   UNL     1      -4.221  -1.075   4.282  0.00  0.00    -0.360 N 
ATOM     18  H   UNL     1      -3.422  -0.629   4.603  0.00  0.00    +0.165 HD
ATOM     19  C   UNL     1      -5.094  -1.795   5.067  0.00  0.00    +0.047 A 
ATOM     20  C   UNL     1      -6.116  -2.268   4.224  0.00  0.00    +0.005 A 
ATOM     21  C   UNL     1      -7.149  -3.045   4.751  0.00  0.00    +0.010 A 
ATOM     22  C   UNL     1      -7.169  -3.332   6.088  0.00  0.00    +0.001 A 
ATOM     23  C   UNL     1      -6.166  -2.862   6.924  0.00  0.00    +0.002 A 
ATOM     24  C   UNL     1      -5.133  -2.099   6.424  0.00  0.00    +0.026 A 
ENDBRANCH  12  15
BRANCH   1  25
ATOM     25  S   UNL     1      -3.640   3.429  -1.045  0.00  0.00    +0.072 S 
ATOM     26  O   UNL     1      -4.724   4.336  -0.900  0.00  0.00    -0.150 OA
ATOM     27  O   UNL     1      -2.943   3.265  -2.272  0.00  0.00    -0.150 OA
BRANCH  25  28
ATOM     28  N   UNL     1      -2.511   3.855   0.089  0.00  0.00    -0.216 N 
ATOM     29  H   UNL     1      -2.662   4.626   0.658  0.00  0.00    +0.174 HD
BRANCH  28  33
ATOM     30  C   UNL     1       0.980   1.614   0.498  0.00  0.00    +0.121 A 
ATOM     31  C   UNL     1       0.827   2.469  -0.584  0.00  0.00    +0.047 A 
ATOM     32  C   UNL     1      -0.327   3.216  -0.717  0.00  0.00    +0.028 A 
ATOM     33  C   UNL     1      -1.339   3.103   0.227  0.00  0.00    +0.048 A 
ATOM     34  C   UNL     1      -1.186   2.247   1.309  0.00  0.00    +0.028 A 
ATOM     35  C   UNL     1      -0.029   1.504   1.444  0.00  0.00    +0.047 A 
BRANCH  30  36
ATOM     36  O   UNL     1       2.119   0.883   0.631  0.00  0.00    -0.492 OA
BRANCH  36  38
ATOM     37  C   UNL     1       3.550  -0.712   1.749  0.00  0.00    +0.048 C 
ATOM     38  C   UNL     1       2.208   0.023   1.769  0.00  0.00    +0.225 C 
ENDBRANCH  36  38
ENDBRANCH  30  36
ENDBRANCH  28  33
ENDBRANCH  25  28
ENDBRANCH   1  25
TORSDOF 6
