REMARK  Name = ZINC63557267
REMARK  11 active torsions:
REMARK  status: ('A' for Active; 'I' for Inactive)
REMARK    1  A    between atoms: C_1  and  C_2
REMARK    2  A    between atoms: C_2  and  O_3
REMARK    3  A    between atoms: O_3  and  C_4
REMARK    4  A    between atoms: C_4  and  C_5
REMARK    5  A    between atoms: C_9  and  N_12
REMARK    6  A    between atoms: C_13  and  C_15
REMARK    7  A    between atoms: N_20  and  C_22
REMARK    8  A    between atoms: C_22  and  C_23
REMARK    9  A    between atoms: C_23  and  C_24
REMARK   10  A    between atoms: C_27  and  O_33
REMARK   11  A    between atoms: O_33  and  C_34
REMARK                            x       y       z     vdW  Elec       q    Type
REMARK                         _______ _______ _______ _____ _____    ______ ____
ROOT
ATOM      1  C   UNL     1      -8.375  -1.793  -2.690  0.00  0.00    +0.101 C 
ATOM      2  C   UNL     1      -8.020  -3.159  -3.323  0.00  0.00    +0.110 C 
ATOM      3  C   UNL     1      -8.872  -3.221  -4.571  0.00  0.00    +0.216 C 
ATOM      4  O   UNL     1      -9.107  -4.230  -5.203  0.00  0.00    -0.276 OA
ATOM      5  N   UNL     1      -9.333  -1.996  -4.879  0.00  0.00    -0.300 N 
ATOM      6  C   UNL     1      -8.859  -0.992  -3.918  0.00  0.00    +0.121 C 
ENDROOT
BRANCH   1   8
ATOM      7  N   UNL     1      -6.546  -1.738  -1.025  0.00  0.00    -0.290 N 
ATOM      8  C   UNL     1      -7.158  -1.153  -2.073  0.00  0.00    +0.220 C 
ATOM      9  O   UNL     1      -6.729  -0.110  -2.520  0.00  0.00    -0.275 OA
ATOM     10  H   UNL     1      -6.889  -2.572  -0.667  0.00  0.00    +0.151 HD
BRANCH   7  14
ATOM     11  C   UNL     1      -2.905  -2.339   0.017  0.00  0.00    +0.155 C 
ATOM     12  N   UNL     1      -3.632  -1.738   1.179  0.00  0.00    -0.239 NA
ATOM     13  N   UNL     1      -5.065  -1.708   0.908  0.00  0.00    -0.226 NA
ATOM     14  C   UNL     1      -5.363  -1.115  -0.425  0.00  0.00    +0.217 C 
ATOM     15  S   UNL     1      -3.838  -1.550  -1.366  0.00  0.00    -0.099 S 
ATOM     16  H   UNL     1      -3.436  -2.244   2.030  0.00  0.00    +0.142 HD
ATOM     17  H   UNL     1      -5.469  -2.628   0.994  0.00  0.00    +0.143 HD
BRANCH  11  18
ATOM     18  C   UNL     1      -1.432  -1.925   0.005  0.00  0.00    +0.190 C 
BRANCH  18  19
ATOM     19  O   UNL     1      -1.339  -0.499   0.012  0.00  0.00    -0.378 OA
BRANCH  19  21
ATOM     20  C   UNL     1      -0.019   1.526   0.010  0.00  0.00    +0.034 C 
ATOM     21  C   UNL     1       0.002  -0.004   0.002  0.00  0.00    +0.156 C 
ENDBRANCH  19  21
ENDBRANCH  18  19
ENDBRANCH  11  18
ENDBRANCH   7  14
ENDBRANCH   1   8
BRANCH   5  22
ATOM     22  C   UNL     1     -10.197  -1.701  -6.024  0.00  0.00    +0.112 C 
BRANCH  22  23
ATOM     23  C   UNL     1     -11.662  -1.830  -5.605  0.00  0.00    +0.052 C 
BRANCH  23  24
ATOM     24  C   UNL     1     -12.551  -1.527  -6.783  0.00  0.00    -0.040 C 
ATOM     25  C   UNL     1     -13.098  -2.419  -7.639  0.00  0.00    +0.002 A 
ATOM     26  C   UNL     1     -13.034  -3.881  -7.729  0.00  0.00    +0.055 A 
ATOM     27  C   UNL     1     -13.702  -4.519  -8.720  0.00  0.00    +0.121 A 
ATOM     28  C   UNL     1     -14.463  -3.828  -9.678  0.00  0.00    +0.047 A 
ATOM     29  C   UNL     1     -14.582  -2.483  -9.679  0.00  0.00    +0.029 A 
ATOM     30  C   UNL     1     -13.901  -1.691  -8.649  0.00  0.00    +0.043 A 
ATOM     31  N   UNL     1     -13.851  -0.401  -8.426  0.00  0.00    -0.380 N 
ATOM     32  C   UNL     1     -13.016  -0.163  -7.244  0.00  0.00    +0.144 C 
ATOM     33  H   UNL     1     -14.296   0.282  -8.953  0.00  0.00    +0.160 HD
BRANCH  27  34
ATOM     34  O   UNL     1     -13.633  -5.875  -8.790  0.00  0.00    -0.495 OA
ATOM     35  C   UNL     1     -14.352  -6.507  -9.851  0.00  0.00    +0.277 C 
ENDBRANCH  27  34
ENDBRANCH  23  24
ENDBRANCH  22  23
ENDBRANCH   5  22
TORSDOF 9
