REMARK  Name = ZINC16161844
REMARK  8 active torsions:
REMARK  status: ('A' for Active; 'I' for Inactive)
REMARK    1  A    between atoms: C_1  and  C_2
REMARK    2  A    between atoms: C_2  and  C_3
REMARK    3  A    between atoms: C_6  and  N_9
REMARK    4  A    between atoms: N_9  and  C_10
REMARK    5  A    between atoms: C_16  and  C_17
REMARK    6  A    between atoms: C_19  and  O_26
REMARK    7  A    between atoms: C_20  and  O_25
REMARK    8  A    between atoms: O_26  and  C_27
REMARK                            x       y       z     vdW  Elec       q    Type
REMARK                         _______ _______ _______ _____ _____    ______ ____
ROOT
ATOM      1  C   UNL     1       5.729   1.863   0.242  0.00  0.00    +0.224 C 
ATOM      2  N   UNL     1       5.984   3.312   0.273  0.00  0.00    -0.284 N 
ATOM      3  C   UNL     1       4.949   4.129   0.191  0.00  0.00    +0.252 C 
ATOM      4  O   UNL     1       5.114   5.334   0.206  0.00  0.00    -0.270 OA
ATOM      5  C   UNL     1       3.591   3.565   0.088  0.00  0.00    +0.073 C 
ATOM      6  C   UNL     1       2.408   4.219   0.001  0.00  0.00    +0.029 C 
ATOM      7  S   UNL     1       3.897   1.805   0.100  0.00  0.00    -0.078 S 
ATOM      8  H   UNL     1       6.888   3.658   0.346  0.00  0.00    +0.152 HD
ENDROOT
BRANCH   6   9
ATOM      9  C   UNL     1       1.174   3.469  -0.272  0.00  0.00    -0.005 A 
ATOM     10  C   UNL     1       1.239   2.183  -0.820  0.00  0.00    +0.058 A 
ATOM     11  C   UNL     1       0.076   1.484  -1.074  0.00  0.00    +0.163 A 
ATOM     12  C   UNL     1      -1.161   2.060  -0.790  0.00  0.00    +0.174 A 
ATOM     13  C   UNL     1      -1.229   3.333  -0.241  0.00  0.00    +0.077 A 
ATOM     14  C   UNL     1      -0.072   4.040   0.016  0.00  0.00    +0.043 A 
ATOM     15 BR   UNL     1      -0.169   5.777   0.757  0.00  0.00    -0.048 Br
ATOM     16 BR   UNL     1      -2.912   4.105   0.147  0.00  0.00    -0.045 Br
BRANCH  12  17
ATOM     17  O   UNL     1      -2.304   1.371  -1.047  0.00  0.00    -0.503 OA
ATOM     18  H   UNL     1      -2.610   0.827  -0.308  0.00  0.00    +0.292 HD
ENDBRANCH  12  17
BRANCH  11  19
ATOM     19  O   UNL     1       0.137   0.234  -1.607  0.00  0.00    -0.491 OA
ATOM     20  C   UNL     1       1.437  -0.293  -1.878  0.00  0.00    +0.277 C 
ENDBRANCH  11  19
ENDBRANCH   6   9
BRANCH   1  21
ATOM     21  N   UNL     1       6.365   1.243  -0.922  0.00  0.00    -0.317 N 
ATOM     22  H   UNL     1       6.760   1.799  -1.613  0.00  0.00    +0.149 HD
BRANCH  21  26
ATOM     23  C   UNL     1       6.481  -2.904  -1.271  0.00  0.00    -0.048 A 
ATOM     24  C   UNL     1       7.043  -2.113  -2.256  0.00  0.00    +0.005 A 
ATOM     25  C   UNL     1       7.007  -0.737  -2.143  0.00  0.00    +0.023 A 
ATOM     26  C   UNL     1       6.404  -0.148  -1.040  0.00  0.00    +0.029 A 
ATOM     27  C   UNL     1       5.844  -0.946  -0.050  0.00  0.00    +0.023 A 
ATOM     28  C   UNL     1       5.880  -2.321  -0.171  0.00  0.00    +0.005 A 
BRANCH  23  30
ATOM     29  C   UNL     1       7.797  -4.937  -0.738  0.00  0.00    +0.009 C 
ATOM     30  C   UNL     1       6.523  -4.405  -1.397  0.00  0.00    +0.032 C 
ENDBRANCH  23  30
ENDBRANCH  21  26
ENDBRANCH   1  21
TORSDOF 6
