REMARK  Name = ZINC04061958
REMARK  9 active torsions:
REMARK  status: ('A' for Active; 'I' for Inactive)
REMARK    1  A    between atoms: C_1  and  C_2
REMARK    2  A    between atoms: C_2  and  C_3
REMARK    3  A    between atoms: C_3  and  C_4
REMARK    4  A    between atoms: C_4  and  C_5
REMARK    5  A    between atoms: C_5  and  N_6
REMARK    6  A    between atoms: C_7  and  C_9
REMARK    7  A    between atoms: C_9  and  N_63
REMARK    8  A    between atoms: C_12  and  O_30
REMARK    9  A    between atoms: C_19  and  C_21
REMARK                            x       y       z     vdW  Elec       q    Type
REMARK                         _______ _______ _______ _____ _____    ______ ____
ROOT
ATOM      1  C   UNL     1       1.299   1.477   4.591  0.00  0.00    -0.075 C 
ATOM      2  C   UNL     1       2.113   0.798   5.695  0.00  0.00    +0.016 C 
ATOM      3  C   UNL     1       1.652   1.327   7.057  0.00  0.00    +0.066 C 
ATOM      4  C   UNL     1       1.905   2.835   7.120  0.00  0.00    +0.035 C 
ATOM      5  C   UNL     1       1.420   3.380   8.465  0.00  0.00    +0.003 C 
ATOM      6  C   UNL     1      -0.079   3.113   8.611  0.00  0.00    +0.000 C 
ATOM      7  C   UNL     1      -0.334   1.605   8.554  0.00  0.00    +0.005 C 
ATOM      8  C   UNL     1       0.154   1.053   7.215  0.00  0.00    +0.011 C 
ATOM      9  C   UNL     1      -0.606   1.726   6.071  0.00  0.00    -0.031 C 
ATOM     10  N   UNL     1      -0.133   1.164   4.787  0.00  0.00    +0.390 N 
ATOM     11  H   UNL     1      -0.252   0.145   4.806  0.00  0.00    -0.080 HD
ENDROOT
BRANCH   9  12
ATOM     12  C   UNL     1      -2.080   1.446   6.214  0.00  0.00    -0.057 A 
ATOM     13  C   UNL     1      -2.596   0.235   5.792  0.00  0.00    +0.006 A 
ATOM     14  C   UNL     1      -3.946  -0.028   5.926  0.00  0.00    +0.050 A 
ATOM     15  C   UNL     1      -4.788   0.927   6.473  0.00  0.00    +0.166 A 
ATOM     16  C   UNL     1      -4.269   2.149   6.893  0.00  0.00    +0.166 A 
ATOM     17  C   UNL     1      -2.913   2.404   6.761  0.00  0.00    +0.051 A 
ATOM     18  O   UNL     1      -5.288   2.909   7.389  0.00  0.00    -0.453 OA
ATOM     19  C   UNL     1      -6.365   1.987   7.646  0.00  0.00    +0.466 C 
ATOM     20  O   UNL     1      -6.133   0.921   6.707  0.00  0.00    -0.453 OA
ENDBRANCH   9  12
BRANCH   3  21
ATOM     21  O   UNL     1       2.372   0.675   8.106  0.00  0.00    -0.388 OA
ATOM     22  H   UNL     1       3.329   0.807   8.066  0.00  0.00    +0.210 HD
ENDBRANCH   3  21
BRANCH  10  23
ATOM     23  C   UNL     1      -0.927   1.718   3.671  0.00  0.00    +0.019 C 
BRANCH  23  25
ATOM     24  N   UNL     1      -1.279   3.893   2.545  0.00  0.00    -0.317 N 
ATOM     25  C   UNL     1      -0.731   3.209   3.569  0.00  0.00    +0.196 C 
ATOM     26  O   UNL     1      -0.080   3.794   4.409  0.00  0.00    -0.278 OA
ATOM     27  H   UNL     1      -1.800   3.425   1.873  0.00  0.00    +0.149 HD
BRANCH  24  28
ATOM     28  C   UNL     1      -1.089   5.342   2.446  0.00  0.00    +0.104 C 
BRANCH  28  29
ATOM     29  C   UNL     1      -1.808   5.867   1.202  0.00  0.00    +0.019 C 
BRANCH  29  30
ATOM     30  C   UNL     1      -1.609   7.380   1.099  0.00  0.00    +0.001 C 
BRANCH  30  32
ATOM     31  C   UNL     1      -2.129   9.419  -0.248  0.00  0.00    +0.004 C 
ATOM     32  C   UNL     1      -2.328   7.906  -0.145  0.00  0.00    -0.003 C 
ENDBRANCH  30  32
ENDBRANCH  29  30
ENDBRANCH  28  29
ENDBRANCH  24  28
ENDBRANCH  23  25
ENDBRANCH  10  23
TORSDOF 8
