REMARK  Name = ZINC08830338
REMARK  6 active torsions:
REMARK  status: ('A' for Active; 'I' for Inactive)
REMARK    1  A    between atoms: C_1  and  C_2
REMARK    2  A    between atoms: C_3  and  N_15
REMARK    3  A    between atoms: N_6  and  C_9
REMARK    4  A    between atoms: N_7  and  C_8
REMARK    5  A    between atoms: C_21  and  C_22
REMARK    6  A    between atoms: C_25  and  O_28
REMARK                            x       y       z     vdW  Elec       q    Type
REMARK                         _______ _______ _______ _____ _____    ______ ____
ROOT
ATOM      1  N   UNL     1       1.702  -0.759  -2.354  0.00  0.00    -0.218 NA
ATOM      2  C   UNL     1       1.071  -1.312  -3.361  0.00  0.00    +0.166 C 
ATOM      3  N   UNL     1       0.387  -2.511  -3.393  0.00  0.00    -0.260 N 
ATOM      4  C   UNL     1      -0.199  -2.922  -4.505  0.00  0.00    +0.256 C 
ATOM      5  O   UNL     1      -0.806  -3.976  -4.551  0.00  0.00    -0.269 OA
ATOM      6  C   UNL     1      -0.084  -2.046  -5.686  0.00  0.00    +0.078 C 
ATOM      7  C   UNL     1      -0.580  -2.219  -6.938  0.00  0.00    +0.028 C 
ATOM      8  S   UNL     1       0.878  -0.693  -5.025  0.00  0.00    -0.049 S 
ATOM      9  H   UNL     1       0.337  -3.057  -2.592  0.00  0.00    +0.157 HD
ENDROOT
BRANCH   1  12
ATOM     10  C   UNL     1       0.998   0.372   0.400  0.00  0.00    +0.067 C 
ATOM     11  C   UNL     1       1.551  -0.991   0.072  0.00  0.00    +0.064 A 
ATOM     12  C   UNL     1       1.849  -1.448  -1.174  0.00  0.00    +0.153 A 
ATOM     13  C   UNL     1       2.357  -2.818  -1.019  0.00  0.00    +0.298 A 
ATOM     14  O   UNL     1       2.729  -3.558  -1.911  0.00  0.00    -0.264 OA
ATOM     15  N   UNL     1       2.333  -3.098   0.300  0.00  0.00    -0.215 N 
ATOM     16  N   UNL     1       1.843  -1.976   0.978  0.00  0.00    -0.282 N 
ATOM     17  C   UNL     1       1.668  -1.871   2.429  0.00  0.00    +0.171 C 
BRANCH  15  18
ATOM     18  C   UNL     1       2.733  -4.301   0.890  0.00  0.00    +0.067 A 
ATOM     19  C   UNL     1       1.931  -4.908   1.848  0.00  0.00    +0.028 A 
ATOM     20  C   UNL     1       2.329  -6.096   2.428  0.00  0.00    +0.002 A 
ATOM     21  C   UNL     1       3.526  -6.681   2.057  0.00  0.00    +0.000 A 
ATOM     22  C   UNL     1       4.327  -6.080   1.104  0.00  0.00    +0.002 A 
ATOM     23  C   UNL     1       3.932  -4.894   0.516  0.00  0.00    +0.028 A 
ENDBRANCH  15  18
ENDBRANCH   1  12
BRANCH   7  24
ATOM     24  C   UNL     1      -0.215  -1.282  -8.008  0.00  0.00    -0.024 A 
ATOM     25  C   UNL     1       0.922  -0.475  -7.878  0.00  0.00    +0.011 A 
ATOM     26  C   UNL     1       1.259   0.401  -8.885  0.00  0.00    +0.046 A 
ATOM     27  C   UNL     1       0.474   0.486 -10.029  0.00  0.00    +0.117 A 
ATOM     28  C   UNL     1      -0.656  -0.312 -10.163  0.00  0.00    +0.046 A 
ATOM     29  C   UNL     1      -1.000  -1.196  -9.165  0.00  0.00    +0.011 A 
BRANCH  27  30
ATOM     30  O   UNL     1       0.811   1.352 -11.019  0.00  0.00    -0.507 OA
ATOM     31  H   UNL     1       1.399   0.975 -11.688  0.00  0.00    +0.292 HD
ENDBRANCH  27  30
ENDBRANCH   7  24
TORSDOF 4
