REMARK  Name = ZINC44170837
REMARK  8 active torsions:
REMARK  status: ('A' for Active; 'I' for Inactive)
REMARK    1  A    between atoms: C_1  and  C_2
REMARK    2  A    between atoms: C_2  and  C_38
REMARK    3  A    between atoms: C_5  and  C_36
REMARK    4  A    between atoms: C_5  and  C_37
REMARK    5  A    between atoms: C_10  and  C_12
REMARK    6  A    between atoms: C_18  and  C_21
REMARK    7  A    between atoms: C_26  and  C_29
REMARK    8  A    between atoms: C_29  and  C_30
REMARK                            x       y       z     vdW  Elec       q    Type
REMARK                         _______ _______ _______ _____ _____    ______ ____
ROOT
ATOM      1  C   UNL     1       2.963  -1.829   4.617  0.00  0.00    -0.027 C 
ATOM      2  C   UNL     1       3.495  -3.241   4.346  0.00  0.00    +0.092 C 
ATOM      3  S   UNL     1       4.381  -3.811   5.831  0.00  0.00    +0.020 S 
ATOM      4  O   UNL     1       5.153  -4.960   5.509  0.00  0.00    -0.257 OA
ATOM      5  C   UNL     1       5.492  -2.415   6.192  0.00  0.00    +0.097 C 
ATOM      6  C   UNL     1       4.661  -1.127   6.186  0.00  0.00    +0.029 C 
ATOM      7  N   UNL     1       4.082  -0.915   4.858  0.00  0.00    +0.392 N 
ATOM      8  H   UNL     1       4.792  -1.071   4.158  0.00  0.00    -0.084 HD
ATOM      9  H   UNL     1       3.753   0.036   4.789  0.00  0.00    -0.084 HD
ENDROOT
BRANCH   1  19
ATOM     10  C   UNL     1      -0.031   1.550   0.026  0.00  0.00    +0.016 C 
ATOM     11  C   UNL     1      -0.014   0.020   0.015  0.00  0.00    -0.010 C 
ATOM     12  C   UNL     1      -1.450  -0.499   0.001  0.00  0.00    +0.012 C 
ATOM     13  C   UNL     1      -2.090  -0.190   1.359  0.00  0.00    +0.012 C 
ATOM     14  C   UNL     1      -1.437  -1.081   2.413  0.00  0.00    -0.010 C 
ATOM     15  C   UNL     1       0.064  -0.979   2.337  0.00  0.00    -0.038 A 
ATOM     16  C   UNL     1       0.718  -0.477   1.235  0.00  0.00    -0.038 A 
ATOM     17  C   UNL     1       2.105  -0.417   1.226  0.00  0.00    +0.004 A 
ATOM     18  C   UNL     1       2.833  -0.852   2.314  0.00  0.00    +0.002 A 
ATOM     19  C   UNL     1       2.176  -1.353   3.423  0.00  0.00    -0.060 A 
ATOM     20  C   UNL     1       0.798  -1.415   3.433  0.00  0.00    +0.006 A 
ATOM     21  C   UNL     1      -1.857  -2.533   2.177  0.00  0.00    +0.016 C 
ATOM     22  C   UNL     1      -1.903  -0.643   3.803  0.00  0.00    +0.016 C 
ATOM     23  C   UNL     1       0.711  -0.467  -1.241  0.00  0.00    +0.016 C 
ENDBRANCH   1  19
BRANCH   6  24
ATOM     24  C   UNL     1       5.547   0.041   6.536  0.00  0.00    +0.202 C 
ATOM     25  O   UNL     1       6.055   0.703   5.656  0.00  0.00    -0.277 OA
ATOM     26  N   UNL     1       5.775   0.351   7.828  0.00  0.00    -0.303 N 
ATOM     27  C   UNL     1       5.266  -0.509   8.905  0.00  0.00    +0.108 C 
ATOM     28  C   UNL     1       6.430  -0.888   9.825  0.00  0.00    +0.023 C 
ATOM     29  C   UNL     1       7.125   0.386  10.313  0.00  0.00    -0.004 C 
ATOM     30  C   UNL     1       7.687   1.153   9.114  0.00  0.00    +0.023 C 
ATOM     31  C   UNL     1       6.542   1.552   8.186  0.00  0.00    +0.108 C 
BRANCH  29  32
ATOM     32  C   UNL     1       8.267   0.012  11.260  0.00  0.00    +0.038 C 
BRANCH  32  33
ATOM     33  C   UNL     1       8.873   1.266  11.836  0.00  0.00    -0.047 A 
ATOM     34  C   UNL     1       9.919   1.891  11.184  0.00  0.00    +0.003 A 
ATOM     35  C   UNL     1      10.474   3.042  11.712  0.00  0.00    +0.000 A 
ATOM     36  C   UNL     1       9.983   3.567  12.892  0.00  0.00    +0.000 A 
ATOM     37  C   UNL     1       8.936   2.943  13.544  0.00  0.00    +0.000 A 
ATOM     38  C   UNL     1       8.378   1.795  13.014  0.00  0.00    +0.003 A 
ENDBRANCH  32  33
ENDBRANCH  29  32
ENDBRANCH   6  24
TORSDOF 4
