REMARK  Name = ZINC09557582
REMARK  10 active torsions:
REMARK  status: ('A' for Active; 'I' for Inactive)
REMARK    1  A    between atoms: C_1  and  C_2
REMARK    2  A    between atoms: C_2  and  C_3
REMARK    3  A    between atoms: C_3  and  C_4
REMARK    4  A    between atoms: C_4  and  N_5
REMARK    5  A    between atoms: C_15  and  C_28
REMARK    6  A    between atoms: C_16  and  O_27
REMARK    7  A    between atoms: N_19  and  C_20
REMARK    8  A    between atoms: C_20  and  C_21
REMARK    9  A    between atoms: C_28  and  C_30
REMARK   10  A    between atoms: C_37  and  C_40
REMARK                            x       y       z     vdW  Elec       q    Type
REMARK                         _______ _______ _______ _____ _____    ______ ____
ROOT
ATOM      1  N   UNL     1      -1.739  -0.178   3.358  0.00  0.00    -0.269 N 
ATOM      2  C   UNL     1      -1.283  -1.495   3.283  0.00  0.00    +0.042 A 
ATOM      3  C   UNL     1      -0.681  -2.306   4.242  0.00  0.00    +0.024 A 
ATOM      4  C   UNL     1      -0.313  -3.598   3.926  0.00  0.00    +0.002 A 
ATOM      5  C   UNL     1      -0.537  -4.097   2.656  0.00  0.00    +0.000 A 
ATOM      6  C   UNL     1      -1.134  -3.297   1.697  0.00  0.00    +0.008 A 
ATOM      7  C   UNL     1      -1.503  -2.008   2.009  0.00  0.00    +0.011 A 
ATOM      8  C   UNL     1      -2.155  -0.902   1.223  0.00  0.00    +0.174 C 
ATOM      9  C   UNL     1      -2.265   0.245   2.193  0.00  0.00    +0.253 C 
ATOM     10  O   UNL     1      -2.736   1.340   1.968  0.00  0.00    -0.272 OA
ATOM     11  C   UNL     1      -3.510  -1.315   0.716  0.00  0.00    +0.083 C 
ATOM     12  C   UNL     1      -3.468  -1.195  -0.634  0.00  0.00    +0.189 C 
ATOM     13  C   UNL     1      -2.129  -0.712  -1.036  0.00  0.00    +0.283 C 
ATOM     14  O   UNL     1      -1.777  -0.504  -2.180  0.00  0.00    -0.267 OA
ATOM     15  N   UNL     1      -1.357  -0.536   0.055  0.00  0.00    -0.271 N 
ENDROOT
BRANCH  12  16
ATOM     16  O   UNL     1      -4.487  -1.473  -1.478  0.00  0.00    -0.502 OA
ATOM     17  H   UNL     1      -4.197  -1.302  -2.420  0.00  0.00    +0.292 HD
ENDBRANCH  12  16
BRANCH  11  18
ATOM     18  C   UNL     1      -4.650  -1.763   1.522  0.00  0.00    +0.196 C 
ATOM     19  O   UNL     1      -4.660  -2.886   1.990  0.00  0.00    -0.287 OA
BRANCH  18  20
ATOM     20  C   UNL     1      -5.785  -0.851   1.765  0.00  0.00    +0.023 A 
ATOM     21  C   UNL     1      -5.833   0.398   1.139  0.00  0.00    +0.015 A 
ATOM     22  C   UNL     1      -6.892   1.244   1.365  0.00  0.00    +0.046 A 
ATOM     23  C   UNL     1      -7.923   0.872   2.230  0.00  0.00    +0.124 A 
ATOM     24  C   UNL     1      -7.870  -0.373   2.851  0.00  0.00    -0.002 A 
ATOM     25  C   UNL     1      -6.819  -1.228   2.629  0.00  0.00    +0.019 A 
ATOM     26  C   UNL     1      -9.118  -0.497   3.703  0.00  0.00    +0.083 C 
ATOM     27  C   UNL     1     -10.003   0.641   3.141  0.00  0.00    +0.175 C 
ATOM     28  O   UNL     1      -9.037   1.558   2.601  0.00  0.00    -0.488 OA
ATOM     29  C   UNL     1     -10.930   0.115   2.043  0.00  0.00    +0.052 C 
ENDBRANCH  18  20
ENDBRANCH  11  18
BRANCH   1  30
ATOM     30  C   UNL     1      -1.655   0.649   4.565  0.00  0.00    +0.114 C 
BRANCH  30  31
ATOM     31  C   UNL     1      -0.384   1.499   4.513  0.00  0.00    +0.019 C 
BRANCH  31  33
ATOM     32  C   UNL     1       0.975   3.212   5.722  0.00  0.00    +0.004 C 
ATOM     33  C   UNL     1      -0.297   2.362   5.774  0.00  0.00    -0.002 C 
ENDBRANCH  31  33
ENDBRANCH  30  31
ENDBRANCH   1  30
BRANCH  15  34
ATOM     34  C   UNL     1       0.031  -0.068   0.067  0.00  0.00    +0.141 C 
BRANCH  34  35
ATOM     35  C   UNL     1       0.054   1.458   0.177  0.00  0.00    +0.136 C 
ATOM     36  C   UNL     1       1.511   1.960   0.191  0.00  0.00    +0.035 C 
ATOM     37  C   UNL     1       1.594   2.915  -1.025  0.00  0.00    +0.031 C 
ATOM     38  C   UNL     1       0.104   3.273  -1.259  0.00  0.00    +0.160 C 
ATOM     39  O   UNL     1      -0.589   2.040  -0.969  0.00  0.00    -0.375 OA
ENDBRANCH  34  35
ENDBRANCH  15  34
TORSDOF 8
