REMARK  Name = ZINC63505998
REMARK  9 active torsions:
REMARK  status: ('A' for Active; 'I' for Inactive)
REMARK    1  A    between atoms: C_1  and  C_2
REMARK    2  A    between atoms: C_5  and  C_39
REMARK    3  A    between atoms: C_6  and  C_8
REMARK    4  A    between atoms: C_8  and  N_9
REMARK    5  A    between atoms: C_17  and  N_19
REMARK    6  A    between atoms: C_22  and  C_25
REMARK    7  A    between atoms: N_27  and  C_28
REMARK    8  A    between atoms: C_28  and  C_29
REMARK    9  A    between atoms: C_29  and  C_30
REMARK                            x       y       z     vdW  Elec       q    Type
REMARK                         _______ _______ _______ _____ _____    ______ ____
ROOT
ATOM      1  N   UNL     1       1.589  -3.389   4.859  0.00  0.00    -0.269 NA
ATOM      2  C   UNL     1       1.258  -4.773   5.219  0.00  0.00    +0.088 C 
ATOM      3  C   UNL     1       0.532  -4.791   6.566  0.00  0.00    +0.028 C 
ATOM      4  C   UNL     1       1.434  -4.167   7.635  0.00  0.00    +0.077 C 
ATOM      5  C   UNL     1       1.803  -2.743   7.212  0.00  0.00    +0.028 C 
ATOM      6  C   UNL     1       2.493  -2.784   5.846  0.00  0.00    +0.088 C 
ENDROOT
BRANCH   1  15
ATOM      7  N   UNL     1       1.199  -3.819   2.522  0.00  0.00    -0.293 N 
ATOM      8  C   UNL     1       1.784  -4.923   1.887  0.00  0.00    +0.054 A 
ATOM      9  C   UNL     1       1.297  -5.749   0.881  0.00  0.00    +0.025 A 
ATOM     10  C   UNL     1       2.067  -6.794   0.407  0.00  0.00    +0.002 A 
ATOM     11  C   UNL     1       3.325  -7.023   0.933  0.00  0.00    +0.002 A 
ATOM     12  C   UNL     1       3.818  -6.207   1.934  0.00  0.00    +0.025 A 
ATOM     13  C   UNL     1       3.051  -5.154   2.416  0.00  0.00    +0.051 A 
ATOM     14  N   UNL     1       3.329  -4.206   3.411  0.00  0.00    -0.312 N 
ATOM     15  C   UNL     1       2.164  -3.319   3.508  0.00  0.00    +0.236 C 
ATOM     16  H   UNL     1       4.143  -4.145   3.935  0.00  0.00    +0.149 HD
BRANCH   7  17
ATOM     17  C   UNL     1      -0.128  -3.262   2.246  0.00  0.00    +0.143 C 
BRANCH  17  23
ATOM     18  C   UNL     1       2.655  -0.581  -0.934  0.00  0.00    +0.044 C 
ATOM     19  C   UNL     1       1.305  -0.967  -0.387  0.00  0.00    -0.050 A 
ATOM     20  C   UNL     1       0.160  -0.392  -0.905  0.00  0.00    +0.003 A 
ATOM     21  C   UNL     1      -1.079  -0.745  -0.403  0.00  0.00    +0.004 A 
ATOM     22  C   UNL     1      -1.172  -1.674   0.617  0.00  0.00    -0.046 A 
ATOM     23  C   UNL     1      -0.026  -2.249   1.134  0.00  0.00    -0.027 A 
ATOM     24  C   UNL     1       1.212  -1.899   0.629  0.00  0.00    +0.008 A 
ATOM     25  C   UNL     1      -2.522  -2.059   1.165  0.00  0.00    +0.044 C 
ENDBRANCH  17  23
ENDBRANCH   7  17
ENDBRANCH   1  15
BRANCH   4  26
ATOM     26  C   UNL     1       0.701  -4.127   8.951  0.00  0.00    +0.216 C 
ATOM     27  O   UNL     1      -0.431  -4.555   9.029  0.00  0.00    -0.276 OA
ATOM     28  N   UNL     1       1.304  -3.616  10.043  0.00  0.00    -0.315 N 
ATOM     29  H   UNL     1       2.209  -3.273   9.981  0.00  0.00    +0.149 HD
BRANCH  28  30
ATOM     30  C   UNL     1       0.592  -3.577  11.323  0.00  0.00    +0.108 C 
BRANCH  30  31
ATOM     31  C   UNL     1       1.493  -2.953  12.390  0.00  0.00    +0.052 C 
BRANCH  31  32
ATOM     32  C   UNL     1       0.761  -2.914  13.706  0.00  0.00    -0.040 C 
ATOM     33  C   UNL     1       0.830  -3.825  14.703  0.00  0.00    -0.001 A 
ATOM     34  C   UNL     1       1.579  -5.078  14.854  0.00  0.00    +0.010 A 
ATOM     35  C   UNL     1       1.440  -5.792  15.995  0.00  0.00    +0.001 A 
ATOM     36  C   UNL     1       0.600  -5.366  17.033  0.00  0.00    +0.002 A 
ATOM     37  C   UNL     1      -0.120  -4.226  16.968  0.00  0.00    +0.026 A 
ATOM     38  C   UNL     1      -0.049  -3.397  15.814  0.00  0.00    +0.043 A 
ATOM     39  N   UNL     1      -0.639  -2.265  15.516  0.00  0.00    -0.380 N 
ATOM     40  C   UNL     1      -0.196  -1.843  14.182  0.00  0.00    +0.144 C 
ATOM     41  H   UNL     1      -1.262  -1.784  16.083  0.00  0.00    +0.160 HD
ENDBRANCH  31  32
ENDBRANCH  30  31
ENDBRANCH  28  30
ENDBRANCH   4  26
TORSDOF 7
