REMARK  Name = ZINC43759880
REMARK  9 active torsions:
REMARK  status: ('A' for Active; 'I' for Inactive)
REMARK    1  A    between atoms: C_1  and  C_2
REMARK    2  A    between atoms: C_2  and  O_4
REMARK    3  A    between atoms: O_4  and  C_5
REMARK    4  A    between atoms: C_5  and  C_6
REMARK    5  A    between atoms: C_6  and  C_8
REMARK    6  A    between atoms: C_8  and  O_34
REMARK    7  A    between atoms: C_13  and  C_33
REMARK    8  A    between atoms: C_25  and  C_32
REMARK    9  A    between atoms: C_28  and  O_31
REMARK                            x       y       z     vdW  Elec       q    Type
REMARK                         _______ _______ _______ _____ _____    ______ ____
ROOT
ATOM      1  C   UNL     1      -0.198  -3.953  -2.795  0.00  0.00    +0.133 C 
ATOM      2  C   UNL     1      -1.624  -4.552  -2.855  0.00  0.00    +0.043 C 
ATOM      3  C   UNL     1      -1.770  -5.196  -4.259  0.00  0.00    +0.008 C 
ATOM      4  C   UNL     1      -0.740  -4.432  -5.101  0.00  0.00    +0.002 C 
ATOM      5  C   UNL     1       0.460  -4.333  -4.119  0.00  0.00    +0.013 C 
ATOM      6  C   UNL     1       1.438  -3.317  -4.683  0.00  0.00    +0.084 C 
ATOM      7  C   UNL     1       1.844  -3.822  -6.061  0.00  0.00    +0.138 C 
ATOM      8  O   UNL     1       3.009  -3.893  -6.370  0.00  0.00    -0.297 OA
ATOM      9  C   UNL     1       0.770  -4.235  -7.034  0.00  0.00    +0.065 C 
ATOM     10  C   UNL     1      -0.265  -5.144  -6.350  0.00  0.00    +0.003 C 
ATOM     11  C   UNL     1      -1.412  -5.418  -7.321  0.00  0.00    +0.005 C 
ATOM     12  C   UNL     1      -0.856  -6.140  -8.553  0.00  0.00    +0.004 C 
ATOM     13  C   UNL     1       0.205  -5.276  -9.232  0.00  0.00    -0.002 C 
ATOM     14  C   UNL     1       1.362  -4.999  -8.216  0.00  0.00    -0.019 C 
ATOM     15  C   UNL     1       2.003  -6.296  -7.719  0.00  0.00    +0.010 C 
ATOM     16  C   UNL     1       2.583  -7.067  -8.907  0.00  0.00    +0.032 C 
ATOM     17  C   UNL     1       1.463  -7.398  -9.895  0.00  0.00    +0.115 C 
ATOM     18  C   UNL     1       0.773  -6.019 -10.443  0.00  0.00    +0.035 C 
ATOM     19  C   UNL     1       2.417  -4.133  -8.909  0.00  0.00    +0.012 C 
ATOM     20  C   UNL     1       1.138  -5.698  -3.989  0.00  0.00    +0.015 C 
ENDROOT
BRANCH   1  21
ATOM     21  C   UNL     1      -0.267  -2.454  -2.658  0.00  0.00    +0.202 C 
ATOM     22  O   UNL     1      -1.219  -1.851  -3.093  0.00  0.00    -0.291 OA
BRANCH  21  23
ATOM     23  C   UNL     1       0.852  -1.707  -1.979  0.00  0.00    +0.309 C 
BRANCH  23  24
ATOM     24  O   UNL     1       0.556  -0.309  -1.974  0.00  0.00    -0.457 OA
BRANCH  24  26
ATOM     25  C   UNL     1       1.216   1.990  -1.359  0.00  0.00    +0.136 C 
ATOM     26  C   UNL     1       1.460   0.503  -1.401  0.00  0.00    +0.304 C 
ATOM     27  O   UNL     1       2.467   0.041  -0.920  0.00  0.00    -0.251 OA
ENDBRANCH  24  26
ENDBRANCH  23  24
ENDBRANCH  21  23
ENDBRANCH   1  21
BRANCH  17  28
ATOM     28  O   UNL     1       2.004  -8.118 -11.004  0.00  0.00    -0.392 OA
ATOM     29  H   UNL     1       2.428  -8.953 -10.762  0.00  0.00    +0.210 HD
ENDBRANCH  17  28
BRANCH   1  30
ATOM     30  O   UNL     1       0.531  -4.515  -1.701  0.00  0.00    -0.380 OA
ATOM     31  H   UNL     1       0.149  -4.323  -0.834  0.00  0.00    +0.211 HD
ENDBRANCH   1  30
TORSDOF 6
