REMARK  Name = ZINC36206324
REMARK  17 active torsions:
REMARK  status: ('A' for Active; 'I' for Inactive)
REMARK    1  A    between atoms: C_1  and  C_2
REMARK    2  A    between atoms: C_2  and  C_3
REMARK    3  A    between atoms: C_3  and  N_4
REMARK    4  A    between atoms: N_4  and  C_5
REMARK    5  A    between atoms: N_4  and  C_25
REMARK    6  A    between atoms: C_5  and  C_6
REMARK    7  A    between atoms: C_12  and  C_17
REMARK    8  A    between atoms: C_20  and  O_23
REMARK    9  A    between atoms: O_23  and  C_24
REMARK   10  A    between atoms: C_25  and  C_26
REMARK   11  A    between atoms: C_26  and  C_28
REMARK   12  A    between atoms: C_26  and  O_34
REMARK   13  A    between atoms: C_28  and  O_29
REMARK   14  A    between atoms: O_29  and  C_30
REMARK   15  A    between atoms: C_30  and  C_31
REMARK   16  A    between atoms: C_31  and  C_32
REMARK   17  A    between atoms: C_31  and  C_33
REMARK                            x       y       z     vdW  Elec       q    Type
REMARK                         _______ _______ _______ _____ _____    ______ ____
ROOT
ATOM      1  C   UNL     1      -0.394  -4.047  -1.083  0.00  0.00    +0.094 A 
ATOM      2  N   UNL     1      -1.527  -4.795  -1.085  0.00  0.00    -0.312 N 
ATOM      3  H   UNL     1      -2.378  -4.370  -1.275  0.00  0.00    +0.170 HD
ATOM      4  C   UNL     1      -1.494  -6.116  -0.828  0.00  0.00    +0.260 A 
ATOM      5  O   UNL     1      -2.520  -6.774  -0.834  0.00  0.00    -0.267 OA
ATOM      6  C   UNL     1      -0.234  -6.737  -0.549  0.00  0.00    +0.080 A 
ATOM      7  C   UNL     1       0.060  -8.132  -0.245  0.00  0.00    +0.004 A 
ATOM      8  C   UNL     1       1.345  -8.491  -0.012  0.00  0.00    +0.056 A 
ATOM      9  S   UNL     1       2.240  -6.960  -0.190  0.00  0.00    -0.076 S 
ATOM     10  C   UNL     1       0.882  -5.884  -0.569  0.00  0.00    +0.116 A 
ATOM     11  N   UNL     1       0.770  -4.585  -0.836  0.00  0.00    -0.229 NA
ENDROOT
BRANCH   7  12
ATOM     12  C   UNL     1      -1.028  -9.139  -0.192  0.00  0.00    -0.016 A 
ATOM     13  C   UNL     1      -2.176  -8.888   0.559  0.00  0.00    +0.012 A 
ATOM     14  C   UNL     1      -3.185  -9.826   0.606  0.00  0.00    +0.046 A 
ATOM     15  C   UNL     1      -3.060 -11.019  -0.093  0.00  0.00    +0.120 A 
ATOM     16  C   UNL     1      -1.918 -11.272  -0.840  0.00  0.00    +0.046 A 
ATOM     17  C   UNL     1      -0.907 -10.335  -0.896  0.00  0.00    +0.012 A 
BRANCH  15  18
ATOM     18  O   UNL     1      -4.056 -11.942  -0.044  0.00  0.00    -0.495 OA
ATOM     19  C   UNL     1      -3.862 -13.147  -0.786  0.00  0.00    +0.277 C 
ENDBRANCH  15  18
ENDBRANCH   7  12
BRANCH   1  20
ATOM     20  C   UNL     1      -0.481  -2.572  -1.377  0.00  0.00    -0.003 C 
BRANCH  20  21
ATOM     21  N   UNL     1       0.874  -2.012  -1.475  0.00  0.00    +0.386 N 
ATOM     22  H   UNL     1       1.399  -2.254  -0.648  0.00  0.00    -0.081 HD
BRANCH  21  23
ATOM     23  C   UNL     1       0.792  -0.550  -1.593  0.00  0.00    -0.078 C 
BRANCH  23  25
ATOM     24  C   UNL     1       0.262   1.562  -0.368  0.00  0.00    +0.002 C 
ATOM     25  C   UNL     1       0.211   0.034  -0.303  0.00  0.00    -0.022 C 
ENDBRANCH  23  25
ENDBRANCH  21  23
BRANCH  21  26
ATOM     26  C   UNL     1       1.546  -2.562  -2.660  0.00  0.00    -0.044 C 
BRANCH  26  27
ATOM     27  C   UNL     1       2.997  -2.077  -2.695  0.00  0.00    +0.124 C 
BRANCH  27  28
ATOM     28  O   UNL     1       3.705  -2.613  -1.575  0.00  0.00    -0.391 OA
ATOM     29  H   UNL     1       3.728  -3.579  -1.550  0.00  0.00    +0.210 HD
ENDBRANCH  27  28
BRANCH  27  30
ATOM     30  C   UNL     1       3.660  -2.546  -3.990  0.00  0.00    +0.189 C 
BRANCH  30  31
ATOM     31  O   UNL     1       4.977  -1.997  -4.077  0.00  0.00    -0.377 OA
BRANCH  31  32
ATOM     32  C   UNL     1       5.688  -2.375  -5.258  0.00  0.00    +0.163 C 
BRANCH  32  33
ATOM     33  C   UNL     1       7.077  -1.733  -5.245  0.00  0.00    +0.009 C 
ATOM     34  C   UNL     1       7.891  -2.302  -4.081  0.00  0.00    +0.009 C 
ATOM     35  C   UNL     1       7.791  -2.036  -6.563  0.00  0.00    +0.009 C 
ENDBRANCH  32  33
ENDBRANCH  31  32
ENDBRANCH  30  31
ENDBRANCH  27  30
ENDBRANCH  26  27
ENDBRANCH  21  26
ENDBRANCH  20  21
ENDBRANCH   1  20
TORSDOF 13
