REMARK  Name = ZINC45546197
REMARK  9 active torsions:
REMARK  status: ('A' for Active; 'I' for Inactive)
REMARK    1  A    between atoms: C_1  and  C_2
REMARK    2  A    between atoms: C_2  and  C_4
REMARK    3  A    between atoms: C_2  and  O_21
REMARK    4  A    between atoms: C_9  and  C_12
REMARK    5  A    between atoms: C_16  and  N_18
REMARK    6  A    between atoms: O_21  and  C_22
REMARK    7  A    between atoms: C_22  and  C_24
REMARK    8  A    between atoms: N_27  and  C_29
REMARK    9  A    between atoms: C_29  and  C_30
REMARK                            x       y       z     vdW  Elec       q    Type
REMARK                         _______ _______ _______ _____ _____    ______ ____
ROOT
ATOM      1  C   UNL     1      -1.412  -0.526   0.013  0.00  0.00    +0.259 C 
ATOM      2  O   UNL     1      -1.836  -1.147  -0.939  0.00  0.00    -0.271 OA
ATOM      3  N   UNL     1      -2.204  -0.302   1.079  0.00  0.00    -0.262 N 
ATOM      4  C   UNL     1      -3.508  -0.783   1.089  0.00  0.00    +0.165 A 
ATOM      5  N   UNL     1      -4.434  -0.667   2.023  0.00  0.00    -0.225 NA
ATOM      6  C   UNL     1      -5.639  -1.194   1.865  0.00  0.00    +0.080 A 
ATOM      7  C   UNL     1      -5.930  -1.871   0.714  0.00  0.00    +0.076 A 
ATOM      8  S   UNL     1      -4.379  -1.716  -0.162  0.00  0.00    -0.060 S 
ATOM      9  H   UNL     1      -1.865   0.195   1.840  0.00  0.00    +0.157 HD
ENDROOT
BRANCH   6  10
ATOM     10  C   UNL     1      -6.663  -1.051   2.929  0.00  0.00    +0.003 A 
ATOM     11  C   UNL     1      -7.928  -1.612   2.762  0.00  0.00    +0.010 A 
ATOM     12  C   UNL     1      -8.877  -1.476   3.754  0.00  0.00    +0.003 A 
ATOM     13  C   UNL     1      -8.575  -0.785   4.914  0.00  0.00    +0.033 A 
ATOM     14  C   UNL     1      -7.321  -0.225   5.085  0.00  0.00    +0.127 A 
ATOM     15  C   UNL     1      -6.362  -0.360   4.101  0.00  0.00    +0.042 A 
BRANCH  14  16
ATOM     16  N   UNL     1      -7.006   0.514   6.328  0.00  0.00    +0.056 N 
ATOM     17  O   UNL     1      -7.843   0.628   7.192  0.00  0.00    -0.126 OA
ATOM     18  O   UNL     1      -5.910   1.003   6.478  0.00  0.00    -0.126 OA
ENDBRANCH  14  16
ENDBRANCH   6  10
BRANCH   1  20
ATOM     19  C   UNL     1      -0.019   1.526   0.010  0.00  0.00    +0.062 C 
ATOM     20  C   UNL     1       0.002  -0.004   0.002  0.00  0.00    +0.259 C 
BRANCH  20  21
ATOM     21  O   UNL     1       0.671  -0.465  -1.174  0.00  0.00    -0.449 OA
BRANCH  21  22
ATOM     22  C   UNL     1       2.003  -0.651  -1.087  0.00  0.00    +0.343 C 
ATOM     23  O   UNL     1       2.580  -0.428  -0.041  0.00  0.00    -0.245 OA
BRANCH  22  24
ATOM     24  C   UNL     1       2.758  -1.125  -2.259  0.00  0.00    +0.096 A 
ATOM     25  C   UNL     1       2.229  -1.419  -3.536  0.00  0.00    +0.149 A 
ATOM     26  N   UNL     1       3.211  -1.808  -4.300  0.00  0.00    -0.179 NA
ATOM     27  N   UNL     1       4.399  -1.783  -3.561  0.00  0.00    -0.266 N 
ATOM     28  C   UNL     1       4.118  -1.360  -2.318  0.00  0.00    +0.123 A 
BRANCH  27  29
ATOM     29  C   UNL     1       5.726  -2.150  -4.060  0.00  0.00    +0.178 C 
BRANCH  29  30
ATOM     30  C   UNL     1       5.679  -3.542  -4.634  0.00  0.00    -0.026 A 
ATOM     31  C   UNL     1       5.931  -4.633  -3.823  0.00  0.00    +0.005 A 
ATOM     32  C   UNL     1       5.888  -5.911  -4.350  0.00  0.00    +0.000 A 
ATOM     33  C   UNL     1       5.593  -6.097  -5.688  0.00  0.00    +0.000 A 
ATOM     34  C   UNL     1       5.340  -5.006  -6.498  0.00  0.00    +0.000 A 
ATOM     35  C   UNL     1       5.379  -3.729  -5.971  0.00  0.00    +0.005 A 
ENDBRANCH  29  30
ENDBRANCH  27  29
ENDBRANCH  22  24
ENDBRANCH  21  22
ENDBRANCH  20  21
ENDBRANCH   1  20
TORSDOF 8
