REMARK  Name = ZINC26272965
REMARK  2 active torsions:
REMARK  status: ('A' for Active; 'I' for Inactive)
REMARK    1  A    between atoms: C_4  and  C_7
REMARK    2  A    between atoms: C_8  and  O_19
REMARK                            x       y       z     vdW  Elec       q    Type
REMARK                         _______ _______ _______ _____ _____    ______ ____
ROOT
ATOM      1  C   UNL     1       3.696  -0.686  -0.038  0.00  0.00    +0.064 C 
ATOM      2  C   UNL     1       4.569  -0.601   1.035  0.00  0.00    +0.132 C 
ATOM      3  C   UNL     1       5.798  -1.295   0.997  0.00  0.00    +0.012 C 
ATOM      4  C   UNL     1       6.131  -2.040  -0.074  0.00  0.00    +0.019 C 
ATOM      5  C   UNL     1       7.492  -2.677   0.136  0.00  0.00    +0.052 C 
ATOM      6  C   UNL     1       8.137  -1.875   1.285  0.00  0.00    +0.011 C 
ATOM      7  C   UNL     1       6.897  -1.350   2.040  0.00  0.00    +0.041 C 
ATOM      8  N   UNL     1       5.295  -2.150  -1.155  0.00  0.00    -0.286 N 
ATOM      9  C   UNL     1       4.083  -1.513  -1.194  0.00  0.00    +0.132 C 
ATOM     10  N   UNL     1       3.413  -1.737  -2.303  0.00  0.00    -0.267 NA
ATOM     11  C   UNL     1       4.175  -2.626  -3.187  0.00  0.00    +0.163 C 
ATOM     12  C   UNL     1       5.473  -2.907  -2.407  0.00  0.00    +0.135 C 
ENDROOT
BRANCH   1  16
ATOM     13  C   UNL     1      -0.017   1.379   0.010  0.00  0.00    +0.000 A 
ATOM     14  C   UNL     1       1.169   2.093   0.002  0.00  0.00    +0.001 A 
ATOM     15  C   UNL     1       2.377   1.429  -0.013  0.00  0.00    +0.009 A 
ATOM     16  C   UNL     1       2.403   0.034  -0.021  0.00  0.00    -0.011 A 
ATOM     17  C   UNL     1       1.204  -0.680  -0.013  0.00  0.00    +0.009 A 
ATOM     18  C   UNL     1       0.002  -0.004   0.002  0.00  0.00    +0.001 A 
ENDBRANCH   1  16
BRANCH   2  19
ATOM     19  O   UNL     1       4.244   0.147   2.117  0.00  0.00    -0.506 OA
ATOM     20  H   UNL     1       3.384   0.584   2.049  0.00  0.00    +0.292 HD
ENDBRANCH   2  19
TORSDOF 2
