REMARK  Name = ZINC12866788
REMARK  11 active torsions:
REMARK  status: ('A' for Active; 'I' for Inactive)
REMARK    1  A    between atoms: C_1  and  C_2
REMARK    2  A    between atoms: C_5  and  O_19
REMARK    3  A    between atoms: C_7  and  C_18
REMARK    4  A    between atoms: C_9  and  O_17
REMARK    5  A    between atoms: C_11  and  C_15
REMARK    6  A    between atoms: C_11  and  C_16
REMARK    7  A    between atoms: O_19  and  C_20
REMARK    8  A    between atoms: C_20  and  C_22
REMARK    9  A    between atoms: C_25  and  O_30
REMARK   10  A    between atoms: C_26  and  O_28
REMARK   11  A    between atoms: O_28  and  C_29
REMARK                            x       y       z     vdW  Elec       q    Type
REMARK                         _______ _______ _______ _____ _____    ______ ____
ROOT
ATOM      1  C   UNL     1       0.243   4.288  -2.997  0.00  0.00    +0.039 C 
ATOM      2  C   UNL     1       0.906   3.213  -2.308  0.00  0.00    -0.076 C 
ATOM      3  C   UNL     1       2.024   3.390  -1.506  0.00  0.00    -0.024 C 
ATOM      4  C   UNL     1       2.683   4.778  -1.323  0.00  0.00    +0.076 C 
ATOM      5  C   UNL     1       2.515   5.191   0.096  0.00  0.00    +0.206 C 
ATOM      6  C   UNL     1       1.067   4.877   0.653  0.00  0.00    -0.034 C 
ATOM      7  C   UNL     1       0.777   3.659   0.826  0.00  0.00    +0.007 C 
ATOM      8  C   UNL     1      -0.596   3.175   1.312  0.00  0.00    +0.143 C 
ATOM      9  C   UNL     1      -0.636   1.635   1.232  0.00  0.00    -0.005 C 
ATOM     10  C   UNL     1      -0.013   1.146   0.008  0.00  0.00    +0.009 C 
ATOM     11  C   UNL     1      -0.685   1.602  -1.287  0.00  0.00    +0.005 C 
ATOM     12  C   UNL     1       0.442   1.814  -2.415  0.00  0.00    +0.030 C 
ATOM     13  C   UNL     1      -2.144   1.305   1.165  0.00  0.00    +0.014 C 
ATOM     14  C   UNL     1       0.017   1.049   2.490  0.00  0.00    +0.014 C 
ATOM     15  C   UNL     1       0.122   6.031   0.861  0.00  0.00    +0.042 C 
ENDROOT
BRANCH   8  16
ATOM     16  O   UNL     1      -1.595   3.818   0.579  0.00  0.00    -0.387 OA
ATOM     17  H   UNL     1      -1.584   4.782   0.661  0.00  0.00    +0.210 HD
ENDBRANCH   8  16
BRANCH   5  18
ATOM     18  O   UNL     1       3.452   4.609   0.985  0.00  0.00    -0.453 OA
BRANCH  18  19
ATOM     19  C   UNL     1       4.602   5.281   1.188  0.00  0.00    +0.340 C 
ATOM     20  O   UNL     1       4.797   6.337   0.620  0.00  0.00    -0.245 OA
BRANCH  19  21
ATOM     21  C   UNL     1       5.623   4.735   2.101  0.00  0.00    +0.063 A 
ATOM     22  C   UNL     1       5.398   3.523   2.760  0.00  0.00    +0.019 A 
ATOM     23  C   UNL     1       6.356   3.012   3.608  0.00  0.00    +0.050 A 
ATOM     24  C   UNL     1       7.542   3.704   3.819  0.00  0.00    +0.158 A 
ATOM     25  C   UNL     1       7.771   4.915   3.169  0.00  0.00    +0.162 A 
ATOM     26  C   UNL     1       6.817   5.431   2.313  0.00  0.00    +0.064 A 
BRANCH  25  27
ATOM     27  O   UNL     1       8.933   5.590   3.378  0.00  0.00    -0.491 OA
ATOM     28  C   UNL     1       9.100   6.826   2.679  0.00  0.00    +0.277 C 
ENDBRANCH  25  27
BRANCH  24  29
ATOM     29  O   UNL     1       8.480   3.198   4.660  0.00  0.00    -0.503 OA
ATOM     30  H   UNL     1       8.380   3.484   5.578  0.00  0.00    +0.292 HD
ENDBRANCH  24  29
ENDBRANCH  19  21
ENDBRANCH  18  19
ENDBRANCH   5  18
TORSDOF 6
