REMARK  Name = ZINC36610527
REMARK  13 active torsions:
REMARK  status: ('A' for Active; 'I' for Inactive)
REMARK    1  A    between atoms: C_1  and  C_2
REMARK    2  A    between atoms: C_2  and  C_3
REMARK    3  A    between atoms: C_2  and  C_4
REMARK    4  A    between atoms: C_2  and  N_5
REMARK    5  A    between atoms: C_6  and  C_8
REMARK    6  A    between atoms: C_8  and  C_10
REMARK    7  A    between atoms: C_8  and  N_19
REMARK    8  A    between atoms: C_11  and  O_18
REMARK    9  A    between atoms: C_13  and  O_17
REMARK   10  A    between atoms: C_15  and  O_16
REMARK   11  A    between atoms: N_19  and  C_20
REMARK   12  A    between atoms: C_26  and  C_28
REMARK   13  A    between atoms: C_28  and  C_29
REMARK                            x       y       z     vdW  Elec       q    Type
REMARK                         _______ _______ _______ _____ _____    ______ ____
ROOT
ATOM      1  C   UNL     1       2.715  -0.609  -2.487  0.00  0.00    +0.204 C 
ENDROOT
BRANCH   1   2
ATOM      2  C   UNL     1       2.712  -2.110  -2.352  0.00  0.00    +0.065 A 
ATOM      3  C   UNL     1       3.730  -2.746  -1.658  0.00  0.00    +0.129 A 
ATOM      4  C   UNL     1       3.727  -4.127  -1.534  0.00  0.00    +0.091 A 
ATOM      5  C   UNL     1       2.706  -4.873  -2.104  0.00  0.00    +0.124 A 
ATOM      6  C   UNL     1       1.687  -4.237  -2.797  0.00  0.00    +0.091 A 
ATOM      7  C   UNL     1       1.688  -2.855  -2.917  0.00  0.00    +0.129 A 
BRANCH   7   8
ATOM      8  O   UNL     1       0.687  -2.232  -3.593  0.00  0.00    -0.506 OA
ATOM      9  H   UNL     1       0.860  -2.119  -4.538  0.00  0.00    +0.292 HD
ENDBRANCH   7   8
BRANCH   5  10
ATOM     10  O   UNL     1       2.704  -6.226  -1.983  0.00  0.00    -0.507 OA
ATOM     11  H   UNL     1       2.237  -6.550  -1.200  0.00  0.00    +0.292 HD
ENDBRANCH   5  10
BRANCH   3  12
ATOM     12  O   UNL     1       4.731  -2.016  -1.100  0.00  0.00    -0.506 OA
ATOM     13  H   UNL     1       4.589  -1.803  -0.167  0.00  0.00    +0.292 HD
ENDBRANCH   3  12
ENDBRANCH   1   2
BRANCH   1  15
ATOM     14  N   UNL     1       1.588  -0.235  -0.317  0.00  0.00    -0.309 N 
ATOM     15  C   UNL     1       2.641   0.018  -1.119  0.00  0.00    +0.239 C 
ATOM     16  O   UNL     1       3.530   0.751  -0.739  0.00  0.00    -0.273 OA
ATOM     17  H   UNL     1       0.877  -0.821  -0.621  0.00  0.00    +0.149 HD
BRANCH  14  19
ATOM     18  C   UNL     1       1.520   1.899   0.876  0.00  0.00    +0.031 C 
ATOM     19  C   UNL     1       1.517   0.375   1.013  0.00  0.00    +0.026 C 
ATOM     20  C   UNL     1       2.725  -0.065   1.841  0.00  0.00    +0.031 C 
ATOM     21  C   UNL     1       0.230  -0.071   1.711  0.00  0.00    +0.031 C 
ENDBRANCH  14  19
ENDBRANCH   1  15
BRANCH   1  22
ATOM     22  N   UNL     1       3.946  -0.181  -3.155  0.00  0.00    -0.255 N 
ATOM     23  C   UNL     1       4.148   1.123  -3.425  0.00  0.00    +0.225 C 
ATOM     24  O   UNL     1       3.355   1.954  -3.034  0.00  0.00    -0.275 OA
BRANCH  22  25
ATOM     25  C   UNL     1       4.913  -1.128  -3.513  0.00  0.00    +0.037 A 
ATOM     26  C   UNL     1       6.160  -1.113  -2.904  0.00  0.00    +0.023 A 
ATOM     27  C   UNL     1       7.112  -2.048  -3.259  0.00  0.00    +0.002 A 
ATOM     28  C   UNL     1       6.824  -2.999  -4.221  0.00  0.00    +0.000 A 
ATOM     29  C   UNL     1       5.582  -3.017  -4.830  0.00  0.00    +0.002 A 
ATOM     30  C   UNL     1       4.625  -2.087  -4.475  0.00  0.00    +0.023 A 
ENDBRANCH  22  25
BRANCH  23  31
ATOM     31  C   UNL     1       5.359   1.551  -4.213  0.00  0.00    +0.133 C 
BRANCH  31  32
ATOM     32  C   UNL     1       5.389   3.055  -4.311  0.00  0.00    -0.019 A 
ATOM     33  C   UNL     1       4.849   3.686  -5.417  0.00  0.00    +0.005 A 
ATOM     34  C   UNL     1       4.876   5.065  -5.508  0.00  0.00    +0.002 A 
ATOM     35  C   UNL     1       5.443   5.815  -4.494  0.00  0.00    +0.021 A 
ATOM     36  C   UNL     1       5.984   5.185  -3.388  0.00  0.00    +0.060 A 
ATOM     37  C   UNL     1       5.951   3.804  -3.293  0.00  0.00    +0.063 A 
ATOM     38 CL   UNL     1       6.622   3.012  -1.902  0.00  0.00    -0.082 Cl
ATOM     39 CL   UNL     1       6.696   6.126  -2.114  0.00  0.00    -0.082 Cl
ENDBRANCH  31  32
ENDBRANCH  23  31
ENDBRANCH   1  22
TORSDOF 10
