REMARK  Name = ZINC46670048
REMARK  10 active torsions:
REMARK  status: ('A' for Active; 'I' for Inactive)
REMARK    1  A    between atoms: C_1  and  C_2
REMARK    2  A    between atoms: C_2  and  O_3
REMARK    3  A    between atoms: O_3  and  C_4
REMARK    4  A    between atoms: N_6  and  C_7
REMARK    5  A    between atoms: C_7  and  C_9
REMARK    6  A    between atoms: C_7  and  C_12
REMARK    7  A    between atoms: C_9  and  C_10
REMARK    8  A    between atoms: C_9  and  C_11
REMARK    9  A    between atoms: N_14  and  N_15
REMARK   10  A    between atoms: C_16  and  C_18
REMARK                            x       y       z     vdW  Elec       q    Type
REMARK                         _______ _______ _______ _____ _____    ______ ____
ROOT
ATOM      1  C   UNL     1      -4.239  -4.173   0.621  0.00  0.00    +0.250 C 
ATOM      2  O   UNL     1      -4.973  -3.295   1.022  0.00  0.00    -0.272 OA
ATOM      3  N   UNL     1      -4.616  -5.463   0.721  0.00  0.00    -0.233 N 
ATOM      4  H   UNL     1      -4.029  -6.166   0.400  0.00  0.00    +0.173 HD
ENDROOT
BRANCH   3   5
ATOM      5  N   UNL     1      -5.854  -5.790   1.290  0.00  0.00    -0.229 N 
ATOM      6  C   UNL     1      -6.231  -7.080   1.391  0.00  0.00    +0.276 C 
ATOM      7  O   UNL     1      -5.495  -7.962   0.988  0.00  0.00    -0.267 OA
ATOM      8  H   UNL     1      -6.441  -5.087   1.611  0.00  0.00    +0.173 HD
BRANCH   6   9
ATOM      9  C   UNL     1      -7.527  -7.421   1.986  0.00  0.00    +0.104 A 
ATOM     10  C   UNL     1      -8.036  -8.691   2.157  0.00  0.00    +0.047 A 
ATOM     11  C   UNL     1      -9.291  -8.553   2.759  0.00  0.00    +0.036 A 
ATOM     12  C   UNL     1      -9.521  -7.231   2.941  0.00  0.00    +0.098 A 
ATOM     13  N   UNL     1      -8.454  -6.532   2.480  0.00  0.00    -0.356 N 
ATOM     14  H   UNL     1      -8.361  -5.567   2.494  0.00  0.00    +0.166 HD
ATOM     15 BR   UNL     1     -10.458  -9.963   3.234  0.00  0.00    -0.049 Br
ENDBRANCH   6   9
ENDBRANCH   3   5
BRANCH   1  16
ATOM     16  C   UNL     1      -2.907  -3.823   0.009  0.00  0.00    +0.166 C 
BRANCH  16  19
ATOM     17  C   UNL     1      -1.497  -1.836   0.006  0.00  0.00    +0.401 C 
ATOM     18  O   UNL     1      -0.523  -2.563  -0.007  0.00  0.00    -0.226 OA
ATOM     19  N   UNL     1      -2.735  -2.368   0.015  0.00  0.00    -0.270 N 
ATOM     20  H   UNL     1      -3.512  -1.787   0.026  0.00  0.00    +0.153 HD
BRANCH  17  21
ATOM     21  O   UNL     1      -1.339  -0.499   0.012  0.00  0.00    -0.451 OA
BRANCH  21  23
ATOM     22  C   UNL     1      -0.019   1.526   0.010  0.00  0.00    +0.048 C 
ATOM     23  C   UNL     1       0.002  -0.004   0.002  0.00  0.00    +0.230 C 
ENDBRANCH  21  23
ENDBRANCH  17  21
ENDBRANCH  16  19
BRANCH  16  24
ATOM     24  C   UNL     1      -2.856  -4.336  -1.431  0.00  0.00    +0.012 C 
ATOM     25  C   UNL     1      -3.896  -3.595  -2.274  0.00  0.00    +0.009 C 
ATOM     26  C   UNL     1      -1.462  -4.091  -2.011  0.00  0.00    +0.009 C 
ENDBRANCH  16  24
ENDBRANCH   1  16
TORSDOF 7
