REMARK  Name = ZINC63151350
REMARK  6 active torsions:
REMARK  status: ('A' for Active; 'I' for Inactive)
REMARK    1  A    between atoms: C_1  and  C_2
REMARK    2  A    between atoms: C_5  and  C_8
REMARK    3  A    between atoms: C_8  and  N_9
REMARK    4  A    between atoms: C_10  and  C_12
REMARK    5  A    between atoms: C_12  and  C_18
REMARK    6  A    between atoms: N_19  and  O_20
REMARK                            x       y       z     vdW  Elec       q    Type
REMARK                         _______ _______ _______ _____ _____    ______ ____
ROOT
ATOM      1  C   UNL     1      -1.373  -1.025   7.391  0.00  0.00    +0.105 C 
ATOM      2  C   UNL     1      -2.155  -0.604   8.637  0.00  0.00    +0.024 C 
ATOM      3  C   UNL     1      -2.060   0.913   8.811  0.00  0.00    +0.001 C 
ATOM      4  C   UNL     1      -0.593   1.317   8.970  0.00  0.00    +0.000 C 
ATOM      5  C   UNL     1       0.189   0.896   7.724  0.00  0.00    +0.001 C 
ATOM      6  C   UNL     1       0.094  -0.621   7.549  0.00  0.00    +0.024 C 
ENDROOT
BRANCH   1   7
ATOM      7  C   UNL     1      -1.468  -2.519   7.219  0.00  0.00    +0.147 C 
ATOM      8  N   UNL     1      -0.406  -3.249   7.321  0.00  0.00    -0.076 NA
ATOM      9  N   UNL     1      -2.684  -3.106   6.954  0.00  0.00    -0.343 N 
ATOM     10  H   UNL     1      -3.492  -2.569   6.951  0.00  0.00    +0.144 HD
ATOM     11  H   UNL     1      -2.734  -4.057   6.769  0.00  0.00    +0.144 HD
BRANCH   8  12
ATOM     12  O   UNL     1      -0.495  -4.653   7.160  0.00  0.00    -0.408 OA
ATOM     13  H   UNL     1       0.350  -5.113   7.254  0.00  0.00    +0.328 HD
ENDBRANCH   8  12
ENDBRANCH   1   7
BRANCH   1  15
ATOM     14  N   UNL     1      -1.338  -0.449   4.986  0.00  0.00    -0.314 N 
ATOM     15  C   UNL     1      -1.954  -0.342   6.179  0.00  0.00    +0.226 C 
ATOM     16  O   UNL     1      -2.977   0.303   6.279  0.00  0.00    -0.275 OA
ATOM     17  H   UNL     1      -0.483  -0.903   4.920  0.00  0.00    +0.149 HD
BRANCH  14  18
ATOM     18  C   UNL     1      -1.959   0.121   3.787  0.00  0.00    +0.107 C 
BRANCH  18  23
ATOM     19  C   UNL     1       0.167   2.346   0.382  0.00  0.00    +0.007 C 
ATOM     20  C   UNL     1       0.452   0.847   0.268  0.00  0.00    -0.014 C 
ATOM     21  C   UNL     1      -0.866   0.089   0.095  0.00  0.00    +0.003 C 
ATOM     22  C   UNL     1      -1.765   0.347   1.307  0.00  0.00    +0.005 C 
ATOM     23  C   UNL     1      -1.060  -0.137   2.576  0.00  0.00    +0.006 C 
ATOM     24  C   UNL     1       0.258   0.621   2.748  0.00  0.00    +0.005 C 
ATOM     25  C   UNL     1       1.156   0.363   1.537  0.00  0.00    +0.003 C 
ENDBRANCH  18  23
ENDBRANCH  14  18
ENDBRANCH   1  15
TORSDOF 5
