REMARK  Name = ZINC37944103
REMARK  3 active torsions:
REMARK  status: ('A' for Active; 'I' for Inactive)
REMARK    1  A    between atoms: C_5  and  N_7
REMARK    2  A    between atoms: N_7  and  C_8
REMARK    3  A    between atoms: C_8  and  C_16
REMARK                            x       y       z     vdW  Elec       q    Type
REMARK                         _______ _______ _______ _____ _____    ______ ____
ROOT
ATOM      1  C   UNL     1       0.039  -2.906  -0.070  0.00  0.00    +0.108 C 
ATOM      2  C   UNL     1      -0.890  -2.683  -1.260  0.00  0.00    +0.035 C 
ATOM      3  C   UNL     1      -0.196  -2.900  -2.611  0.00  0.00    +0.003 C 
ATOM      4  C   UNL     1      -0.072  -4.417  -2.842  0.00  0.00    +0.000 C 
ATOM      5  C   UNL     1       1.422  -4.803  -2.914  0.00  0.00    +0.000 C 
ATOM      6  C   UNL     1       2.196  -4.049  -1.820  0.00  0.00    +0.000 C 
ATOM      7  C   UNL     1       1.887  -4.633  -0.445  0.00  0.00    +0.003 C 
ATOM      8  C   UNL     1       0.475  -4.358   0.030  0.00  0.00    +0.035 C 
ENDROOT
BRANCH   1   9
ATOM      9  C   UNL     1      -0.767  -2.590   1.187  0.00  0.00    +0.234 C 
ATOM     10  O   UNL     1      -1.327  -3.482   1.789  0.00  0.00    -0.274 OA
ATOM     11  N   UNL     1      -0.857  -1.320   1.629  0.00  0.00    -0.328 N 
ATOM     12  H   UNL     1      -0.352  -0.617   1.190  0.00  0.00    +0.145 HD
ATOM     13  H   UNL     1      -1.427  -1.108   2.385  0.00  0.00    +0.145 HD
ENDBRANCH   1   9
BRANCH   1  14
ATOM     14  N   UNL     1       1.166  -1.980  -0.090  0.00  0.00    -0.330 N 
ATOM     15  H   UNL     1       1.280  -1.371  -0.837  0.00  0.00    +0.147 HD
BRANCH  14  20
ATOM     16  C   UNL     1       2.771  -2.755   3.123  0.00  0.00    +0.002 A 
ATOM     17  C   UNL     1       3.894  -1.950   3.057  0.00  0.00    +0.001 A 
ATOM     18  C   UNL     1       4.113  -1.155   1.947  0.00  0.00    +0.017 A 
ATOM     19  C   UNL     1       3.210  -1.162   0.901  0.00  0.00    +0.039 A 
ATOM     20  C   UNL     1       2.081  -1.970   0.965  0.00  0.00    +0.042 A 
ATOM     21  C   UNL     1       1.865  -2.768   2.082  0.00  0.00    +0.024 A 
ATOM     22 BR   UNL     1       3.509  -0.073  -0.616  0.00  0.00    -0.048 Br
ENDBRANCH  14  20
ENDBRANCH   1  14
TORSDOF 3
