REMARK  Name = ZINC33682969
REMARK  9 active torsions:
REMARK  status: ('A' for Active; 'I' for Inactive)
REMARK    1  A    between atoms: C_1  and  C_2
REMARK    2  A    between atoms: C_2  and  C_4
REMARK    3  A    between atoms: C_2  and  C_8
REMARK    4  A    between atoms: C_4  and  O_6
REMARK    5  A    between atoms: O_6  and  C_7
REMARK    6  A    between atoms: C_8  and  O_32
REMARK    7  A    between atoms: C_13  and  C_31
REMARK    8  A    between atoms: C_23  and  C_30
REMARK    9  A    between atoms: C_26  and  O_29
REMARK                            x       y       z     vdW  Elec       q    Type
REMARK                         _______ _______ _______ _____ _____    ______ ____
ROOT
ATOM      1  C   UNL     1       1.758   5.434  -0.297  0.00  0.00    +0.084 C 
ATOM      2  C   UNL     1       0.663   5.702   0.769  0.00  0.00    +0.036 C 
ATOM      3  C   UNL     1       0.507   4.388   1.581  0.00  0.00    +0.007 C 
ATOM      4  C   UNL     1       1.722   3.550   1.151  0.00  0.00    +0.001 C 
ATOM      5  C   UNL     1       1.841   3.896  -0.346  0.00  0.00    +0.001 C 
ATOM      6  C   UNL     1       3.080   3.311  -0.966  0.00  0.00    +0.010 C 
ATOM      7  C   UNL     1       3.459   1.978  -0.296  0.00  0.00    +0.005 C 
ATOM      8  C   UNL     1       2.222   1.276   0.244  0.00  0.00    +0.003 C 
ATOM      9  C   UNL     1       1.656   2.081   1.422  0.00  0.00    +0.000 C 
ATOM     10  C   UNL     1       0.254   1.542   1.708  0.00  0.00    +0.031 C 
ATOM     11  C   UNL     1       0.413   0.080   2.045  0.00  0.00    -0.027 C 
ATOM     12  C   UNL     1       1.404  -0.646   1.619  0.00  0.00    -0.065 C 
ATOM     13  C   UNL     1       2.499  -0.147   0.710  0.00  0.00    -0.008 C 
ATOM     14  C   UNL     1       3.837  -0.271   1.427  0.00  0.00    +0.014 C 
ATOM     15  C   UNL     1       3.680  -1.100   2.703  0.00  0.00    +0.032 C 
ATOM     16  C   UNL     1       2.932  -2.402   2.433  0.00  0.00    +0.119 C 
ATOM     17  C   UNL     1       1.475  -2.099   2.059  0.00  0.00    +0.062 C 
ATOM     18  C   UNL     1       2.528  -1.035  -0.539  0.00  0.00    +0.016 C 
ATOM     19  C   UNL     1       0.599   3.436  -1.131  0.00  0.00    +0.014 C 
ENDROOT
BRANCH   1  21
ATOM     20  C   UNL     1       3.545   5.429   1.440  0.00  0.00    +0.022 C 
ATOM     21  C   UNL     1       3.072   6.071   0.134  0.00  0.00    +0.127 C 
BRANCH  21  22
ATOM     22  C   UNL     1       4.110   5.856  -0.936  0.00  0.00    +0.312 C 
ATOM     23  O   UNL     1       3.769   5.686  -2.083  0.00  0.00    -0.250 OA
BRANCH  22  24
ATOM     24  O   UNL     1       5.414   5.852  -0.616  0.00  0.00    -0.468 OA
ATOM     25  C   UNL     1       6.358   5.639  -1.699  0.00  0.00    +0.280 C 
ENDBRANCH  22  24
ENDBRANCH  21  22
ENDBRANCH   1  21
BRANCH  16  26
ATOM     26  O   UNL     1       3.572  -3.133   1.390  0.00  0.00    -0.391 OA
ATOM     27  H   UNL     1       3.163  -4.101   1.066  0.00  0.00    +0.210 HD
ENDBRANCH  16  26
BRANCH   1  28
ATOM     28  O   UNL     1       1.343   5.936  -1.568  0.00  0.00    -0.387 OA
ATOM     29  H   UNL     1       0.409   5.575  -2.024  0.00  0.00    +0.210 HD
ENDBRANCH   1  28
TORSDOF 5
