REMARK  Name = ZINC39969345
REMARK  7 active torsions:
REMARK  status: ('A' for Active; 'I' for Inactive)
REMARK    1  A    between atoms: C_4  and  O_7
REMARK    2  A    between atoms: O_7  and  C_8
REMARK    3  A    between atoms: C_8  and  C_9
REMARK    4  A    between atoms: C_12  and  S_16
REMARK    5  A    between atoms: N_14  and  N_15
REMARK    6  A    between atoms: S_16  and  C_17
REMARK    7  A    between atoms: C_17  and  C_18
REMARK                            x       y       z     vdW  Elec       q    Type
REMARK                         _______ _______ _______ _____ _____    ______ ____
ROOT
ATOM      1  C   UNL     1       4.932  -2.615  -0.061  0.00  0.00    +0.169 C 
ATOM      2  N   UNL     1       5.991  -1.891  -0.063  0.00  0.00    -0.169 NA
ATOM      3  N   UNL     1       7.151  -2.675  -0.080  0.00  0.00    -0.236 N 
ATOM      4  C   UNL     1       6.698  -4.077  -0.091  0.00  0.00    +0.251 C 
ATOM      5  N   UNL     1       5.229  -3.970  -0.071  0.00  0.00    -0.222 N 
ATOM      6  H   UNL     1       8.068  -2.358  -0.085  0.00  0.00    +0.171 HD
ENDROOT
BRANCH   5   7
ATOM      7  N   UNL     1       4.334  -5.002  -0.067  0.00  0.00    -0.250 NA
ATOM      8  H   UNL     1       3.386  -4.659  -0.055  0.00  0.00    +0.141 HD
ATOM      9  H   UNL     1       4.487  -5.616  -0.853  0.00  0.00    +0.141 HD
ENDBRANCH   5   7
BRANCH   1  10
ATOM     10  C   UNL     1       3.531  -2.060  -0.044  0.00  0.00    +0.303 C 
BRANCH  10  11
ATOM     11  O   UNL     1       3.586  -0.632  -0.037  0.00  0.00    -0.484 OA
BRANCH  11  15
ATOM     12  C   UNL     1      -0.017   1.378   0.010  0.00  0.00    +0.000 A 
ATOM     13  C   UNL     1       1.170   2.088   0.002  0.00  0.00    +0.004 A 
ATOM     14  C   UNL     1       2.377   1.417  -0.013  0.00  0.00    +0.045 A 
ATOM     15  C   UNL     1       2.399   0.030  -0.021  0.00  0.00    +0.121 A 
ATOM     16  C   UNL     1       1.207  -0.680  -0.013  0.00  0.00    +0.045 A 
ATOM     17  C   UNL     1       0.002  -0.004   0.002  0.00  0.00    +0.004 A 
ENDBRANCH  11  15
ENDBRANCH  10  11
ENDBRANCH   1  10
BRANCH   4  18
ATOM     18  S   UNL     1       7.291  -4.949   1.385  0.00  0.00    -0.112 S 
BRANCH  18  19
ATOM     19  C   UNL     1       6.602  -3.995   2.765  0.00  0.00    +0.108 C 
BRANCH  19  20
ATOM     20  C   UNL     1       7.024  -4.621   4.069  0.00  0.00    -0.023 A 
ATOM     21  C   UNL     1       7.984  -4.047   4.835  0.00  0.00    +0.075 A 
ATOM     22  C   UNL     1       8.372  -4.642   6.055  0.00  0.00    +0.249 A 
ATOM     23  O   UNL     1       9.236  -4.109   6.728  0.00  0.00    -0.268 OA
ATOM     24  N   UNL     1       7.811  -5.783   6.492  0.00  0.00    -0.322 N 
ATOM     25  H   UNL     1       8.101  -6.165   7.335  0.00  0.00    +0.169 HD
ATOM     26  C   UNL     1       6.829  -6.417   5.761  0.00  0.00    +0.049 A 
ATOM     27  C   UNL     1       6.402  -5.860   4.540  0.00  0.00    +0.002 A 
ATOM     28  C   UNL     1       5.403  -6.496   3.797  0.00  0.00    +0.010 A 
ATOM     29  C   UNL     1       4.843  -7.652   4.264  0.00  0.00    +0.001 A 
ATOM     30  C   UNL     1       5.257  -8.200   5.470  0.00  0.00    +0.002 A 
ATOM     31  C   UNL     1       6.248  -7.597   6.213  0.00  0.00    +0.026 A 
ENDBRANCH  19  20
ENDBRANCH  18  19
ENDBRANCH   4  18
TORSDOF 7
