REMARK  Name = ZINC02224362
REMARK  6 active torsions:
REMARK  status: ('A' for Active; 'I' for Inactive)
REMARK    1  A    between atoms: C_1  and  O_2
REMARK    2  A    between atoms: O_2  and  C_3
REMARK    3  A    between atoms: C_6  and  C_11
REMARK    4  A    between atoms: C_8  and  O_9
REMARK    5  A    between atoms: O_9  and  C_10
REMARK    6  A    between atoms: C_22  and  C_24
REMARK                            x       y       z     vdW  Elec       q    Type
REMARK                         _______ _______ _______ _____ _____    ______ ____
ROOT
ATOM      1  C   UNL     1       2.590  -2.548   4.315  0.00  0.00    +0.159 C 
ATOM      2  C   UNL     1       1.613  -2.632   5.468  0.00  0.00    +0.027 C 
ATOM      3  C   UNL     1       1.960  -2.055   6.636  0.00  0.00    +0.083 C 
ATOM      4  C   UNL     1       0.996  -2.154   7.762  0.00  0.00    +0.042 A 
ATOM      5  C   UNL     1       1.103  -1.341   8.882  0.00  0.00    +0.013 A 
ATOM      6  C   UNL     1       0.182  -1.466   9.905  0.00  0.00    +0.001 A 
ATOM      7  C   UNL     1      -0.840  -2.395   9.814  0.00  0.00    +0.004 A 
ATOM      8  C   UNL     1      -0.952  -3.209   8.702  0.00  0.00    +0.046 A 
ATOM      9  C   UNL     1      -0.037  -3.096   7.670  0.00  0.00    +0.131 A 
ATOM     10  O   UNL     1      -0.120  -3.887   6.570  0.00  0.00    -0.479 OA
ATOM     11  C   UNL     1       0.292  -3.328   5.321  0.00  0.00    +0.234 C 
ATOM     12  N   UNL     1       3.142  -1.408   6.785  0.00  0.00    -0.213 NA
ATOM     13  C   UNL     1       4.044  -1.288   5.838  0.00  0.00    +0.237 C 
ATOM     14  N   UNL     1       3.839  -1.826   4.588  0.00  0.00    -0.208 N 
ATOM     15  N   UNL     1       4.974  -1.522   3.833  0.00  0.00    -0.251 N 
ATOM     16  C   UNL     1       5.803  -0.816   4.651  0.00  0.00    +0.203 C 
ATOM     17  N   UNL     1       5.254  -0.688   5.817  0.00  0.00    -0.205 NA
ATOM     18  H   UNL     1       5.139  -1.765   2.909  0.00  0.00    +0.171 HD
ENDROOT
BRANCH  11  19
ATOM     19  C   UNL     1      -0.743  -2.338   4.853  0.00  0.00    -0.000 A 
ATOM     20  C   UNL     1      -1.330  -1.472   5.757  0.00  0.00    +0.009 A 
ATOM     21  C   UNL     1      -2.280  -0.564   5.330  0.00  0.00    +0.023 A 
ATOM     22  C   UNL     1      -2.644  -0.519   3.996  0.00  0.00    +0.076 A 
ATOM     23  C   UNL     1      -2.056  -1.386   3.089  0.00  0.00    +0.142 A 
ATOM     24  C   UNL     1      -1.101  -2.292   3.519  0.00  0.00    +0.047 A 
ATOM     25  F   UNL     1      -2.411  -1.344   1.786  0.00  0.00    -0.204 F 
ATOM     26 CL   UNL     1      -3.837   0.622   3.459  0.00  0.00    -0.081 Cl
ENDBRANCH  11  19
BRANCH   1  30
ATOM     27  C   UNL     1       0.626  -0.619   1.042  0.00  0.00    +0.162 A 
ATOM     28  C   UNL     1       1.202   0.137   2.051  0.00  0.00    +0.050 A 
ATOM     29  C   UNL     1       1.836  -0.490   3.108  0.00  0.00    +0.009 A 
ATOM     30  C   UNL     1       1.897  -1.870   3.161  0.00  0.00    -0.017 A 
ATOM     31  C   UNL     1       1.325  -2.630   2.158  0.00  0.00    +0.055 A 
ATOM     32  C   UNL     1       0.683  -2.008   1.099  0.00  0.00    +0.162 A 
BRANCH  27  34
ATOM     33  C   UNL     1      -0.017   1.425   0.010  0.00  0.00    +0.277 C 
ATOM     34  O   UNL     1       0.002  -0.004   0.002  0.00  0.00    -0.491 OA
ENDBRANCH  27  34
BRANCH  32  35
ATOM     35  O   UNL     1       0.115  -2.754   0.114  0.00  0.00    -0.491 OA
ATOM     36  C   UNL     1       0.211  -4.174   0.238  0.00  0.00    +0.277 C 
ENDBRANCH  32  35
ENDBRANCH   1  30
TORSDOF 4
