REMARK  Name = ZINC39634765
REMARK  14 active torsions:
REMARK  status: ('A' for Active; 'I' for Inactive)
REMARK    1  A    between atoms: C_1  and  C_2
REMARK    2  A    between atoms: C_2  and  C_4
REMARK    3  A    between atoms: C_2  and  O_29
REMARK    4  A    between atoms: C_8  and  C_17
REMARK    5  A    between atoms: N_19  and  C_20
REMARK    6  A    between atoms: C_20  and  C_21
REMARK    7  A    between atoms: C_21  and  N_22
REMARK    8  A    between atoms: N_22  and  C_23
REMARK    9  A    between atoms: N_22  and  C_26
REMARK   10  A    between atoms: C_23  and  C_24
REMARK   11  A    between atoms: C_23  and  C_25
REMARK   12  A    between atoms: C_26  and  C_27
REMARK   13  A    between atoms: C_26  and  C_28
REMARK   14  A    between atoms: O_29  and  C_30
REMARK                            x       y       z     vdW  Elec       q    Type
REMARK                         _______ _______ _______ _____ _____    ______ ____
ROOT
ATOM      1  C   UNL     1       2.760  -0.613   0.616  0.00  0.00    +0.256 C 
ATOM      2  O   UNL     1       2.034  -1.237   1.361  0.00  0.00    -0.272 OA
ATOM      3  N   UNL     1       4.048  -0.399   0.953  0.00  0.00    -0.297 N 
ATOM      4  C   UNL     1       5.098   0.268   0.149  0.00  0.00    +0.121 C 
ATOM      5  C   UNL     1       5.899   1.106   1.171  0.00  0.00    +0.100 C 
ATOM      6  C   UNL     1       5.656   0.414   2.522  0.00  0.00    -0.004 C 
ATOM      7  C   UNL     1       4.731  -0.772   2.215  0.00  0.00    +0.115 C 
ATOM      8  C   UNL     1       4.971   1.372   3.492  0.00  0.00    -0.010 C 
ATOM      9  C   UNL     1       4.792   0.679   4.846  0.00  0.00    -0.082 C 
ATOM     10  N   UNL     1       6.103   0.277   5.369  0.00  0.00    +0.379 N 
ATOM     11  C   UNL     1       6.715  -0.715   4.476  0.00  0.00    -0.082 C 
ATOM     12  C   UNL     1       6.975  -0.082   3.107  0.00  0.00    -0.010 C 
ATOM     13  H   UNL     1       6.702   1.086   5.430  0.00  0.00    -0.086 HD
ATOM     14  H   UNL     1       5.989  -0.124   6.287  0.00  0.00    -0.086 HD
ENDROOT
BRANCH   5  15
ATOM     15  C   UNL     1       5.385   2.523   1.205  0.00  0.00    +0.218 C 
ATOM     16  O   UNL     1       4.196   2.739   1.108  0.00  0.00    -0.275 OA
ATOM     17  N   UNL     1       6.248   3.549   1.343  0.00  0.00    -0.317 N 
ATOM     18  H   UNL     1       7.199   3.376   1.421  0.00  0.00    +0.149 HD
BRANCH  17  19
ATOM     19  C   UNL     1       5.748   4.926   1.377  0.00  0.00    +0.085 C 
BRANCH  19  20
ATOM     20  C   UNL     1       6.924   5.891   1.541  0.00  0.00    -0.059 C 
BRANCH  20  21
ATOM     21  N   UNL     1       6.415   7.255   1.734  0.00  0.00    +0.384 N 
ATOM     22  H   UNL     1       5.784   7.270   2.522  0.00  0.00    -0.081 HD
BRANCH  21  23
ATOM     23  C   UNL     1       7.539   8.166   1.990  0.00  0.00    -0.074 C 
ATOM     24  C   UNL     1       7.002   9.566   2.295  0.00  0.00    -0.014 C 
ATOM     25  C   UNL     1       8.345   7.657   3.186  0.00  0.00    -0.014 C 
ENDBRANCH  21  23
BRANCH  21  26
ATOM     26  C   UNL     1       5.700   7.687   0.526  0.00  0.00    -0.074 C 
ATOM     27  C   UNL     1       6.363   7.069  -0.707  0.00  0.00    -0.014 C 
ATOM     28  C   UNL     1       4.242   7.229   0.605  0.00  0.00    -0.014 C 
ENDBRANCH  21  26
ENDBRANCH  20  21
ENDBRANCH  19  20
ENDBRANCH  17  19
ENDBRANCH   5  15
BRANCH   1  30
ATOM     29  C   UNL     1       2.120   1.447  -0.607  0.00  0.00    +0.062 C 
ATOM     30  C   UNL     1       2.223  -0.077  -0.686  0.00  0.00    +0.256 C 
BRANCH  30  31
ATOM     31  O   UNL     1       0.928  -0.630  -0.931  0.00  0.00    -0.480 OA
BRANCH  31  32
ATOM     32  C   UNL     1       0.505  -0.662  -2.222  0.00  0.00    +0.122 A 
ATOM     33  C   UNL     1       1.305  -0.141  -3.228  0.00  0.00    +0.045 A 
ATOM     34  C   UNL     1       0.873  -0.175  -4.540  0.00  0.00    +0.004 A 
ATOM     35  C   UNL     1      -0.357  -0.727  -4.850  0.00  0.00    +0.000 A 
ATOM     36  C   UNL     1      -1.156  -1.246  -3.848  0.00  0.00    +0.004 A 
ATOM     37  C   UNL     1      -0.726  -1.220  -2.536  0.00  0.00    +0.045 A 
ENDBRANCH  31  32
ENDBRANCH  30  31
ENDBRANCH   1  30
TORSDOF 9
