REMARK  Name = ZINC39678256
REMARK  8 active torsions:
REMARK  status: ('A' for Active; 'I' for Inactive)
REMARK    1  A    between atoms: C_1  and  C_2
REMARK    2  A    between atoms: C_2  and  O_3
REMARK    3  A    between atoms: O_3  and  C_4
REMARK    4  A    between atoms: C_7  and  C_10
REMARK    5  A    between atoms: C_14  and  C_23
REMARK    6  A    between atoms: N_25  and  C_26
REMARK    7  A    between atoms: C_26  and  C_27
REMARK    8  A    between atoms: C_32  and  N_33
REMARK                            x       y       z     vdW  Elec       q    Type
REMARK                         _______ _______ _______ _____ _____    ______ ____
ROOT
ATOM      1  C   UNL     1      -1.954  -6.545   0.087  0.00  0.00    +0.247 C 
ATOM      2  O   UNL     1      -1.055  -7.314  -0.192  0.00  0.00    -0.270 OA
ATOM      3  N   UNL     1      -3.232  -6.974   0.091  0.00  0.00    -0.296 N 
ATOM      4  C   UNL     1      -4.461  -6.167   0.274  0.00  0.00    +0.121 C 
ATOM      5  C   UNL     1      -5.477  -6.773  -0.720  0.00  0.00    +0.100 C 
ATOM      6  C   UNL     1      -4.989  -8.213  -0.952  0.00  0.00    -0.004 C 
ATOM      7  C   UNL     1      -3.725  -8.360  -0.093  0.00  0.00    +0.115 C 
ATOM      8  C   UNL     1      -4.649  -8.425  -2.423  0.00  0.00    -0.010 C 
ATOM      9  C   UNL     1      -4.221  -9.880  -2.638  0.00  0.00    -0.082 C 
ATOM     10  N   UNL     1      -5.310 -10.777  -2.233  0.00  0.00    +0.379 N 
ATOM     11  C   UNL     1      -5.569 -10.633  -0.795  0.00  0.00    -0.082 C 
ATOM     12  C   UNL     1      -6.053  -9.210  -0.502  0.00  0.00    -0.010 C 
ATOM     13  H   UNL     1      -6.145 -10.544  -2.749  0.00  0.00    -0.086 HD
ATOM     14  H   UNL     1      -5.050 -11.731  -2.432  0.00  0.00    -0.086 HD
ENDROOT
BRANCH   1  18
ATOM     15  C   UNL     1      -1.070  -2.504   1.048  0.00  0.00    +0.121 A 
ATOM     16  C   UNL     1      -2.267  -3.071   1.470  0.00  0.00    +0.046 A 
ATOM     17  C   UNL     1      -2.557  -4.380   1.160  0.00  0.00    +0.016 A 
ATOM     18  C   UNL     1      -1.647  -5.140   0.420  0.00  0.00    +0.037 A 
ATOM     19  C   UNL     1      -0.445  -4.566  -0.002  0.00  0.00    +0.016 A 
ATOM     20  C   UNL     1      -0.164  -3.254   0.307  0.00  0.00    +0.046 A 
BRANCH  15  21
ATOM     21  O   UNL     1      -0.787  -1.212   1.355  0.00  0.00    -0.492 OA
BRANCH  21  23
ATOM     22  C   UNL     1      -1.271   0.929   2.364  0.00  0.00    +0.048 C 
ATOM     23  C   UNL     1      -1.762  -0.499   2.118  0.00  0.00    +0.225 C 
ENDBRANCH  21  23
ENDBRANCH  15  21
ENDBRANCH   1  18
BRANCH   5  24
ATOM     24  C   UNL     1      -6.860  -6.774  -0.121  0.00  0.00    +0.218 C 
ATOM     25  O   UNL     1      -7.017  -7.085   1.040  0.00  0.00    -0.275 OA
ATOM     26  N   UNL     1      -7.922  -6.430  -0.877  0.00  0.00    -0.311 N 
ATOM     27  H   UNL     1      -7.796  -6.182  -1.806  0.00  0.00    +0.149 HD
BRANCH  26  28
ATOM     28  C   UNL     1      -9.266  -6.432  -0.295  0.00  0.00    +0.141 C 
BRANCH  28  29
ATOM     29  C   UNL     1     -10.267  -6.013  -1.341  0.00  0.00    -0.009 A 
ATOM     30  C   UNL     1     -10.738  -4.715  -1.366  0.00  0.00    +0.007 A 
ATOM     31  C   UNL     1     -11.657  -4.330  -2.325  0.00  0.00    +0.000 A 
ATOM     32  C   UNL     1     -12.107  -5.243  -3.262  0.00  0.00    +0.002 A 
ATOM     33  C   UNL     1     -11.640  -6.542  -3.242  0.00  0.00    +0.023 A 
ATOM     34  C   UNL     1     -10.713  -6.931  -2.283  0.00  0.00    +0.034 A 
BRANCH  34  35
ATOM     35  N   UNL     1     -10.234  -8.242  -2.264  0.00  0.00    -0.330 N 
ATOM     36  C   UNL     1     -10.926  -9.280  -1.488  0.00  0.00    +0.105 C 
ATOM     37  C   UNL     1     -11.235 -10.463  -2.411  0.00  0.00    +0.019 C 
ATOM     38  C   UNL     1      -9.942 -10.935  -3.079  0.00  0.00    +0.003 C 
ATOM     39  C   UNL     1      -9.360  -9.801  -3.926  0.00  0.00    +0.019 C 
ATOM     40  C   UNL     1      -9.032  -8.612  -3.024  0.00  0.00    +0.105 C 
ENDBRANCH  34  35
ENDBRANCH  28  29
ENDBRANCH  26  28
ENDBRANCH   5  24
TORSDOF 7
