REMARK  Name = ZINC29437943
REMARK  4 active torsions:
REMARK  status: ('A' for Active; 'I' for Inactive)
REMARK    1  A    between atoms: C_8  and  N_11
REMARK    2  A    between atoms: N_11  and  S_12
REMARK    3  A    between atoms: S_12  and  C_15
REMARK    4  A    between atoms: C_17  and  C_21
REMARK                            x       y       z     vdW  Elec       q    Type
REMARK                         _______ _______ _______ _____ _____    ______ ____
ROOT
ATOM      1  S   UNL     1      -1.616  -3.718   0.022  0.00  0.00    +0.074 S 
ATOM      2  O   UNL     1      -0.856  -4.817   0.505  0.00  0.00    -0.150 OA
ATOM      3  O   UNL     1      -2.863  -3.345   0.591  0.00  0.00    -0.150 OA
ENDROOT
BRANCH   1   4
ATOM      4  C   UNL     1      -0.573  -2.302   0.123  0.00  0.00    +0.126 A 
ATOM      5  C   UNL     1      -0.996  -0.972   0.209  0.00  0.00    +0.061 A 
ATOM      6  C   UNL     1       0.137  -0.189   0.268  0.00  0.00    +0.104 A 
ATOM      7  N   UNL     1       1.226  -1.030   0.212  0.00  0.00    -0.355 N 
ATOM      8  H   UNL     1       2.244  -0.614   0.237  0.00  0.00    +0.166 HD
ATOM      9  C   UNL     1       0.782  -2.308   0.130  0.00  0.00    +0.112 A 
BRANCH   6  10
ATOM     10  C   UNL     1       0.176   1.274   0.366  0.00  0.00    +0.263 C 
ATOM     11  O   UNL     1      -0.861   1.910   0.397  0.00  0.00    -0.268 OA
ATOM     12  N   UNL     1       1.361   1.915   0.415  0.00  0.00    -0.296 N 
ATOM     13  C   UNL     1       2.683   1.274   0.386  0.00  0.00    +0.108 C 
ATOM     14  C   UNL     1       3.738   2.396   0.489  0.00  0.00    +0.020 C 
ATOM     15  C   UNL     1       2.946   3.556   1.148  0.00  0.00    +0.020 C 
ATOM     16  C   UNL     1       1.544   3.374   0.513  0.00  0.00    +0.108 C 
ENDBRANCH   6  10
ENDBRANCH   1   4
BRANCH   1  17
ATOM     17  N   UNL     1      -1.896  -4.006  -1.585  0.00  0.00    -0.216 N 
ATOM     18  H   UNL     1      -2.923  -3.983  -1.977  0.00  0.00    +0.174 HD
BRANCH  17  26
ATOM     19  C   UNL     1      -1.778  -2.684  -5.648  0.00  0.00    +0.001 A 
ATOM     20  C   UNL     1      -0.669  -3.004  -6.434  0.00  0.00    +0.004 A 
ATOM     21  C   UNL     1       0.360  -3.726  -5.911  0.00  0.00    -0.039 A 
ATOM     22  C   UNL     1       0.266  -4.129  -4.583  0.00  0.00    -0.010 A 
ATOM     23  C   UNL     1       1.356  -4.862  -4.123  0.00  0.00    -0.039 A 
ATOM     24  C   UNL     1       1.342  -5.295  -2.831  0.00  0.00    +0.006 A 
ATOM     25  C   UNL     1       0.260  -5.006  -2.000  0.00  0.00    +0.025 A 
ATOM     26  C   UNL     1      -0.830  -4.279  -2.439  0.00  0.00    +0.056 A 
ATOM     27  C   UNL     1      -0.843  -3.823  -3.775  0.00  0.00    +0.005 A 
ATOM     28  C   UNL     1      -1.883  -3.073  -4.343  0.00  0.00    +0.010 A 
ATOM     29  C   UNL     1       2.331  -4.988  -5.268  0.00  0.00    +0.040 C 
ATOM     30  C   UNL     1       1.674  -4.239  -6.447  0.00  0.00    +0.040 C 
ENDBRANCH  17  26
ENDBRANCH   1  17
TORSDOF 4
