REMARK  Name = ZINC08941480
REMARK  9 active torsions:
REMARK  status: ('A' for Active; 'I' for Inactive)
REMARK    1  A    between atoms: C_1  and  C_2
REMARK    2  A    between atoms: C_2  and  C_3
REMARK    3  A    between atoms: C_2  and  N_4
REMARK    4  A    between atoms: N_9  and  C_16
REMARK    5  A    between atoms: C_12  and  S_14
REMARK    6  A    between atoms: S_14  and  C_15
REMARK    7  A    between atoms: C_16  and  C_17
REMARK    8  A    between atoms: C_17  and  N_18
REMARK    9  A    between atoms: C_19  and  C_21
REMARK                            x       y       z     vdW  Elec       q    Type
REMARK                         _______ _______ _______ _____ _____    ______ ____
ROOT
ATOM      1  N   UNL     1       1.326  -2.037  -0.021  0.00  0.00    -0.326 N 
ATOM      2  C   UNL     1       1.251  -0.658  -0.014  0.00  0.00    +0.134 A 
ATOM      3  C   UNL     1       0.002  -0.004   0.002  0.00  0.00    +0.078 A 
ATOM      4  C   UNL     1      -1.342  -0.436   0.013  0.00  0.00    +0.148 A 
ATOM      5  N   UNL     1      -2.113   0.614   0.026  0.00  0.00    -0.177 NA
ATOM      6  N   UNL     1      -1.329   1.775   0.030  0.00  0.00    -0.245 N 
ATOM      7  C   UNL     1      -0.017   1.404   0.010  0.00  0.00    +0.164 A 
ATOM      8  N   UNL     1       1.140   2.064   0.002  0.00  0.00    -0.202 NA
ATOM      9  C   UNL     1       2.289   1.409  -0.013  0.00  0.00    +0.192 A 
ATOM     10  N   UNL     1       2.353   0.082  -0.021  0.00  0.00    -0.206 NA
ATOM     11  H   UNL     1       0.514  -2.567  -0.016  0.00  0.00    +0.148 HD
ENDROOT
BRANCH   1  13
ATOM     12  C   UNL     1       2.503  -4.098   0.566  0.00  0.00    +0.027 C 
ATOM     13  C   UNL     1       2.633  -2.699  -0.038  0.00  0.00    +0.066 C 
ATOM     14  C   UNL     1       3.130  -2.810  -1.481  0.00  0.00    +0.027 C 
ENDBRANCH   1  13
BRANCH   9  15
ATOM     15  S   UNL     1       3.791   2.331  -0.024  0.00  0.00    -0.089 S 
ATOM     16  C   UNL     1       4.991   0.976  -0.043  0.00  0.00    +0.093 C 
ENDBRANCH   9  15
BRANCH   6  17
ATOM     17  C   UNL     1      -1.832   3.151   0.045  0.00  0.00    +0.164 C 
BRANCH  17  18
ATOM     18  C   UNL     1      -2.026   3.638  -1.393  0.00  0.00    +0.128 C 
BRANCH  18  19
ATOM     19  N   UNL     1      -2.530   5.014  -1.378  0.00  0.00    -0.310 N 
ATOM     20  C   UNL     1      -2.777   5.654  -2.538  0.00  0.00    +0.246 C 
ATOM     21  O   UNL     1      -2.582   5.089  -3.597  0.00  0.00    -0.270 OA
ATOM     22  H   UNL     1      -2.685   5.465  -0.533  0.00  0.00    +0.149 HD
BRANCH  20  23
ATOM     23  C   UNL     1      -3.284   7.041  -2.523  0.00  0.00    +0.055 A 
ATOM     24  C   UNL     1      -3.508   7.692  -1.308  0.00  0.00    +0.016 A 
ATOM     25  C   UNL     1      -3.981   8.987  -1.300  0.00  0.00    +0.021 A 
ATOM     26  C   UNL     1      -4.234   9.643  -2.494  0.00  0.00    +0.042 A 
ATOM     27  C   UNL     1      -4.014   9.004  -3.702  0.00  0.00    +0.040 A 
ATOM     28  C   UNL     1      -3.536   7.709  -3.724  0.00  0.00    +0.054 A 
ATOM     29 CL   UNL     1      -3.253   6.911  -5.239  0.00  0.00    -0.083 Cl
ATOM     30 CL   UNL     1      -4.831  11.274  -2.475  0.00  0.00    -0.083 Cl
ENDBRANCH  20  23
ENDBRANCH  18  19
ENDBRANCH  17  18
ENDBRANCH   6  17
TORSDOF 6
