REMARK  Name = ZINC04737329
REMARK  8 active torsions:
REMARK  status: ('A' for Active; 'I' for Inactive)
REMARK    1  A    between atoms: C_1  and  C_2
REMARK    2  A    between atoms: C_2  and  C_3
REMARK    3  A    between atoms: C_5  and  C_11
REMARK    4  A    between atoms: C_6  and  O_10
REMARK    5  A    between atoms: C_8  and  O_9
REMARK    6  A    between atoms: C_11  and  N_20
REMARK    7  A    between atoms: C_12  and  C_13
REMARK    8  A    between atoms: N_20  and  O_21
REMARK                            x       y       z     vdW  Elec       q    Type
REMARK                         _______ _______ _______ _____ _____    ______ ____
ROOT
ATOM      1  C   UNL     1       4.067  -2.061  -2.378  0.00  0.00    +0.072 C 
ATOM      2  C   UNL     1       4.502  -2.683  -1.259  0.00  0.00    +0.036 C 
ENDROOT
BRANCH   2   3
ATOM      3  C   UNL     1       5.929  -3.006  -1.104  0.00  0.00    -0.023 A 
ATOM      4  C   UNL     1       6.905  -2.093  -1.515  0.00  0.00    +0.009 A 
ATOM      5  C   UNL     1       8.241  -2.403  -1.366  0.00  0.00    +0.016 A 
ATOM      6  C   UNL     1       8.616  -3.615  -0.811  0.00  0.00    +0.018 A 
ATOM      7  C   UNL     1       7.655  -4.524  -0.402  0.00  0.00    +0.016 A 
ATOM      8  C   UNL     1       6.316  -4.226  -0.540  0.00  0.00    +0.009 A 
ATOM      9 BR   UNL     1      10.450  -4.031  -0.612  0.00  0.00    -0.050 Br
ENDBRANCH   2   3
BRANCH   1  12
ATOM     10  C   UNL     1       1.079   0.021  -1.471  0.00  0.00    -0.005 A 
ATOM     11  C   UNL     1       2.338  -0.538  -1.435  0.00  0.00    +0.020 A 
ATOM     12  C   UNL     1       2.720  -1.460  -2.413  0.00  0.00    +0.042 A 
ATOM     13  C   UNL     1       1.818  -1.811  -3.427  0.00  0.00    +0.129 A 
ATOM     14  C   UNL     1       0.557  -1.243  -3.453  0.00  0.00    +0.091 A 
ATOM     15  C   UNL     1       0.185  -0.332  -2.474  0.00  0.00    +0.124 A 
BRANCH  10  17
ATOM     16  C   UNL     1       0.793   2.434  -0.975  0.00  0.00    +0.009 C 
ATOM     17  C   UNL     1       0.669   1.015  -0.415  0.00  0.00    +0.035 C 
ENDBRANCH  10  17
BRANCH  15  18
ATOM     18  O   UNL     1      -1.056   0.220  -2.500  0.00  0.00    -0.506 OA
ATOM     19  H   UNL     1      -1.111   1.039  -3.010  0.00  0.00    +0.292 HD
ENDBRANCH  15  18
BRANCH  13  20
ATOM     20  O   UNL     1       2.182  -2.706  -4.382  0.00  0.00    -0.506 OA
ATOM     21  H   UNL     1       1.980  -3.625  -4.157  0.00  0.00    +0.292 HD
ENDBRANCH  13  20
ENDBRANCH   1  12
BRANCH   1  22
ATOM     22  N   UNL     1       4.890  -1.988  -3.497  0.00  0.00    -0.268 N 
ATOM     23  H   UNL     1       4.617  -1.463  -4.266  0.00  0.00    +0.194 HD
BRANCH  22  24
ATOM     24  O   UNL     1       6.126  -2.679  -3.514  0.00  0.00    -0.289 OA
ATOM     25  H   UNL     1       6.661  -2.509  -4.301  0.00  0.00    +0.244 HD
ENDBRANCH  22  24
ENDBRANCH   1  22
TORSDOF 7
