REMARK  Name = ZINC29609628
REMARK  6 active torsions:
REMARK  status: ('A' for Active; 'I' for Inactive)
REMARK    1  A    between atoms: C_4  and  S_21
REMARK    2  A    between atoms: C_5  and  C_7
REMARK    3  A    between atoms: C_7  and  N_8
REMARK    4  A    between atoms: C_9  and  C_11
REMARK    5  A    between atoms: C_14  and  C_16
REMARK    6  A    between atoms: S_21  and  N_24
REMARK                            x       y       z     vdW  Elec       q    Type
REMARK                         _______ _______ _______ _____ _____    ______ ____
ROOT
ATOM      1  C   UNL     1       4.642  -1.635  -2.759  0.00  0.00    +0.000 A 
ATOM      2  C   UNL     1       5.458  -0.884  -1.934  0.00  0.00    +0.002 A 
ATOM      3  C   UNL     1       5.049  -0.580  -0.649  0.00  0.00    +0.029 A 
ATOM      4  C   UNL     1       3.828  -1.035  -0.186  0.00  0.00    +0.110 A 
ATOM      5  C   UNL     1       3.012  -1.786  -1.012  0.00  0.00    -0.004 A 
ATOM      6  C   UNL     1       3.419  -2.086  -2.299  0.00  0.00    +0.007 A 
ENDROOT
BRANCH   4   7
ATOM      7  S   UNL     1       3.309  -0.652   1.453  0.00  0.00    +0.061 S 
ATOM      8  O   UNL     1       3.579  -1.801   2.244  0.00  0.00    -0.153 OA
ATOM      9  O   UNL     1       2.008  -0.089   1.347  0.00  0.00    -0.153 OA
BRANCH   7  10
ATOM     10  N   UNL     1       4.300   0.551   2.012  0.00  0.00    -0.177 NA
ATOM     11  C   UNL     1       4.024   1.958   1.692  0.00  0.00    +0.109 C 
ATOM     12  C   UNL     1       5.280   2.578   1.070  0.00  0.00    +0.017 C 
ATOM     13  C   UNL     1       6.467   2.369   2.013  0.00  0.00    +0.003 C 
ATOM     14  C   UNL     1       6.712   0.871   2.204  0.00  0.00    +0.017 C 
ATOM     15  C   UNL     1       5.472   0.232   2.839  0.00  0.00    +0.109 C 
ENDBRANCH   7  10
ENDBRANCH   4   7
BRANCH   5  16
ATOM     16  C   UNL     1       1.679  -2.277  -0.509  0.00  0.00    +0.141 C 
BRANCH  16  17
ATOM     17  N   UNL     1       0.693  -1.197  -0.606  0.00  0.00    -0.306 N 
ATOM     18  C   UNL     1      -0.598  -1.435  -0.303  0.00  0.00    +0.263 C 
ATOM     19  O   UNL     1      -0.930  -2.520   0.137  0.00  0.00    -0.269 OA
ATOM     20  H   UNL     1       1.007  -0.193  -0.925  0.00  0.00    +0.149 HD
BRANCH  18  21
ATOM     21  C   UNL     1      -1.608  -0.382  -0.504  0.00  0.00    +0.133 A 
ATOM     22  C   UNL     1      -2.906  -0.577  -0.102  0.00  0.00    +0.080 A 
ATOM     23  S   UNL     1      -3.643   0.926  -0.562  0.00  0.00    -0.072 S 
ATOM     24  C   UNL     1      -2.191   1.704  -1.251  0.00  0.00    +0.144 A 
ATOM     25  N   UNL     1      -1.274   0.768  -1.071  0.00  0.00    -0.231 NA
BRANCH  24  26
ATOM     26  C   UNL     1      -2.051   3.039  -1.855  0.00  0.00    +0.160 A 
ATOM     27  C   UNL     1      -3.021   3.993  -1.922  0.00  0.00    +0.052 A 
ATOM     28  C   UNL     1      -2.453   5.103  -2.574  0.00  0.00    +0.042 A 
ATOM     29  C   UNL     1      -1.181   4.775  -2.879  0.00  0.00    +0.196 A 
ATOM     30  O   UNL     1      -0.941   3.528  -2.443  0.00  0.00    -0.461 OA
ENDBRANCH  24  26
ENDBRANCH  18  21
ENDBRANCH  16  17
ENDBRANCH   5  16
TORSDOF 6
