REMARK  Name = ZINC20515639
REMARK  10 active torsions:
REMARK  status: ('A' for Active; 'I' for Inactive)
REMARK    1  A    between atoms: C_1  and  O_2
REMARK    2  A    between atoms: O_2  and  C_3
REMARK    3  A    between atoms: C_3  and  C_5
REMARK    4  A    between atoms: N_7  and  C_10
REMARK    5  A    between atoms: C_13  and  C_28
REMARK    6  A    between atoms: N_15  and  C_17
REMARK    7  A    between atoms: C_17  and  C_18
REMARK    8  A    between atoms: N_30  and  C_31
REMARK    9  A    between atoms: C_31  and  C_32
REMARK   10  A    between atoms: C_32  and  C_33
REMARK                            x       y       z     vdW  Elec       q    Type
REMARK                         _______ _______ _______ _____ _____    ______ ____
ROOT
ATOM      1  C   UNL     1       4.120   0.184   1.630  0.00  0.00    +0.091 C 
ATOM      2  C   UNL     1       2.624   0.078   1.267  0.00  0.00    +0.019 C 
ATOM      3  C   UNL     1       2.462   0.920  -0.017  0.00  0.00    +0.022 C 
ATOM      4  N   UNL     1       3.594   1.881   0.018  0.00  0.00    +0.391 N 
ATOM      5  C   UNL     1       4.735   1.081   0.535  0.00  0.00    -0.050 C 
ATOM      6  H   UNL     1       3.382   2.768   0.633  0.00  0.00    -0.080 HD
ENDROOT
BRANCH   1   9
ATOM      7  C   UNL     1       5.724  -2.981   0.974  0.00  0.00    +0.189 A 
ATOM      8  C   UNL     1       5.246  -1.778   0.535  0.00  0.00    +0.145 A 
ATOM      9  N   UNL     1       4.743  -1.142   1.612  0.00  0.00    -0.250 N 
ATOM     10  N   UNL     1       4.936  -1.989   2.712  0.00  0.00    -0.065 NA
ATOM     11  N   UNL     1       5.511  -3.065   2.299  0.00  0.00    -0.123 NA
BRANCH   7  12
ATOM     12  C   UNL     1       6.366  -4.010   0.138  0.00  0.00    +0.361 C 
ATOM     13  O   UNL     1       6.507  -3.823  -1.055  0.00  0.00    -0.243 OA
BRANCH  12  15
ATOM     14  C   UNL     1       7.420  -6.127  -0.190  0.00  0.00    +0.280 C 
ATOM     15  O   UNL     1       6.797  -5.159   0.695  0.00  0.00    -0.463 OA
ENDBRANCH  12  15
ENDBRANCH   7  12
ENDBRANCH   1   9
BRANCH   3  16
ATOM     16  C   UNL     1       1.147   1.655   0.000  0.00  0.00    +0.200 C 
ATOM     17  O   UNL     1       1.130   2.868   0.007  0.00  0.00    -0.278 OA
ATOM     18  N   UNL     1      -0.011   0.966   0.007  0.00  0.00    -0.316 N 
ATOM     19  H   UNL     1       0.004  -0.134   0.006  0.00  0.00    +0.149 HD
BRANCH  18  20
ATOM     20  C   UNL     1      -1.290   1.681   0.017  0.00  0.00    +0.109 C 
BRANCH  20  21
ATOM     21  C   UNL     1      -2.439   0.671   0.017  0.00  0.00    +0.054 C 
BRANCH  21  22
ATOM     22  C   UNL     1      -3.754   1.407   0.028  0.00  0.00    -0.045 A 
ATOM     23  C   UNL     1      -4.363   1.751  -1.165  0.00  0.00    +0.004 A 
ATOM     24  C   UNL     1      -5.570   2.425  -1.157  0.00  0.00    +0.002 A 
ATOM     25  C   UNL     1      -6.168   2.756   0.045  0.00  0.00    +0.020 A 
ATOM     26  C   UNL     1      -5.559   2.412   1.238  0.00  0.00    +0.041 A 
ATOM     27  C   UNL     1      -4.354   1.732   1.229  0.00  0.00    +0.023 A 
ATOM     28 CL   UNL     1      -6.311   2.827   2.747  0.00  0.00    -0.084 Cl
ENDBRANCH  21  22
ENDBRANCH  20  21
ENDBRANCH  18  20
ENDBRANCH   3  16
BRANCH   4  29
ATOM     29  C   UNL     1       3.880   2.406  -1.324  0.00  0.00    -0.042 C 
BRANCH  29  30
ATOM     30  C   UNL     1       4.857   3.548  -1.219  0.00  0.00    -0.063 A 
ATOM     31  C   UNL     1       4.380   4.849  -1.070  0.00  0.00    +0.004 A 
ATOM     32  C   UNL     1       5.234   5.903  -0.966  0.00  0.00    +0.028 A 
ATOM     33  C   UNL     1       6.622   5.684  -1.022  0.00  0.00    +0.071 A 
ATOM     34  C   UNL     1       7.105   4.361  -1.179  0.00  0.00    +0.001 A 
ATOM     35  C   UNL     1       6.194   3.297  -1.277  0.00  0.00    +0.011 A 
ATOM     36  C   UNL     1       8.494   4.144  -1.235  0.00  0.00    +0.011 A 
ATOM     37  C   UNL     1       9.321   5.227  -1.135  0.00  0.00    +0.020 A 
ATOM     38  C   UNL     1       8.780   6.502  -0.981  0.00  0.00    +0.111 A 
ATOM     39  N   UNL     1       7.485   6.700  -0.929  0.00  0.00    -0.255 NA
ENDBRANCH  29  30
ENDBRANCH   4  29
TORSDOF 9
