REMARK  Name = ZINC59119237
REMARK  12 active torsions:
REMARK  status: ('A' for Active; 'I' for Inactive)
REMARK    1  A    between atoms: C_1  and  C_2
REMARK    2  A    between atoms: C_2  and  N_3
REMARK    3  A    between atoms: N_3  and  C_4
REMARK    4  A    between atoms: N_3  and  C_6
REMARK    5  A    between atoms: C_4  and  C_5
REMARK    6  A    between atoms: C_6  and  C_8
REMARK    7  A    between atoms: C_6  and  C_25
REMARK    8  A    between atoms: C_8  and  N_9
REMARK    9  A    between atoms: N_12  and  C_13
REMARK   10  A    between atoms: C_13  and  C_14
REMARK   11  A    between atoms: C_14  and  C_16
REMARK   12  A    between atoms: C_14  and  O_24
REMARK                            x       y       z     vdW  Elec       q    Type
REMARK                         _______ _______ _______ _____ _____    ______ ____
ROOT
ATOM      1  N   UNL     1      -0.036  -2.272  -1.598  0.00  0.00    -0.301 N 
ATOM      2  C   UNL     1       0.246  -3.241  -0.705  0.00  0.00    +0.300 C 
ATOM      3  O   UNL     1       0.961  -3.000   0.249  0.00  0.00    -0.253 OA
ATOM      4  N   UNL     1      -0.263  -4.478  -0.869  0.00  0.00    -0.297 N 
ATOM      5  H   UNL     1      -0.606  -2.465  -2.359  0.00  0.00    +0.150 HD
ATOM      6  H   UNL     1      -0.833  -4.671  -1.630  0.00  0.00    +0.150 HD
ENDROOT
BRANCH   1   7
ATOM      7  C   UNL     1       0.517  -0.928  -1.419  0.00  0.00    +0.095 C 
BRANCH   7   8
ATOM      8  C   UNL     1      -0.109   0.022  -2.442  0.00  0.00    -0.020 C 
BRANCH   8   9
ATOM      9  C   UNL     1       0.318   1.436  -2.143  0.00  0.00    -0.052 A 
ATOM     10  C   UNL     1      -0.572   2.483  -2.288  0.00  0.00    +0.009 A 
ATOM     11  C   UNL     1      -0.156   3.743  -2.011  0.00  0.00    +0.045 A 
ATOM     12  S   UNL     1       1.541   3.473  -1.526  0.00  0.00    -0.105 S 
ATOM     13  C   UNL     1       1.579   1.699  -1.721  0.00  0.00    +0.047 A 
ENDBRANCH   8   9
BRANCH   8  14
ATOM     14  N   UNL     1      -1.573  -0.074  -2.368  0.00  0.00    +0.385 N 
ATOM     15  H   UNL     1      -1.843  -1.044  -2.297  0.00  0.00    -0.081 HD
BRANCH  14  17
ATOM     16  C   UNL     1      -1.399   0.074   0.070  0.00  0.00    -0.017 C 
ATOM     17  C   UNL     1      -2.051   0.655  -1.185  0.00  0.00    -0.081 C 
ENDBRANCH  14  17
BRANCH  14  18
ATOM     18  C   UNL     1      -2.164   0.513  -3.577  0.00  0.00    -0.081 C 
ATOM     19  C   UNL     1      -1.894  -0.403  -4.773  0.00  0.00    -0.017 C 
ENDBRANCH  14  18
ENDBRANCH   8  14
ENDBRANCH   7   8
ENDBRANCH   1   7
BRANCH   4  20
ATOM     20  C   UNL     1       0.044  -5.532   0.101  0.00  0.00    +0.141 C 
BRANCH  20  21
ATOM     21  C   UNL     1      -0.653  -6.828  -0.316  0.00  0.00    +0.162 C 
BRANCH  21  22
ATOM     22  C   UNL     1      -0.337  -7.912   0.683  0.00  0.00    -0.015 A 
ATOM     23  C   UNL     1      -1.096  -8.035   1.832  0.00  0.00    +0.009 A 
ATOM     24  C   UNL     1      -0.809  -9.028   2.749  0.00  0.00    +0.041 A 
ATOM     25  C   UNL     1       0.240  -9.901   2.517  0.00  0.00    +0.158 A 
ATOM     26  C   UNL     1       1.001  -9.778   1.365  0.00  0.00    +0.159 A 
ATOM     27  C   UNL     1       0.707  -8.786   0.446  0.00  0.00    +0.047 A 
ATOM     28  F   UNL     1       2.026 -10.629   1.137  0.00  0.00    -0.202 F 
ATOM     29  F   UNL     1       0.522 -10.872   3.413  0.00  0.00    -0.202 F 
ENDBRANCH  21  22
BRANCH  21  30
ATOM     30  O   UNL     1      -2.066  -6.617  -0.358  0.00  0.00    -0.386 OA
ATOM     31  H   UNL     1      -2.449  -6.346   0.487  0.00  0.00    +0.210 HD
ENDBRANCH  21  30
ENDBRANCH  20  21
ENDBRANCH   4  20
TORSDOF 10
