REMARK  Name = ZINC24072519
REMARK  5 active torsions:
REMARK  status: ('A' for Active; 'I' for Inactive)
REMARK    1  A    between atoms: C_1  and  C_2
REMARK    2  A    between atoms: C_2  and  C_4
REMARK    3  A    between atoms: C_2  and  N_20
REMARK    4  A    between atoms: N_9  and  C_10
REMARK    5  A    between atoms: C_26  and  C_28
REMARK                            x       y       z     vdW  Elec       q    Type
REMARK                         _______ _______ _______ _____ _____    ______ ____
ROOT
ATOM      1  C   UNL     1       5.619   6.443   2.025  0.00  0.00    +0.207 C 
ATOM      2  O   UNL     1       4.715   6.752   1.278  0.00  0.00    -0.277 OA
ATOM      3  N   UNL     1       6.094   7.337   2.914  0.00  0.00    -0.242 N 
ATOM      4  C   UNL     1       5.565   8.575   2.973  0.00  0.00    +0.306 C 
ATOM      5  O   UNL     1       4.659   8.885   2.224  0.00  0.00    -0.252 OA
ATOM      6  N   UNL     1       6.040   9.470   3.862  0.00  0.00    -0.294 N 
ATOM      7  H   UNL     1       6.914   7.057   3.592  0.00  0.00    +0.159 HD
ATOM      8  H   UNL     1       6.860   9.189   4.540  0.00  0.00    +0.151 HD
ENDROOT
BRANCH   6   9
ATOM      9  C   UNL     1       5.465  10.816   3.926  0.00  0.00    +0.037 C 
ATOM     10  C   UNL     1       5.640  11.510   2.574  0.00  0.00    +0.029 C 
ATOM     11  C   UNL     1       5.040  12.915   2.641  0.00  0.00    -0.008 C 
ATOM     12  C   UNL     1       5.754  13.724   3.725  0.00  0.00    +0.007 C 
ATOM     13  C   UNL     1       5.579  13.030   5.077  0.00  0.00    -0.008 C 
ATOM     14  C   UNL     1       6.180  11.625   5.011  0.00  0.00    +0.029 C 
ATOM     15  C   UNL     1       4.089  12.933   5.412  0.00  0.00    +0.007 C 
ATOM     16  C   UNL     1       3.375  12.124   4.327  0.00  0.00    -0.008 C 
ATOM     17  C   UNL     1       3.550  12.818   2.975  0.00  0.00    +0.007 C 
ATOM     18  C   UNL     1       3.975  10.718   4.261  0.00  0.00    +0.029 C 
ENDBRANCH   6   9
BRANCH   1  20
ATOM     19  C   UNL     1       7.390   5.054   0.985  0.00  0.00    -0.004 C 
ATOM     20  C   UNL     1       6.210   5.058   1.960  0.00  0.00    +0.017 C 
BRANCH  20  21
ATOM     21  N   UNL     1       5.188   4.111   1.496  0.00  0.00    +0.389 N 
ATOM     22  C   UNL     1       3.975   4.201   2.318  0.00  0.00    -0.058 C 
ATOM     23  C   UNL     1       3.008   3.080   1.922  0.00  0.00    +0.089 C 
ATOM     24  N   UNL     1       2.782   3.150   0.470  0.00  0.00    -0.301 N 
ATOM     25  C   UNL     1       3.955   3.196  -0.415  0.00  0.00    +0.089 C 
ATOM     26  C   UNL     1       4.885   4.318   0.073  0.00  0.00    -0.058 C 
ATOM     27  C   UNL     1       1.533   3.166  -0.035  0.00  0.00    +0.253 C 
ATOM     28  O   UNL     1       1.364   3.172  -1.241  0.00  0.00    -0.269 OA
ATOM     29  H   UNL     1       5.593   3.094   1.606  0.00  0.00    -0.081 HD
BRANCH  27  30
ATOM     30  C   UNL     1       0.377   3.175   0.867  0.00  0.00    +0.074 A 
ATOM     31  C   UNL     1      -0.864   3.767   0.690  0.00  0.00    +0.021 A 
ATOM     32  C   UNL     1      -1.774   3.624   1.708  0.00  0.00    +0.008 A 
ATOM     33  C   UNL     1      -1.428   2.915   2.814  0.00  0.00    +0.046 A 
ATOM     34  S   UNL     1       0.202   2.427   2.477  0.00  0.00    -0.092 S 
ENDBRANCH  27  30
ENDBRANCH  20  21
ENDBRANCH   1  20
TORSDOF 4
