REMARK  Name = ZINC11441089
REMARK  8 active torsions:
REMARK  status: ('A' for Active; 'I' for Inactive)
REMARK    1  A    between atoms: C_4  and  N_8
REMARK    2  A    between atoms: C_9  and  C_11
REMARK    3  A    between atoms: C_11  and  O_12
REMARK    4  A    between atoms: O_12  and  C_13
REMARK    5  A    between atoms: C_13  and  C_15
REMARK    6  A    between atoms: C_15  and  C_16
REMARK    7  A    between atoms: C_16  and  N_17
REMARK    8  A    between atoms: N_20  and  C_21
REMARK                            x       y       z     vdW  Elec       q    Type
REMARK                         _______ _______ _______ _____ _____    ______ ____
ROOT
ATOM      1  C   UNL     1      -8.618   0.543   1.973  0.00  0.00    +0.139 C 
ENDROOT
BRANCH   1   2
ATOM      2  C   UNL     1      -9.541   0.894   3.111  0.00  0.00    +0.309 C 
ATOM      3  O   UNL     1      -9.145   1.585   4.020  0.00  0.00    -0.251 OA
BRANCH   2   4
ATOM      4  O   UNL     1     -10.804   0.438   3.116  0.00  0.00    -0.455 OA
BRANCH   4   5
ATOM      5  C   UNL     1     -11.636   0.815   4.244  0.00  0.00    +0.328 C 
BRANCH   5   7
ATOM      6  N   UNL     1     -13.957   0.434   5.011  0.00  0.00    -0.281 N 
ATOM      7  C   UNL     1     -13.009   0.216   4.078  0.00  0.00    +0.255 C 
ATOM      8  O   UNL     1     -13.261  -0.462   3.104  0.00  0.00    -0.272 OA
ATOM      9  H   UNL     1     -13.738   0.921   5.820  0.00  0.00    +0.155 HD
BRANCH   6  13
ATOM     10  C   UNL     1     -17.831  -0.985   4.417  0.00  0.00    +0.021 A 
ATOM     11  C   UNL     1     -17.629   0.216   5.072  0.00  0.00    +0.023 A 
ATOM     12  C   UNL     1     -16.346   0.689   5.271  0.00  0.00    +0.062 A 
ATOM     13  C   UNL     1     -15.258  -0.043   4.811  0.00  0.00    +0.053 A 
ATOM     14  C   UNL     1     -15.464  -1.245   4.149  0.00  0.00    +0.044 A 
ATOM     15  C   UNL     1     -16.750  -1.716   3.958  0.00  0.00    +0.043 A 
ATOM     16 CL   UNL     1     -17.009  -3.223   3.135  0.00  0.00    -0.083 Cl
ATOM     17 CL   UNL     1     -16.094   2.197   6.095  0.00  0.00    -0.082 Cl
ENDBRANCH   6  13
ENDBRANCH   5   7
ENDBRANCH   4   5
ENDBRANCH   2   4
ENDBRANCH   1   2
BRANCH   1  18
ATOM     18  C   UNL     1      -7.249   1.184   2.211  0.00  0.00    +0.117 C 
BRANCH  18  19
ATOM     19  N   UNL     1      -6.351   0.843   1.104  0.00  0.00    -0.299 N 
ATOM     20  C   UNL     1      -5.084   1.301   1.099  0.00  0.00    +0.300 C 
ATOM     21  O   UNL     1      -4.685   1.996   2.014  0.00  0.00    -0.253 OA
ATOM     22  N   UNL     1      -4.258   0.987   0.081  0.00  0.00    -0.294 N 
ATOM     23  H   UNL     1      -6.670   0.288   0.375  0.00  0.00    +0.150 HD
ATOM     24  H   UNL     1      -4.576   0.432  -0.648  0.00  0.00    +0.151 HD
BRANCH  22  25
ATOM     25  C   UNL     1      -2.880   1.485   0.076  0.00  0.00    +0.037 C 
ATOM     26  C   UNL     1      -2.163   0.988  -1.181  0.00  0.00    +0.029 C 
ATOM     27  C   UNL     1      -0.724   1.507  -1.186  0.00  0.00    -0.008 C 
ATOM     28  C   UNL     1       0.008   0.994   0.055  0.00  0.00    +0.007 C 
ATOM     29  C   UNL     1      -0.709   1.491   1.312  0.00  0.00    -0.008 C 
ATOM     30  C   UNL     1      -2.148   0.971   1.317  0.00  0.00    +0.029 C 
ATOM     31  C   UNL     1      -0.719   3.021   1.322  0.00  0.00    +0.007 C 
ATOM     32  C   UNL     1      -1.451   3.534   0.081  0.00  0.00    -0.008 C 
ATOM     33  C   UNL     1      -0.734   3.037  -1.176  0.00  0.00    +0.007 C 
ATOM     34  C   UNL     1      -2.890   3.015   0.086  0.00  0.00    +0.029 C 
ENDBRANCH  22  25
ENDBRANCH  18  19
ENDBRANCH   1  18
TORSDOF 8
