REMARK  Name = ZINC08968149
REMARK  9 active torsions:
REMARK  status: ('A' for Active; 'I' for Inactive)
REMARK    1  A    between atoms: C_1  and  C_2
REMARK    2  A    between atoms: C_5  and  C_8
REMARK    3  A    between atoms: C_8  and  C_10
REMARK    4  A    between atoms: C_8  and  S_25
REMARK    5  A    between atoms: C_10  and  N_11
REMARK    6  A    between atoms: C_12  and  C_14
REMARK    7  A    between atoms: N_16  and  N_17
REMARK    8  A    between atoms: C_18  and  C_20
REMARK    9  A    between atoms: S_25  and  C_28
REMARK                            x       y       z     vdW  Elec       q    Type
REMARK                         _______ _______ _______ _____ _____    ______ ____
ROOT
ATOM      1  C   UNL     1      -3.251   3.206   2.481  0.00  0.00    +0.136 C 
ENDROOT
BRANCH   1   2
ATOM      2  N   UNL     1      -4.438   2.636   1.840  0.00  0.00    -0.305 N 
ATOM      3  C   UNL     1      -4.939   1.461   2.271  0.00  0.00    +0.301 C 
ATOM      4  O   UNL     1      -4.406   0.876   3.191  0.00  0.00    -0.265 OA
ATOM      5  H   UNL     1      -4.864   3.104   1.104  0.00  0.00    +0.149 HD
BRANCH   3   6
ATOM      6  C   UNL     1      -6.150   0.880   1.617  0.00  0.00    +0.315 C 
ATOM      7  O   UNL     1      -6.683   1.465   0.697  0.00  0.00    -0.264 OA
ATOM      8  N   UNL     1      -6.651  -0.295   2.048  0.00  0.00    -0.226 N 
ATOM      9  H   UNL     1      -6.225  -0.762   2.784  0.00  0.00    +0.173 HD
BRANCH   8  10
ATOM     10  N   UNL     1      -7.786  -0.840   1.435  0.00  0.00    -0.227 N 
ATOM     11  C   UNL     1      -8.287  -2.014   1.867  0.00  0.00    +0.295 C 
ATOM     12  O   UNL     1      -7.753  -2.601   2.789  0.00  0.00    -0.265 OA
ATOM     13  H   UNL     1      -8.212  -0.372   0.700  0.00  0.00    +0.173 HD
BRANCH  11  14
ATOM     14  C   UNL     1      -9.476  -2.585   1.224  0.00  0.00    +0.190 A 
ATOM     15  C   UNL     1     -10.083  -3.761   1.561  0.00  0.00    +0.054 A 
ATOM     16  C   UNL     1     -11.175  -3.914   0.692  0.00  0.00    +0.042 A 
ATOM     17  C   UNL     1     -11.186  -2.839  -0.126  0.00  0.00    +0.196 A 
ATOM     18  O   UNL     1     -10.164  -2.037   0.202  0.00  0.00    -0.458 OA
ENDBRANCH  11  14
ENDBRANCH   8  10
ENDBRANCH   3   6
ENDBRANCH   1   2
BRANCH   1  19
ATOM     19  C   UNL     1      -2.893   4.532   1.806  0.00  0.00    +0.183 C 
BRANCH  19  24
ATOM     20  C   UNL     1       1.790   6.780   4.337  0.00  0.00    +0.044 C 
ATOM     21  C   UNL     1       0.569   6.194   3.677  0.00  0.00    -0.050 A 
ATOM     22  C   UNL     1      -0.621   6.898   3.674  0.00  0.00    +0.004 A 
ATOM     23  C   UNL     1      -1.741   6.361   3.068  0.00  0.00    +0.006 A 
ATOM     24  C   UNL     1      -1.672   5.118   2.466  0.00  0.00    -0.022 A 
ATOM     25  C   UNL     1      -0.484   4.411   2.474  0.00  0.00    +0.006 A 
ATOM     26  C   UNL     1       0.638   4.951   3.075  0.00  0.00    +0.004 A 
ENDBRANCH  19  24
BRANCH  19  27
ATOM     27  S   UNL     1      -2.551   4.243   0.049  0.00  0.00    +0.011 S 
ATOM     28  O   UNL     1      -2.046   5.427  -0.553  0.00  0.00    -0.168 OA
ATOM     29  O   UNL     1      -3.625   3.528  -0.548  0.00  0.00    -0.168 OA
BRANCH  27  30
ATOM     30  C   UNL     1      -1.196   3.116   0.030  0.00  0.00    +0.126 A 
ATOM     31  C   UNL     1      -1.213   1.761   0.017  0.00  0.00    +0.035 A 
ATOM     32  C   UNL     1      -0.013   1.076   0.008  0.00  0.00    +0.009 A 
ATOM     33  C   UNL     1       1.146   1.780   0.001  0.00  0.00    +0.047 A 
ATOM     34  S   UNL     1       0.555   3.464   0.015  0.00  0.00    -0.078 S 
ENDBRANCH  27  30
ENDBRANCH  19  27
ENDBRANCH   1  19
TORSDOF 8
