REMARK  Name = ZINC59460810
REMARK  4 active torsions:
REMARK  status: ('A' for Active; 'I' for Inactive)
REMARK    1  A    between atoms: C_3  and  S_15
REMARK    2  A    between atoms: C_6  and  N_7
REMARK    3  A    between atoms: C_8  and  C_9
REMARK    4  A    between atoms: S_15  and  N_18
REMARK                            x       y       z     vdW  Elec       q    Type
REMARK                         _______ _______ _______ _____ _____    ______ ____
ROOT
ATOM      1  C   UNL     1      -0.017   1.393   0.010  0.00  0.00    +0.029 A 
ATOM      2  C   UNL     1       1.170   2.095   0.002  0.00  0.00    +0.031 A 
ATOM      3  C   UNL     1       2.378   1.420  -0.013  0.00  0.00    +0.113 A 
ATOM      4  C   UNL     1       2.404   0.036  -0.021  0.00  0.00    +0.031 A 
ATOM      5  C   UNL     1       1.225  -0.679  -0.014  0.00  0.00    +0.029 A 
ATOM      6  C   UNL     1       0.002  -0.004   0.002  0.00  0.00    +0.064 A 
ENDROOT
BRANCH   3   7
ATOM      7  S   UNL     1       3.889   2.326  -0.023  0.00  0.00    +0.102 S 
ATOM      8  O   UNL     1       4.872   1.469  -0.587  0.00  0.00    -0.146 OA
ATOM      9  O   UNL     1       3.592   3.606  -0.564  0.00  0.00    -0.146 OA
BRANCH   7  10
ATOM     10  N   UNL     1       4.324   2.569   1.557  0.00  0.00    -0.093 NA
ATOM     11  C   UNL     1       5.417   3.221   1.839  0.00  0.00    +0.212 C 
ATOM     12  N   UNL     1       6.208   3.706   0.825  0.00  0.00    -0.369 N 
ATOM     13  N   UNL     1       5.778   3.423   3.150  0.00  0.00    -0.369 N 
ATOM     14  H   UNL     1       5.954   3.564  -0.100  0.00  0.00    +0.159 HD
ATOM     15  H   UNL     1       5.220   3.080   3.865  0.00  0.00    +0.159 HD
ATOM     16  H   UNL     1       6.591   3.908   3.359  0.00  0.00    +0.159 HD
ATOM     17  H   UNL     1       7.022   4.191   1.035  0.00  0.00    +0.159 HD
ENDBRANCH   7  10
ENDBRANCH   3   7
BRANCH   6  18
ATOM     18  N   UNL     1      -1.171  -0.707   0.010  0.00  0.00    -0.254 NA
ATOM     19  C   UNL     1      -1.328  -1.726  -0.795  0.00  0.00    +0.126 C 
BRANCH  19  20
ATOM     20  C   UNL     1      -2.543  -2.455  -0.787  0.00  0.00    +0.031 A 
ATOM     21  C   UNL     1      -2.908  -3.558  -1.548  0.00  0.00    +0.018 A 
ATOM     22  C   UNL     1      -4.169  -4.053  -1.314  0.00  0.00    +0.023 A 
ATOM     23  C   UNL     1      -4.952  -3.450  -0.384  0.00  0.00    +0.055 A 
ATOM     24  S   UNL     1      -4.000  -2.199   0.208  0.00  0.00    -0.081 S 
ATOM     25 BR   UNL     1      -6.709  -3.917   0.133  0.00  0.00    -0.043 Br
ENDBRANCH  19  20
ENDBRANCH   6  18
TORSDOF 4
