REMARK  Name = ZINC63339759
REMARK  14 active torsions:
REMARK  status: ('A' for Active; 'I' for Inactive)
REMARK    1  A    between atoms: C_1  and  C_2
REMARK    2  A    between atoms: C_5  and  C_37
REMARK    3  A    between atoms: C_6  and  C_8
REMARK    4  A    between atoms: C_8  and  S_9
REMARK    5  A    between atoms: S_9  and  C_10
REMARK    6  A    between atoms: C_14  and  C_17
REMARK    7  A    between atoms: C_17  and  C_19
REMARK    8  A    between atoms: C_17  and  N_29
REMARK    9  A    between atoms: C_19  and  C_20
REMARK   10  A    between atoms: C_30  and  O_32
REMARK   11  A    between atoms: O_32  and  C_33
REMARK   12  A    between atoms: C_33  and  C_34
REMARK   13  A    between atoms: C_33  and  C_35
REMARK   14  A    between atoms: C_33  and  C_36
REMARK                            x       y       z     vdW  Elec       q    Type
REMARK                         _______ _______ _______ _____ _____    ______ ____
ROOT
ATOM      1  C   UNL     1      -1.250  -5.979   5.306  0.00  0.00    +0.133 C 
ENDROOT
BRANCH   1   5
ATOM      2  C   UNL     1       1.617  -4.041   4.561  0.00  0.00    +0.319 C 
ATOM      3  N   UNL     1       0.822  -3.271   5.527  0.00  0.00    -0.146 NA
ATOM      4  N   UNL     1       0.003  -4.011   6.089  0.00  0.00    -0.155 NA
ATOM      5  C   UNL     1       0.132  -5.383   5.582  0.00  0.00    +0.280 C 
ATOM      6  O   UNL     1       0.883  -5.266   4.354  0.00  0.00    -0.316 OA
BRANCH   2   7
ATOM      7  S   UNL     1       1.770  -3.127   3.002  0.00  0.00    -0.100 S 
BRANCH   7   8
ATOM      8  C   UNL     1       0.054  -2.845   2.489  0.00  0.00    +0.109 C 
BRANCH   8  14
ATOM      9  C   UNL     1      -0.018   1.503   0.010  0.00  0.00    +0.044 C 
ATOM     10  C   UNL     1       0.002  -0.004   0.002  0.00  0.00    -0.050 A 
ATOM     11  C   UNL     1       0.006  -0.689  -1.199  0.00  0.00    +0.003 A 
ATOM     12  C   UNL     1       0.025  -2.071  -1.207  0.00  0.00    +0.004 A 
ATOM     13  C   UNL     1       0.040  -2.768  -0.013  0.00  0.00    -0.046 A 
ATOM     14  C   UNL     1       0.037  -2.084   1.188  0.00  0.00    -0.034 A 
ATOM     15  C   UNL     1       0.023  -0.702   1.195  0.00  0.00    +0.008 A 
ATOM     16  C   UNL     1       0.059  -4.275  -0.021  0.00  0.00    +0.044 C 
ENDBRANCH   8  14
ENDBRANCH   7   8
ENDBRANCH   2   7
ENDBRANCH   1   5
BRANCH   1  17
ATOM     17  N   UNL     1      -1.100  -7.334   4.769  0.00  0.00    -0.274 N 
ATOM     18  C   UNL     1      -0.476  -8.281   5.497  0.00  0.00    +0.401 C 
ATOM     19  O   UNL     1      -0.038  -8.012   6.598  0.00  0.00    -0.226 OA
ATOM     20  H   UNL     1      -1.450  -7.548   3.891  0.00  0.00    +0.152 HD
BRANCH  18  21
ATOM     21  O   UNL     1      -0.338  -9.526   5.003  0.00  0.00    -0.445 OA
BRANCH  21  22
ATOM     22  C   UNL     1       0.334 -10.480   5.828  0.00  0.00    +0.107 C 
ATOM     23  C   UNL     1      -0.428 -10.642   7.145  0.00  0.00    +0.055 C 
ATOM     24  C   UNL     1       0.395 -11.827   5.105  0.00  0.00    +0.055 C 
ATOM     25  C   UNL     1       1.755  -9.993   6.118  0.00  0.00    +0.055 C 
ENDBRANCH  21  22
ENDBRANCH  18  21
ENDBRANCH   1  17
BRANCH   1  26
ATOM     26  C   UNL     1      -2.051  -6.032   6.609  0.00  0.00    +0.060 C 
BRANCH  26  27
ATOM     27  C   UNL     1      -3.453  -6.504   6.318  0.00  0.00    -0.040 C 
ATOM     28  C   UNL     1      -3.920  -7.770   6.407  0.00  0.00    -0.001 A 
ATOM     29  C   UNL     1      -3.287  -9.039   6.787  0.00  0.00    +0.010 A 
ATOM     30  C   UNL     1      -4.029 -10.169   6.780  0.00  0.00    +0.001 A 
ATOM     31  C   UNL     1      -5.384 -10.160   6.421  0.00  0.00    +0.002 A 
ATOM     32  C   UNL     1      -6.035  -9.034   6.060  0.00  0.00    +0.026 A 
ATOM     33  C   UNL     1      -5.352  -7.787   6.032  0.00  0.00    +0.043 A 
ATOM     34  N   UNL     1      -5.754  -6.578   5.723  0.00  0.00    -0.380 N 
ATOM     35  C   UNL     1      -4.623  -5.656   5.873  0.00  0.00    +0.144 C 
ATOM     36  H   UNL     1      -6.651  -6.333   5.446  0.00  0.00    +0.160 HD
ENDBRANCH  26  27
ENDBRANCH   1  26
TORSDOF 9
