REMARK  Name = ZINC09915903
REMARK  13 active torsions:
REMARK  status: ('A' for Active; 'I' for Inactive)
REMARK    1  A    between atoms: C_1  and  C_2
REMARK    2  A    between atoms: C_2  and  C_23
REMARK    3  A    between atoms: C_3  and  C_21
REMARK    4  A    between atoms: C_3  and  O_22
REMARK    5  A    between atoms: C_4  and  C_19
REMARK    6  A    between atoms: C_4  and  O_20
REMARK    7  A    between atoms: C_5  and  C_17
REMARK    8  A    between atoms: C_5  and  O_18
REMARK    9  A    between atoms: C_6  and  C_8
REMARK   10  A    between atoms: C_6  and  O_9
REMARK   11  A    between atoms: O_9  and  C_10
REMARK   12  A    between atoms: C_13  and  N_16
REMARK   13  A    between atoms: C_23  and  O_24
REMARK                            x       y       z     vdW  Elec       q    Type
REMARK                         _______ _______ _______ _____ _____    ______ ____
ROOT
ATOM      1  C   UNL     1      -3.594   3.527   0.715  0.00  0.00    +0.047 C 
ATOM      2  C   UNL     1      -2.428   2.995  -0.128  0.00  0.00    +0.125 C 
ATOM      3  C   UNL     1      -1.128   3.644   0.327  0.00  0.00    +0.125 C 
ATOM      4  C   UNL     1      -0.446   2.936   1.484  0.00  0.00    +0.129 C 
ATOM      5  C   UNL     1      -0.515   1.417   1.429  0.00  0.00    +0.159 C 
ATOM      6  C   UNL     1      -1.919   0.932   1.072  0.00  0.00    +0.242 C 
ATOM      7  O   UNL     1      -2.388   1.583  -0.094  0.00  0.00    -0.326 OA
ATOM      8  C   UNL     1      -1.855  -0.582   0.802  0.00  0.00    +0.092 C 
ATOM      9  C   UNL     1       0.497   0.853   0.429  0.00  0.00    +0.051 C 
ATOM     10  C   UNL     1       1.038   3.354   1.508  0.00  0.00    +0.047 C 
ATOM     11  C   UNL     1      -0.173   3.773  -0.867  0.00  0.00    +0.047 C 
ENDROOT
BRANCH   5  12
ATOM     12  O   UNL     1      -0.183   0.900   2.732  0.00  0.00    -0.379 OA
ATOM     13  H   UNL     1      -0.209  -0.065   2.790  0.00  0.00    +0.211 HD
ENDBRANCH   5  12
BRANCH   4  14
ATOM     14  O   UNL     1      -1.034   3.382   2.719  0.00  0.00    -0.383 OA
ATOM     15  H   UNL     1      -0.594   3.041   3.510  0.00  0.00    +0.210 HD
ENDBRANCH   4  14
BRANCH   3  16
ATOM     16  O   UNL     1      -1.443   4.988   0.760  0.00  0.00    -0.383 OA
ATOM     17  H   UNL     1      -1.885   5.525   0.087  0.00  0.00    +0.210 HD
ENDBRANCH   3  16
BRANCH   6  18
ATOM     18  O   UNL     1      -2.798   1.147   2.178  0.00  0.00    -0.458 OA
BRANCH  18  19
ATOM     19  C   UNL     1      -4.102   0.803   2.007  0.00  0.00    +0.124 A 
ATOM     20  C   UNL     1      -4.548   0.373   0.766  0.00  0.00    +0.047 A 
ATOM     21  C   UNL     1      -5.872   0.019   0.592  0.00  0.00    +0.026 A 
ATOM     22  C   UNL     1      -6.758   0.104   1.657  0.00  0.00    +0.025 A 
ATOM     23  C   UNL     1      -6.312   0.540   2.898  0.00  0.00    +0.026 A 
ATOM     24  C   UNL     1      -4.987   0.888   3.071  0.00  0.00    +0.047 A 
BRANCH  22  25
ATOM     25  N   UNL     1      -8.101  -0.250   1.481  0.00  0.00    -0.358 N 
ATOM     26  H   UNL     1      -8.720  -0.191   2.225  0.00  0.00    +0.142 HD
ATOM     27  H   UNL     1      -8.412  -0.555   0.614  0.00  0.00    +0.142 HD
ENDBRANCH  22  25
ENDBRANCH  18  19
ENDBRANCH   6  18
BRANCH   2  28
ATOM     28  C   UNL     1      -2.685   3.427  -1.589  0.00  0.00    +0.193 C 
BRANCH  28  29
ATOM     29  O   UNL     1      -3.956   2.932  -2.016  0.00  0.00    -0.392 OA
ATOM     30  H   UNL     1      -4.184   3.166  -2.926  0.00  0.00    +0.210 HD
ENDBRANCH  28  29
ENDBRANCH   2  28
TORSDOF 8
