REMARK  Name = ZINC36952831
REMARK  8 active torsions:
REMARK  status: ('A' for Active; 'I' for Inactive)
REMARK    1  A    between atoms: C_1  and  C_2
REMARK    2  A    between atoms: C_2  and  C_4
REMARK    3  A    between atoms: C_2  and  N_12
REMARK    4  A    between atoms: C_7  and  O_11
REMARK    5  A    between atoms: C_9  and  O_10
REMARK    6  A    between atoms: N_12  and  C_13
REMARK    7  A    between atoms: C_13  and  C_15
REMARK    8  A    between atoms: C_13  and  C_16
REMARK                            x       y       z     vdW  Elec       q    Type
REMARK                         _______ _______ _______ _____ _____    ______ ____
ROOT
ATOM      1  N   UNL     1       0.695  -0.383   1.257  0.00  0.00    +0.388 N 
ATOM      2  H   UNL     1       0.235  -0.046   2.090  0.00  0.00    -0.084 HD
ATOM      3  H   UNL     1       0.716  -1.392   1.271  0.00  0.00    -0.084 HD
ENDROOT
BRANCH   1   5
ATOM      4  C   UNL     1      -1.509  -0.340   0.190  0.00  0.00    -0.009 C 
ATOM      5  C   UNL     1      -0.041   0.075   0.071  0.00  0.00    -0.040 C 
BRANCH   5   6
ATOM      6  C   UNL     1       0.559  -0.547  -1.163  0.00  0.00    -0.020 A 
ATOM      7  C   UNL     1       1.242  -1.745  -1.071  0.00  0.00    +0.009 A 
ATOM      8  C   UNL     1       1.793  -2.318  -2.201  0.00  0.00    +0.046 A 
ATOM      9  C   UNL     1       1.662  -1.691  -3.432  0.00  0.00    +0.120 A 
ATOM     10  C   UNL     1       0.978  -0.490  -3.528  0.00  0.00    +0.091 A 
ATOM     11  C   UNL     1       0.420   0.080  -2.393  0.00  0.00    +0.122 A 
BRANCH  11  12
ATOM     12  O   UNL     1      -0.256   1.255  -2.485  0.00  0.00    -0.506 OA
ATOM     13  H   UNL     1       0.299   2.039  -2.369  0.00  0.00    +0.292 HD
ENDBRANCH  11  12
BRANCH   9  14
ATOM     14  O   UNL     1       2.204  -2.255  -4.543  0.00  0.00    -0.507 OA
ATOM     15  H   UNL     1       1.609  -2.858  -5.009  0.00  0.00    +0.292 HD
ENDBRANCH   9  14
ENDBRANCH   5   6
ENDBRANCH   1   5
BRANCH   1  16
ATOM     16  C   UNL     1       2.069   0.135   1.212  0.00  0.00    -0.040 C 
ATOM     17  C   UNL     1       2.043   1.659   1.342  0.00  0.00    -0.009 C 
BRANCH  16  18
ATOM     18  C   UNL     1       2.865  -0.452   2.349  0.00  0.00    -0.026 A 
ATOM     19  C   UNL     1       2.213  -0.989   3.444  0.00  0.00    +0.007 A 
ATOM     20  C   UNL     1       2.942  -1.529   4.487  0.00  0.00    +0.039 A 
ATOM     21  C   UNL     1       4.326  -1.531   4.437  0.00  0.00    +0.126 A 
ATOM     22  C   UNL     1       4.979  -0.994   3.341  0.00  0.00    +0.076 A 
ATOM     23  C   UNL     1       4.248  -0.459   2.294  0.00  0.00    +0.128 A 
ATOM     24  F   UNL     1       4.884   0.061   1.222  0.00  0.00    -0.205 F 
ATOM     25  F   UNL     1       5.038  -2.058   5.457  0.00  0.00    -0.205 F 
ENDBRANCH  16  18
ENDBRANCH   1  16
TORSDOF 6
