REMARK  Name = ZINC09434495
REMARK  5 active torsions:
REMARK  status: ('A' for Active; 'I' for Inactive)
REMARK    1  A    between atoms: C_4  and  C_7
REMARK    2  A    between atoms: C_7  and  S_8
REMARK    3  A    between atoms: S_8  and  C_9
REMARK    4  A    between atoms: C_15  and  C_16
REMARK    5  A    between atoms: C_19  and  O_23
REMARK                            x       y       z     vdW  Elec       q    Type
REMARK                         _______ _______ _______ _____ _____    ______ ____
ROOT
ATOM      1  C   UNL     1       5.810  -2.274   1.918  0.00  0.00    +0.156 C 
ATOM      2  N   UNL     1       6.288  -2.611   0.746  0.00  0.00    -0.158 NA
ATOM      3  N   UNL     1       7.580  -3.072   0.612  0.00  0.00    -0.151 N 
ATOM      4  C   UNL     1       8.224  -3.373  -0.606  0.00  0.00    +0.153 C 
ATOM      5  N   UNL     1       7.854  -2.873  -1.756  0.00  0.00    -0.283 NA
ATOM      6  C   UNL     1       9.367  -4.317  -0.454  0.00  0.00    +0.081 C 
ATOM      7  C   UNL     1       9.691  -5.228  -1.434  0.00  0.00    +0.024 C 
ATOM      8  C   UNL     1      10.138  -4.221   0.810  0.00  0.00    +0.273 C 
ATOM      9  O   UNL     1      11.302  -4.584   0.866  0.00  0.00    -0.268 OA
ATOM     10  N   UNL     1       9.516  -3.720   1.895  0.00  0.00    -0.152 NA
ATOM     11  C   UNL     1       8.310  -3.223   1.770  0.00  0.00    +0.181 C 
ATOM     12  S   UNL     1       7.197  -2.593   2.999  0.00  0.00    -0.027 S 
ATOM     13  H   UNL     1       7.102  -2.261  -1.799  0.00  0.00    +0.188 HD
ENDROOT
BRANCH   7  14
ATOM     14  C   UNL     1      10.697  -6.260  -1.171  0.00  0.00    -0.021 A 
ATOM     15  C   UNL     1      10.781  -6.854   0.097  0.00  0.00    +0.031 A 
ATOM     16  C   UNL     1      11.728  -7.824   0.338  0.00  0.00    +0.084 A 
ATOM     17  C   UNL     1      12.600  -8.215  -0.673  0.00  0.00    +0.153 A 
ATOM     18  C   UNL     1      12.522  -7.629  -1.933  0.00  0.00    +0.084 A 
ATOM     19  C   UNL     1      11.575  -6.662  -2.187  0.00  0.00    +0.031 A 
ATOM     20 CL   UNL     1      13.614  -8.123  -3.188  0.00  0.00    -0.080 Cl
ATOM     21 CL   UNL     1      11.833  -8.559   1.907  0.00  0.00    -0.080 Cl
BRANCH  17  22
ATOM     22  O   UNL     1      13.532  -9.171  -0.429  0.00  0.00    -0.504 OA
ATOM     23  H   UNL     1      13.229 -10.071  -0.612  0.00  0.00    +0.292 HD
ENDBRANCH  17  22
ENDBRANCH   7  14
BRANCH   1  24
ATOM     24  S   UNL     1       4.210  -1.655   2.324  0.00  0.00    -0.092 S 
BRANCH  24  25
ATOM     25  C   UNL     1       3.346  -1.595   0.731  0.00  0.00    +0.111 C 
BRANCH  25  29
ATOM     26  C   UNL     1      -0.622  -0.125   1.316  0.00  0.00    +0.000 A 
ATOM     27  C   UNL     1       0.410   0.756   1.054  0.00  0.00    +0.000 A 
ATOM     28  C   UNL     1       1.694   0.281   0.864  0.00  0.00    +0.004 A 
ATOM     29  C   UNL     1       1.946  -1.076   0.938  0.00  0.00    -0.037 A 
ATOM     30  C   UNL     1       0.914  -1.958   1.202  0.00  0.00    +0.004 A 
ATOM     31  C   UNL     1      -0.370  -1.482   1.390  0.00  0.00    +0.000 A 
ENDBRANCH  25  29
ENDBRANCH  24  25
ENDBRANCH   1  24
TORSDOF 5
