REMARK  Name = ZINC36775301
REMARK  10 active torsions:
REMARK  status: ('A' for Active; 'I' for Inactive)
REMARK    1  A    between atoms: C_1  and  C_2
REMARK    2  A    between atoms: C_3  and  C_31
REMARK    3  A    between atoms: N_4  and  C_25
REMARK    4  A    between atoms: C_5  and  S_7
REMARK    5  A    between atoms: S_7  and  C_8
REMARK    6  A    between atoms: C_8  and  C_9
REMARK    7  A    between atoms: C_9  and  C_11
REMARK    8  A    between atoms: C_11  and  C_21
REMARK    9  A    between atoms: C_21  and  O_23
REMARK   10  A    between atoms: O_23  and  C_24
REMARK                            x       y       z     vdW  Elec       q    Type
REMARK                         _______ _______ _______ _____ _____    ______ ____
ROOT
ATOM      1  C   UNL     1       0.078  -3.839   4.466  0.00  0.00    +0.183 C 
ATOM      2  O   UNL     1       0.092  -5.000   4.107  0.00  0.00    -0.291 OA
ENDROOT
BRANCH   1   3
ATOM      3  C   UNL     1       0.080  -3.526   5.837  0.00  0.00    +0.138 C 
ATOM      4  C   UNL     1       0.099  -4.559   6.795  0.00  0.00    +0.110 C 
ATOM      5  N   UNL     1       0.123  -5.887   6.517  0.00  0.00    -0.301 N 
ATOM      6  C   UNL     1       0.136  -6.583   7.720  0.00  0.00    +0.054 A 
ATOM      7  C   UNL     1       0.160  -7.936   8.032  0.00  0.00    +0.025 A 
ATOM      8  C   UNL     1       0.169  -8.336   9.353  0.00  0.00    +0.002 A 
ATOM      9  C   UNL     1       0.153  -7.395  10.369  0.00  0.00    +0.002 A 
ATOM     10  C   UNL     1       0.129  -6.048  10.069  0.00  0.00    +0.025 A 
ATOM     11  C   UNL     1       0.120  -5.634   8.744  0.00  0.00    +0.054 A 
ATOM     12  N   UNL     1       0.103  -4.382   8.140  0.00  0.00    -0.301 N 
ATOM     13  H   UNL     1       0.128  -6.282   5.631  0.00  0.00    +0.153 HD
ATOM     14  H   UNL     1       0.094  -3.529   8.601  0.00  0.00    +0.153 HD
BRANCH   3  15
ATOM     15  C   UNL     1       0.063  -2.130   6.269  0.00  0.00    +0.345 C 
ATOM     16  O   UNL     1       0.065  -1.859   7.455  0.00  0.00    -0.245 OA
BRANCH  15  17
ATOM     17  O   UNL     1       0.044  -1.141   5.352  0.00  0.00    -0.464 OA
ATOM     18  C   UNL     1       0.028   0.201   5.844  0.00  0.00    +0.280 C 
ENDBRANCH  15  17
ENDBRANCH   3  15
ENDBRANCH   1   3
BRANCH   1  19
ATOM     19  C   UNL     1       0.057  -2.734   3.441  0.00  0.00    +0.157 C 
BRANCH  19  20
ATOM     20  S   UNL     1       0.059  -3.453   1.776  0.00  0.00    -0.082 S 
BRANCH  20  25
ATOM     21  C   UNL     1      -0.018   1.503   0.010  0.00  0.00    +0.065 C 
ATOM     22  C   UNL     1       0.002  -0.004   0.002  0.00  0.00    +0.034 A 
ATOM     23  C   UNL     1       0.008  -0.785  -1.092  0.00  0.00    +0.037 A 
ATOM     24  N   UNL     1       0.028  -2.090  -0.654  0.00  0.00    -0.321 N 
ATOM     25  C   UNL     1       0.034  -2.053   0.707  0.00  0.00    +0.148 A 
ATOM     26  N   UNL     1       0.024  -0.796   1.087  0.00  0.00    -0.338 N 
ATOM     27  C   UNL     1      -0.006  -0.320  -2.525  0.00  0.00    +0.065 C 
ATOM     28  H   UNL     1       0.028  -0.488   2.007  0.00  0.00    +0.168 HD
BRANCH  24  29
ATOM     29  C   UNL     1       0.041  -3.291  -1.493  0.00  0.00    +0.089 C 
ATOM     30  C   UNL     1      -1.195  -4.139  -1.187  0.00  0.00    +0.025 C 
ATOM     31  C   UNL     1      -1.182  -5.393  -2.064  0.00  0.00    +0.002 C 
ATOM     32  C   UNL     1       0.080  -6.207  -1.771  0.00  0.00    +0.000 C 
ATOM     33  C   UNL     1       1.316  -5.358  -2.077  0.00  0.00    +0.002 C 
ATOM     34  C   UNL     1       1.303  -4.104  -1.200  0.00  0.00    +0.025 C 
ENDBRANCH  24  29
ENDBRANCH  20  25
ENDBRANCH  19  20
ENDBRANCH   1  19
TORSDOF 7
