REMARK  Name = ZINC39964809
REMARK  9 active torsions:
REMARK  status: ('A' for Active; 'I' for Inactive)
REMARK    1  A    between atoms: C_1  and  C_2
REMARK    2  A    between atoms: C_7  and  C_12
REMARK    3  A    between atoms: C_12  and  C_26
REMARK    4  A    between atoms: C_13  and  C_14
REMARK    5  A    between atoms: C_16  and  C_23
REMARK    6  A    between atoms: C_17  and  O_22
REMARK    7  A    between atoms: C_18  and  O_20
REMARK    8  A    between atoms: O_20  and  C_21
REMARK    9  A    between atoms: C_23  and  C_24
REMARK                            x       y       z     vdW  Elec       q    Type
REMARK                         _______ _______ _______ _____ _____    ______ ____
ROOT
ATOM      1  C   UNL     1       1.337  -5.247   1.738  0.00  0.00    +0.072 C 
ATOM      2  C   UNL     1       1.217  -6.213   2.672  0.00  0.00    +0.026 C 
ENDROOT
BRANCH   1   9
ATOM      3  C   UNL     1      -0.585   0.519  -1.713  0.00  0.00    +0.044 C 
ATOM      4  C   UNL     1      -0.269  -0.926  -1.426  0.00  0.00    -0.048 A 
ATOM      5  C   UNL     1       0.249  -1.722  -2.463  0.00  0.00    +0.005 A 
ATOM      6  C   UNL     1       0.559  -3.024  -2.296  0.00  0.00    +0.027 A 
ATOM      7  C   UNL     1       0.355  -3.654  -0.984  0.00  0.00    +0.060 A 
ATOM      8  N   UNL     1       0.559  -4.861  -0.541  0.00  0.00    -0.359 N 
ATOM      9  C   UNL     1       0.159  -4.885   0.872  0.00  0.00    +0.216 C 
ATOM     10  N   UNL     1      -0.307  -3.530   1.193  0.00  0.00    -0.359 N 
ATOM     11  C   UNL     1      -0.193  -2.811   0.114  0.00  0.00    +0.061 A 
ATOM     12  C   UNL     1      -0.489  -1.403  -0.185  0.00  0.00    +0.030 A 
ATOM     13  H   UNL     1       0.911  -5.607  -1.050  0.00  0.00    +0.162 HD
ATOM     14  H   UNL     1      -0.638  -3.226   2.053  0.00  0.00    +0.162 HD
ENDBRANCH   1   9
BRANCH   2  15
ATOM     15  C   UNL     1      -0.105  -6.781   2.976  0.00  0.00    -0.020 A 
ATOM     16  C   UNL     1      -1.236  -5.957   2.994  0.00  0.00    +0.015 A 
ATOM     17  C   UNL     1      -2.473  -6.492   3.278  0.00  0.00    +0.002 A 
ATOM     18  C   UNL     1      -2.602  -7.848   3.547  0.00  0.00    +0.162 A 
ATOM     19  C   UNL     1      -1.480  -8.676   3.531  0.00  0.00    +0.162 A 
ATOM     20  C   UNL     1      -0.237  -8.149   3.242  0.00  0.00    +0.057 A 
BRANCH  19  21
ATOM     21  O   UNL     1      -1.611 -10.003   3.797  0.00  0.00    -0.491 OA
ATOM     22  C   UNL     1      -0.420 -10.792   3.763  0.00  0.00    +0.277 C 
ENDBRANCH  19  21
BRANCH  18  23
ATOM     23  O   UNL     1      -3.825  -8.370   3.828  0.00  0.00    -0.503 OA
ATOM     24  H   UNL     1      -4.308  -8.679   3.050  0.00  0.00    +0.292 HD
ENDBRANCH  18  23
BRANCH  17  25
ATOM     25  C   UNL     1      -3.690  -5.604   3.296  0.00  0.00    +0.065 C 
BRANCH  25  26
ATOM     26  C   UNL     1      -3.960  -5.151   4.708  0.00  0.00    -0.030 C 
ATOM     27  C   UNL     1      -4.053  -3.873   4.980  0.00  0.00    +0.004 C 
ENDBRANCH  25  26
ENDBRANCH  17  25
ENDBRANCH   2  15
BRANCH   1  28
ATOM     28  C   UNL     1       2.586  -4.567   1.568  0.00  0.00    +0.099 C 
ATOM     29  N   UNL     1       3.577  -4.027   1.434  0.00  0.00    -0.191 NA
ENDBRANCH   1  28
TORSDOF 7
