REMARK  Name = ZINC20392600
REMARK  4 active torsions:
REMARK  status: ('A' for Active; 'I' for Inactive)
REMARK    1  A    between atoms: C_7  and  C_21
REMARK    2  A    between atoms: N_14  and  C_15
REMARK    3  A    between atoms: C_24  and  S_27
REMARK    4  A    between atoms: S_27  and  C_28
REMARK                            x       y       z     vdW  Elec       q    Type
REMARK                         _______ _______ _______ _____ _____    ______ ____
ROOT
ATOM      1  C   UNL     1      -0.016   1.337   0.009  0.00  0.00    +0.033 C 
ATOM      2  C   UNL     1       0.002  -0.004   0.002  0.00  0.00    +0.031 C 
ATOM      3  C   UNL     1      -1.248  -0.784   0.004  0.00  0.00    +0.090 C 
ATOM      4  C   UNL     1      -1.183  -2.117  -0.207  0.00  0.00    +0.249 C 
ATOM      5  O   UNL     1      -2.322  -2.850  -0.243  0.00  0.00    -0.270 OA
ATOM      6  N   UNL     1       0.037  -2.735  -0.385  0.00  0.00    -0.215 N 
ATOM      7  C   UNL     1       0.127  -4.199  -0.431  0.00  0.00    +0.211 C 
ATOM      8  N   UNL     1       1.231  -4.588  -1.312  0.00  0.00    -0.335 N 
ATOM      9  C   UNL     1       2.232  -3.779  -1.532  0.00  0.00    +0.194 C 
ATOM     10  N   UNL     1       2.264  -2.532  -1.031  0.00  0.00    -0.186 NA
ATOM     11  C   UNL     1       1.191  -2.001  -0.485  0.00  0.00    +0.199 C 
ATOM     12  N   UNL     1       1.214  -0.715  -0.013  0.00  0.00    -0.287 N 
ATOM     13  N   UNL     1       3.289  -4.218  -2.304  0.00  0.00    -0.312 N 
ATOM     14  H   UNL     1       2.038  -0.311   0.301  0.00  0.00    +0.155 HD
ATOM     15  H   UNL     1       3.281  -5.115  -2.674  0.00  0.00    +0.149 HD
ATOM     16  H   UNL     1       1.219  -5.459  -1.737  0.00  0.00    +0.164 HD
ENDROOT
BRANCH  13  17
ATOM     17  C   UNL     1       4.424  -3.328  -2.566  0.00  0.00    +0.073 C 
ATOM     18  C   UNL     1       4.106  -2.437  -3.768  0.00  0.00    +0.022 C 
ATOM     19  C   UNL     1       5.291  -1.508  -4.041  0.00  0.00    +0.002 C 
ATOM     20  C   UNL     1       6.536  -2.344  -4.341  0.00  0.00    +0.000 C 
ATOM     21  C   UNL     1       6.854  -3.236  -3.139  0.00  0.00    +0.002 C 
ATOM     22  C   UNL     1       5.669  -4.165  -2.866  0.00  0.00    +0.022 C 
ENDBRANCH  13  17
BRANCH   7  23
ATOM     23  C   UNL     1       0.378  -4.731   0.957  0.00  0.00    -0.007 A 
ATOM     24  C   UNL     1      -0.109  -4.048   2.056  0.00  0.00    +0.008 A 
ATOM     25  C   UNL     1       0.119  -4.533   3.329  0.00  0.00    +0.015 A 
ATOM     26  C   UNL     1       0.839  -5.708   3.504  0.00  0.00    +0.008 A 
ATOM     27  C   UNL     1       1.327  -6.392   2.397  0.00  0.00    +0.015 A 
ATOM     28  C   UNL     1       1.090  -5.904   1.127  0.00  0.00    +0.008 A 
BRANCH  26  29
ATOM     29  S   UNL     1       1.133  -6.330   5.127  0.00  0.00    -0.129 S 
ATOM     30  C   UNL     1       2.090  -7.846   4.849  0.00  0.00    +0.090 C 
ENDBRANCH  26  29
ENDBRANCH   7  23
TORSDOF 3
