REMARK  Name = ZINC39655391
REMARK  9 active torsions:
REMARK  status: ('A' for Active; 'I' for Inactive)
REMARK    1  A    between atoms: C_1  and  C_2
REMARK    2  A    between atoms: C_2  and  C_4
REMARK    3  A    between atoms: C_2  and  O_29
REMARK    4  A    between atoms: C_8  and  C_17
REMARK    5  A    between atoms: N_19  and  C_20
REMARK    6  A    between atoms: C_20  and  C_21
REMARK    7  A    between atoms: C_21  and  N_22
REMARK    8  A    between atoms: N_22  and  C_23
REMARK    9  A    between atoms: O_29  and  C_30
REMARK                            x       y       z     vdW  Elec       q    Type
REMARK                         _______ _______ _______ _____ _____    ______ ____
ROOT
ATOM      1  C   UNL     1      -1.338  -0.405   0.070  0.00  0.00    +0.256 C 
ATOM      2  O   UNL     1      -1.717  -0.847   1.134  0.00  0.00    -0.272 OA
ATOM      3  N   UNL     1      -2.232  -0.106  -0.893  0.00  0.00    -0.297 N 
ATOM      4  C   UNL     1      -1.963   0.432  -2.247  0.00  0.00    +0.121 C 
ATOM      5  C   UNL     1      -2.959  -0.309  -3.167  0.00  0.00    +0.100 C 
ATOM      6  C   UNL     1      -4.103  -0.746  -2.235  0.00  0.00    -0.004 C 
ATOM      7  C   UNL     1      -3.707  -0.246  -0.838  0.00  0.00    +0.115 C 
ATOM      8  C   UNL     1      -5.416  -0.107  -2.675  0.00  0.00    -0.010 C 
ATOM      9  C   UNL     1      -6.548  -0.602  -1.769  0.00  0.00    -0.082 C 
ATOM     10  N   UNL     1      -6.640  -2.064  -1.854  0.00  0.00    +0.379 N 
ATOM     11  C   UNL     1      -5.407  -2.674  -1.342  0.00  0.00    -0.082 C 
ATOM     12  C   UNL     1      -4.227  -2.267  -2.230  0.00  0.00    -0.010 C 
ATOM     13  H   UNL     1      -7.424  -2.383  -1.304  0.00  0.00    -0.086 HD
ATOM     14  H   UNL     1      -6.774  -2.336  -2.816  0.00  0.00    -0.086 HD
ENDROOT
BRANCH   5  15
ATOM     15  C   UNL     1      -3.476   0.618  -4.236  0.00  0.00    +0.218 C 
ATOM     16  O   UNL     1      -3.581   1.805  -4.011  0.00  0.00    -0.275 OA
ATOM     17  N   UNL     1      -3.822   0.128  -5.443  0.00  0.00    -0.314 N 
ATOM     18  H   UNL     1      -3.738  -0.821  -5.624  0.00  0.00    +0.149 HD
BRANCH  17  19
ATOM     19  C   UNL     1      -4.324   1.029  -6.483  0.00  0.00    +0.123 C 
BRANCH  19  20
ATOM     20  C   UNL     1      -4.641   0.225  -7.746  0.00  0.00    +0.120 C 
BRANCH  20  21
ATOM     21  N   UNL     1      -5.144   1.127  -8.786  0.00  0.00    -0.342 N 
ATOM     22  H   UNL     1      -5.227   2.076  -8.605  0.00  0.00    +0.146 HD
BRANCH  21  23
ATOM     23  C   UNL     1      -5.502   0.619 -10.036  0.00  0.00    +0.027 A 
ATOM     24  C   UNL     1      -5.388  -0.741 -10.294  0.00  0.00    +0.023 A 
ATOM     25  C   UNL     1      -5.744  -1.240 -11.532  0.00  0.00    +0.002 A 
ATOM     26  C   UNL     1      -6.212  -0.387 -12.514  0.00  0.00    +0.000 A 
ATOM     27  C   UNL     1      -6.327   0.968 -12.261  0.00  0.00    +0.002 A 
ATOM     28  C   UNL     1      -5.979   1.472 -11.024  0.00  0.00    +0.023 A 
ENDBRANCH  21  23
ENDBRANCH  20  21
ENDBRANCH  19  20
ENDBRANCH  17  19
ENDBRANCH   5  15
BRANCH   1  30
ATOM     29  C   UNL     1       0.409   1.304  -0.349  0.00  0.00    +0.062 C 
ATOM     30  C   UNL     1       0.134  -0.191  -0.176  0.00  0.00    +0.256 C 
BRANCH  30  31
ATOM     31  O   UNL     1       0.879  -0.687   0.937  0.00  0.00    -0.480 OA
BRANCH  31  32
ATOM     32  C   UNL     1       2.165  -1.061   0.702  0.00  0.00    +0.122 A 
ATOM     33  C   UNL     1       2.911  -1.657   1.708  0.00  0.00    +0.045 A 
ATOM     34  C   UNL     1       4.217  -2.036   1.466  0.00  0.00    +0.004 A 
ATOM     35  C   UNL     1       4.781  -1.822   0.222  0.00  0.00    +0.000 A 
ATOM     36  C   UNL     1       4.039  -1.228  -0.783  0.00  0.00    +0.004 A 
ATOM     37  C   UNL     1       2.731  -0.852  -0.547  0.00  0.00    +0.045 A 
ENDBRANCH  31  32
ENDBRANCH  30  31
ENDBRANCH   1  30
TORSDOF 8
