REMARK  Name = ZINC59488701
REMARK  6 active torsions:
REMARK  status: ('A' for Active; 'I' for Inactive)
REMARK    1  A    between atoms: N_9  and  C_10
REMARK    2  A    between atoms: C_10  and  C_12
REMARK    3  A    between atoms: C_10  and  N_31
REMARK    4  A    between atoms: C_15  and  S_21
REMARK    5  A    between atoms: C_16  and  N_18
REMARK    6  A    between atoms: S_21  and  C_22
REMARK                            x       y       z     vdW  Elec       q    Type
REMARK                         _______ _______ _______ _____ _____    ______ ____
ROOT
ATOM      1  C   UNL     1       5.520  -0.715  -1.390  0.00  0.00    -0.003 A 
ATOM      2  C   UNL     1       6.003  -1.954  -1.770  0.00  0.00    +0.008 A 
ATOM      3  C   UNL     1       6.597  -2.115  -3.006  0.00  0.00    +0.018 A 
ATOM      4  C   UNL     1       6.709  -1.032  -3.869  0.00  0.00    +0.045 A 
ATOM      5  C   UNL     1       6.222   0.211  -3.484  0.00  0.00    +0.140 A 
ATOM      6  C   UNL     1       5.624   0.365  -2.248  0.00  0.00    +0.041 A 
ENDROOT
BRANCH   5   7
ATOM      7  N   UNL     1       6.339   1.369  -4.399  0.00  0.00    +0.058 N 
ATOM      8  O   UNL     1       5.915   2.450  -4.064  0.00  0.00    -0.126 OA
ATOM      9  O   UNL     1       6.859   1.233  -5.482  0.00  0.00    -0.126 OA
ENDBRANCH   5   7
BRANCH   1  10
ATOM     10  C   UNL     1       4.872  -0.542  -0.041  0.00  0.00    +0.225 C 
BRANCH  10  19
ATOM     11  C   UNL     1      -0.337   0.222  -0.210  0.00  0.00    +0.002 A 
ATOM     12  C   UNL     1       0.649   1.200  -0.212  0.00  0.00    +0.002 A 
ATOM     13  C   UNL     1       1.971   0.856  -0.164  0.00  0.00    +0.030 A 
ATOM     14  C   UNL     1       2.334  -0.486  -0.113  0.00  0.00    +0.091 A 
ATOM     15  C   UNL     1       1.341  -1.481  -0.110  0.00  0.00    +0.113 A 
ATOM     16  C   UNL     1      -0.006  -1.101  -0.160  0.00  0.00    +0.032 A 
ATOM     17  N   UNL     1       1.961  -2.677  -0.055  0.00  0.00    -0.129 NA
ATOM     18  N   UNL     1       3.237  -2.518  -0.025  0.00  0.00    -0.063 NA
ATOM     19  N   UNL     1       3.538  -1.148  -0.059  0.00  0.00    -0.219 N 
ENDBRANCH  10  19
BRANCH  10  20
ATOM     20  N   UNL     1       5.691  -1.197   0.982  0.00  0.00    -0.304 N 
ATOM     21  C   UNL     1       6.789  -0.535   1.521  0.00  0.00    +0.120 A 
ATOM     22  C   UNL     1       7.072   0.768   1.124  0.00  0.00    +0.043 A 
ATOM     23  C   UNL     1       8.167   1.414   1.668  0.00  0.00    +0.005 A 
ATOM     24  C   UNL     1       8.945   0.733   2.595  0.00  0.00    +0.020 A 
ATOM     25  C   UNL     1       8.606  -0.559   2.944  0.00  0.00    +0.113 A 
ATOM     26  N   UNL     1       7.552  -1.149   2.412  0.00  0.00    -0.240 NA
ATOM     27  H   UNL     1       5.468  -2.091   1.283  0.00  0.00    +0.150 HD
ENDBRANCH  10  20
ENDBRANCH   1  10
BRANCH   4  28
ATOM     28  S   UNL     1       7.467  -1.233  -5.447  0.00  0.00    -0.060 S 
BRANCH  28  29
ATOM     29  C   UNL     1       9.071  -0.534  -5.242  0.00  0.00    +0.140 A 
ATOM     30  N   UNL     1       9.635  -0.071  -4.148  0.00  0.00    -0.232 NA
ATOM     31  C   UNL     1      10.884   0.442  -4.138  0.00  0.00    +0.079 A 
ATOM     32  C   UNL     1      11.603   0.968  -3.040  0.00  0.00    +0.029 A 
ATOM     33  C   UNL     1      12.874   1.454  -3.203  0.00  0.00    +0.002 A 
ATOM     34  C   UNL     1      13.499   1.447  -4.441  0.00  0.00    +0.001 A 
ATOM     35  C   UNL     1      12.826   0.939  -5.537  0.00  0.00    +0.017 A 
ATOM     36  C   UNL     1      11.553   0.451  -5.384  0.00  0.00    +0.040 A 
ATOM     37  S   UNL     1      10.348  -0.280  -6.466  0.00  0.00    -0.061 S 
ENDBRANCH  28  29
ENDBRANCH   4  28
TORSDOF 6
