REMARK  Name = ZINC21223090
REMARK  10 active torsions:
REMARK  status: ('A' for Active; 'I' for Inactive)
REMARK    1  A    between atoms: C_1  and  O_2
REMARK    2  A    between atoms: O_2  and  C_3
REMARK    3  A    between atoms: C_8  and  C_9
REMARK    4  A    between atoms: C_14  and  C_19
REMARK    5  A    between atoms: C_21  and  O_29
REMARK    6  A    between atoms: C_22  and  O_27
REMARK    7  A    between atoms: C_23  and  O_25
REMARK    8  A    between atoms: O_25  and  C_26
REMARK    9  A    between atoms: O_27  and  C_28
REMARK   10  A    between atoms: O_29  and  C_30
REMARK                            x       y       z     vdW  Elec       q    Type
REMARK                         _______ _______ _______ _____ _____    ______ ____
ROOT
ATOM      1  C   UNL     1      -3.310   3.629  -1.272  0.00  0.00    +0.139 C 
ATOM      2  C   UNL     1      -3.762   2.201  -1.463  0.00  0.00    +0.037 C 
ATOM      3  C   UNL     1      -3.303   1.132  -0.790  0.00  0.00    +0.017 C 
ATOM      4  C   UNL     1      -3.828  -0.259  -1.106  0.00  0.00    +0.059 C 
ATOM      5  C   UNL     1      -5.294  -0.177  -1.527  0.00  0.00    +0.032 C 
ATOM      6  C   UNL     1      -5.373   0.714  -2.773  0.00  0.00    +0.088 C 
ATOM      7  C   UNL     1      -4.764   2.045  -2.449  0.00  0.00    +0.163 C 
ATOM      8  O   UNL     1      -5.146   3.026  -3.056  0.00  0.00    -0.292 OA
ATOM      9  N   UNL     1      -2.359   1.178   0.183  0.00  0.00    -0.316 N 
ATOM     10  C   UNL     1      -1.163   1.879   0.094  0.00  0.00    +0.052 A 
ATOM     11  C   UNL     1       0.068   1.245   0.119  0.00  0.00    +0.025 A 
ATOM     12  C   UNL     1       1.224   2.007   0.108  0.00  0.00    +0.002 A 
ATOM     13  C   UNL     1       1.151   3.388   0.079  0.00  0.00    +0.002 A 
ATOM     14  C   UNL     1      -0.079   4.023   0.042  0.00  0.00    +0.025 A 
ATOM     15  C   UNL     1      -1.237   3.262   0.036  0.00  0.00    +0.049 A 
ATOM     16  N   UNL     1      -2.496   3.850  -0.086  0.00  0.00    -0.331 N 
ATOM     17  H   UNL     1      -2.515   0.634   1.127  0.00  0.00    +0.152 HD
ATOM     18  H   UNL     1      -2.871   4.487   0.728  0.00  0.00    +0.147 HD
ENDROOT
BRANCH   1  24
ATOM     19  C   UNL     1      -2.291   5.389  -2.739  0.00  0.00    +0.125 A 
ATOM     20  C   UNL     1      -1.556   5.768  -3.853  0.00  0.00    +0.046 A 
ATOM     21  C   UNL     1      -1.057   4.806  -4.710  0.00  0.00    +0.004 A 
ATOM     22  C   UNL     1      -1.287   3.466  -4.456  0.00  0.00    +0.001 A 
ATOM     23  C   UNL     1      -2.015   3.086  -3.344  0.00  0.00    +0.009 A 
ATOM     24  C   UNL     1      -2.516   4.044  -2.484  0.00  0.00    +0.019 A 
BRANCH  19  26
ATOM     25  C   UNL     1      -2.517   7.698  -2.223  0.00  0.00    +0.277 C 
ATOM     26  O   UNL     1      -2.787   6.333  -1.898  0.00  0.00    -0.495 OA
ENDBRANCH  19  26
ENDBRANCH   1  24
BRANCH   5  27
ATOM     27  C   UNL     1      -5.810  -1.555  -1.851  0.00  0.00    -0.036 A 
ATOM     28  C   UNL     1      -5.221  -2.291  -2.863  0.00  0.00    +0.053 A 
ATOM     29  C   UNL     1      -5.689  -3.562  -3.160  0.00  0.00    +0.165 A 
ATOM     30  C   UNL     1      -6.759  -4.091  -2.448  0.00  0.00    +0.204 A 
ATOM     31  C   UNL     1      -7.352  -3.346  -1.436  0.00  0.00    +0.165 A 
ATOM     32  C   UNL     1      -6.874  -2.078  -1.141  0.00  0.00    +0.053 A 
BRANCH  31  33
ATOM     33  O   UNL     1      -8.398  -3.860  -0.735  0.00  0.00    -0.491 OA
ATOM     34  C   UNL     1      -8.957  -3.038   0.291  0.00  0.00    +0.277 C 
ENDBRANCH  31  33
BRANCH  30  35
ATOM     35  O   UNL     1      -7.224  -5.337  -2.740  0.00  0.00    -0.488 OA
ATOM     36  C   UNL     1      -8.257  -5.429  -3.723  0.00  0.00    +0.277 C 
ENDBRANCH  30  35
BRANCH  29  37
ATOM     37  O   UNL     1      -5.106  -4.288  -4.152  0.00  0.00    -0.491 OA
ATOM     38  C   UNL     1      -4.012  -3.681  -4.842  0.00  0.00    +0.277 C 
ENDBRANCH  29  37
ENDBRANCH   5  27
TORSDOF 6
