REMARK  Name = ZINC41514319
REMARK  9 active torsions:
REMARK  status: ('A' for Active; 'I' for Inactive)
REMARK    1  A    between atoms: C_1  and  C_2
REMARK    2  A    between atoms: C_4  and  O_31
REMARK    3  A    between atoms: C_5  and  C_23
REMARK    4  A    between atoms: C_11  and  C_12
REMARK    5  A    between atoms: C_16  and  O_20
REMARK    6  A    between atoms: C_17  and  O_18
REMARK    7  A    between atoms: O_18  and  C_19
REMARK    8  A    between atoms: O_20  and  C_21
REMARK    9  A    between atoms: C_23  and  N_24
REMARK                            x       y       z     vdW  Elec       q    Type
REMARK                         _______ _______ _______ _____ _____    ______ ____
ROOT
ATOM      1  C   UNL     1       0.887   1.603  -0.558  0.00  0.00    +0.045 C 
ATOM      2  C   UNL     1       0.948   0.102  -0.436  0.00  0.00    -0.033 A 
ATOM      3  C   UNL     1       1.186  -0.665  -1.542  0.00  0.00    +0.050 A 
ATOM      4  C   UNL     1       1.243  -2.052  -1.432  0.00  0.00    +0.122 A 
ATOM      5  C   UNL     1       1.058  -2.670  -0.205  0.00  0.00    +0.020 A 
ATOM      6  C   UNL     1       0.815  -1.905   0.928  0.00  0.00    +0.145 A 
ATOM      7  C   UNL     1       0.766  -0.506   0.806  0.00  0.00    +0.071 A 
ATOM      8  C   UNL     1       0.503   0.020   2.158  0.00  0.00    +0.232 C 
ATOM      9  O   UNL     1       0.382   1.185   2.494  0.00  0.00    -0.283 OA
ATOM     10  C   UNL     1       0.421  -1.175   3.009  0.00  0.00    +0.176 C 
ATOM     11  C   UNL     1       0.190  -1.192   4.347  0.00  0.00    +0.062 C 
ATOM     12  O   UNL     1       0.605  -2.257   2.215  0.00  0.00    -0.451 OA
ENDROOT
BRANCH  11  13
ATOM     13  C   UNL     1       0.277  -2.455   5.090  0.00  0.00    +0.024 A 
ATOM     14  C   UNL     1       0.238  -3.678   4.409  0.00  0.00    +0.012 A 
ATOM     15  C   UNL     1       0.319  -4.860   5.111  0.00  0.00    +0.004 A 
ATOM     16  C   UNL     1       0.440  -4.847   6.492  0.00  0.00    +0.049 A 
ATOM     17  C   UNL     1       0.480  -3.647   7.181  0.00  0.00    +0.162 A 
ATOM     18  C   UNL     1       0.405  -2.443   6.488  0.00  0.00    +0.169 A 
BRANCH  18  19
ATOM     19  O   UNL     1       0.450  -1.264   7.160  0.00  0.00    -0.491 OA
ATOM     20  C   UNL     1      -0.796  -0.719   7.598  0.00  0.00    +0.277 C 
ENDBRANCH  18  19
BRANCH  17  21
ATOM     21  O   UNL     1       0.599  -3.644   8.536  0.00  0.00    -0.491 OA
ATOM     22  C   UNL     1       0.677  -4.916   9.182  0.00  0.00    +0.277 C 
ENDBRANCH  17  21
ENDBRANCH  11  13
BRANCH   4  23
ATOM     23  O   UNL     1       1.480  -2.805  -2.536  0.00  0.00    -0.506 OA
ATOM     24  H   UNL     1       2.418  -2.912  -2.745  0.00  0.00    +0.292 HD
ENDBRANCH   4  23
BRANCH   5  25
ATOM     25  C   UNL     1       1.122  -4.172  -0.101  0.00  0.00    -0.036 C 
BRANCH  25  26
ATOM     26  N   UNL     1      -0.171  -4.745  -0.498  0.00  0.00    +0.383 N 
ATOM     27  C   UNL     1      -1.206  -4.279   0.445  0.00  0.00    -0.078 C 
ATOM     28  C   UNL     1      -2.542  -4.334  -0.252  0.00  0.00    -0.019 C 
ATOM     29  C   UNL     1      -3.292  -5.640   0.069  0.00  0.00    -0.002 C 
ATOM     30  C   UNL     1      -2.344  -6.856   0.078  0.00  0.00    -0.002 C 
ATOM     31  C   UNL     1      -1.341  -6.813  -1.047  0.00  0.00    -0.019 C 
ATOM     32  C   UNL     1      -0.049  -6.135  -0.544  0.00  0.00    -0.078 C 
ATOM     33  H   UNL     1      -0.403  -4.410  -1.422  0.00  0.00    -0.081 HD
ENDBRANCH  25  26
ENDBRANCH   5  25
TORSDOF 6
