REMARK  Name = ZINC15054263
REMARK  4 active torsions:
REMARK  status: ('A' for Active; 'I' for Inactive)
REMARK    1  A    between atoms: C_6  and  C_7
REMARK    2  A    between atoms: C_7  and  C_9
REMARK    3  A    between atoms: C_9  and  C_10
REMARK    4  A    between atoms: N_16  and  N_17
REMARK                            x       y       z     vdW  Elec       q    Type
REMARK                         _______ _______ _______ _____ _____    ______ ____
ROOT
ATOM      1  C   UNL     1      -3.721  -1.051   0.022  0.00  0.00    +0.147 C 
ATOM      2  C   UNL     1      -5.075  -0.358   0.061  0.00  0.00    +0.232 C 
ATOM      3  O   UNL     1      -5.438   0.348   0.978  0.00  0.00    -0.274 OA
ATOM      4  N   UNL     1      -5.819  -0.603  -1.008  0.00  0.00    -0.263 N 
ATOM      5  C   UNL     1      -5.391  -1.401  -2.030  0.00  0.00    +0.183 C 
ATOM      6  N   UNL     1      -6.056  -1.709  -3.140  0.00  0.00    -0.126 NA
ATOM      7  S   UNL     1      -3.849  -1.916  -1.595  0.00  0.00    -0.075 S 
ATOM      8  H   UNL     1      -6.700  -0.202  -1.067  0.00  0.00    +0.157 HD
ENDROOT
BRANCH   6   9
ATOM      9  N   UNL     1      -5.516  -2.481  -4.022  0.00  0.00    -0.142 NA
ATOM     10  C   UNL     1      -6.178  -2.787  -5.126  0.00  0.00    +0.157 C 
ATOM     11  C   UNL     1      -7.530  -2.336  -5.518  0.00  0.00    +0.029 A 
ATOM     12  C   UNL     1      -8.475  -1.513  -4.912  0.00  0.00    +0.027 A 
ATOM     13  C   UNL     1      -9.680  -1.274  -5.543  0.00  0.00    +0.019 A 
ATOM     14  C   UNL     1      -9.945  -1.852  -6.775  0.00  0.00    +0.017 A 
ATOM     15  C   UNL     1      -9.015  -2.669  -7.384  0.00  0.00    +0.025 A 
ATOM     16  C   UNL     1      -7.796  -2.921  -6.764  0.00  0.00    +0.043 A 
ATOM     17  N   UNL     1      -6.704  -3.690  -7.149  0.00  0.00    -0.280 N 
ATOM     18  C   UNL     1      -5.725  -3.644  -6.230  0.00  0.00    +0.269 C 
ATOM     19  O   UNL     1      -4.650  -4.214  -6.299  0.00  0.00    -0.268 OA
ATOM     20 BR   UNL     1     -10.968  -0.157  -4.726  0.00  0.00    -0.050 Br
ATOM     21  H   UNL     1      -6.654  -4.194  -7.976  0.00  0.00    +0.155 HD
ENDBRANCH   6   9
BRANCH   1  22
ATOM     22  C   UNL     1      -2.577  -0.035   0.019  0.00  0.00    +0.103 C 
BRANCH  22  23
ATOM     23  C   UNL     1      -1.258  -0.764   0.006  0.00  0.00    +0.165 C 
ATOM     24  O   UNL     1      -1.236  -1.976  -0.000  0.00  0.00    -0.292 OA
BRANCH  23  30
ATOM     25  C   UNL     1      -0.017   1.394   0.010  0.00  0.00    +0.011 A 
ATOM     26  C   UNL     1       1.170   2.090   0.002  0.00  0.00    +0.004 A 
ATOM     27  C   UNL     1       2.389   1.419  -0.012  0.00  0.00    -0.044 A 
ATOM     28  C   UNL     1       2.415   0.040  -0.014  0.00  0.00    -0.044 A 
ATOM     29  C   UNL     1       1.227  -0.673  -0.010  0.00  0.00    +0.015 A 
ATOM     30  C   UNL     1       0.002  -0.004   0.002  0.00  0.00    +0.018 A 
ATOM     31  C   UNL     1       3.701  -0.746  -0.012  0.00  0.00    +0.035 C 
ATOM     32  C   UNL     1       4.870   0.136  -0.445  0.00  0.00    +0.005 C 
ATOM     33  C   UNL     1       4.849   1.416   0.398  0.00  0.00    +0.005 C 
ATOM     34  C   UNL     1       3.644   2.252  -0.027  0.00  0.00    +0.035 C 
ENDBRANCH  23  30
ENDBRANCH  22  23
ENDBRANCH   1  22
TORSDOF 4
