REMARK  Name = ZINC15956690
REMARK  6 active torsions:
REMARK  status: ('A' for Active; 'I' for Inactive)
REMARK    1  A    between atoms: C_1  and  C_2
REMARK    2  A    between atoms: C_16  and  C_19
REMARK    3  A    between atoms: C_19  and  C_20
REMARK    4  A    between atoms: N_28  and  C_31
REMARK    5  A    between atoms: C_34  and  C_37
REMARK    6  A    between atoms: C_37  and  C_39
REMARK                            x       y       z     vdW  Elec       q    Type
REMARK                         _______ _______ _______ _____ _____    ______ ____
ROOT
ATOM      1  C   UNL     1       4.756  -0.055   0.532  0.00  0.00    +0.047 C 
ATOM      2  C   UNL     1       3.925  -1.310   0.466  0.00  0.00    -0.011 A 
ATOM      3  C   UNL     1       4.034  -2.151  -0.624  0.00  0.00    +0.046 A 
ATOM      4  C   UNL     1       3.274  -3.306  -0.693  0.00  0.00    +0.021 A 
ATOM      5  C   UNL     1       2.402  -3.619   0.334  0.00  0.00    +0.009 A 
ATOM      6  C   UNL     1       2.291  -2.783   1.423  0.00  0.00    +0.004 A 
ATOM      7  C   UNL     1       3.054  -1.621   1.506  0.00  0.00    +0.043 A 
ATOM      8  N   UNL     1       2.774  -0.945   2.695  0.00  0.00    -0.283 N 
ATOM      9  C   UNL     1       1.858  -1.589   3.443  0.00  0.00    +0.243 C 
ATOM     10  O   UNL     1       1.424  -1.236   4.519  0.00  0.00    -0.273 OA
ATOM     11  C   UNL     1       1.466  -2.823   2.678  0.00  0.00    +0.136 C 
ATOM     12  C   UNL     1      -0.035  -2.854   2.367  0.00  0.00    +0.123 C 
ATOM     13  C   UNL     1      -0.645  -3.753   3.479  0.00  0.00    +0.108 C 
ATOM     14  C   UNL     1       0.552  -4.154   4.366  0.00  0.00    +0.072 C 
ATOM     15  N   UNL     1       1.740  -4.037   3.468  0.00  0.00    -0.295 NA
ATOM     16  C   UNL     1      -1.149  -4.958   2.719  0.00  0.00    +0.232 C 
ATOM     17  O   UNL     1      -1.697  -5.919   3.213  0.00  0.00    -0.274 OA
ATOM     18  N   UNL     1      -0.896  -4.798   1.415  0.00  0.00    -0.210 N 
ATOM     19  C   UNL     1      -0.275  -3.639   1.096  0.00  0.00    +0.233 C 
ATOM     20  O   UNL     1       0.042  -3.281  -0.018  0.00  0.00    -0.274 OA
ATOM     21 CL   UNL     1       5.128  -1.758  -1.913  0.00  0.00    -0.083 Cl
ATOM     22  H   UNL     1       3.192  -0.108   2.953  0.00  0.00    +0.155 HD
ATOM     23  H   UNL     1       1.834  -4.845   2.870  0.00  0.00    +0.124 HD
ENDROOT
BRANCH  18  24
ATOM     24  C   UNL     1      -1.250  -5.749   0.455  0.00  0.00    +0.044 A 
ATOM     25  C   UNL     1      -2.228  -5.450  -0.489  0.00  0.00    +0.024 A 
ATOM     26  C   UNL     1      -2.580  -6.384  -1.437  0.00  0.00    +0.013 A 
ATOM     27  C   UNL     1      -1.952  -7.636  -1.450  0.00  0.00    +0.017 A 
ATOM     28  C   UNL     1      -0.969  -7.931  -0.499  0.00  0.00    +0.013 A 
ATOM     29  C   UNL     1      -0.620  -6.989   0.442  0.00  0.00    +0.024 A 
BRANCH  27  30
ATOM     30  C   UNL     1      -2.325  -8.636  -2.460  0.00  0.00    +0.160 C 
ATOM     31  O   UNL     1      -3.178  -8.378  -3.283  0.00  0.00    -0.292 OA
ATOM     32  C   UNL     1      -1.648  -9.982  -2.472  0.00  0.00    +0.091 C 
ENDBRANCH  27  30
ENDBRANCH  18  24
BRANCH  14  33
ATOM     33  C   UNL     1       0.666  -3.212   5.566  0.00  0.00    +0.054 C 
BRANCH  33  34
ATOM     34  C   UNL     1      -0.094  -3.790   6.732  0.00  0.00    -0.046 A 
ATOM     35  C   UNL     1      -1.431  -3.485   6.906  0.00  0.00    +0.004 A 
ATOM     36  C   UNL     1      -2.127  -4.016   7.976  0.00  0.00    +0.000 A 
ATOM     37  C   UNL     1      -1.487  -4.851   8.872  0.00  0.00    +0.000 A 
ATOM     38  C   UNL     1      -0.150  -5.157   8.697  0.00  0.00    +0.000 A 
ATOM     39  C   UNL     1       0.545  -4.630   7.625  0.00  0.00    +0.004 A 
ENDBRANCH  33  34
ENDBRANCH  14  33
TORSDOF 4
