REMARK  Name = ZINC21917161
REMARK  8 active torsions:
REMARK  status: ('A' for Active; 'I' for Inactive)
REMARK    1  A    between atoms: C_1  and  C_2
REMARK    2  A    between atoms: C_2  and  C_4
REMARK    3  A    between atoms: C_2  and  N_11
REMARK    4  A    between atoms: C_12  and  C_14
REMARK    5  A    between atoms: C_14  and  C_16
REMARK    6  A    between atoms: C_14  and  N_27
REMARK    7  A    between atoms: C_16  and  C_17
REMARK    8  A    between atoms: C_28  and  C_30
REMARK                            x       y       z     vdW  Elec       q    Type
REMARK                         _______ _______ _______ _____ _____    ______ ____
ROOT
ATOM      1  C   UNL     1       4.382   0.906   0.695  0.00  0.00    +0.163 C 
ENDROOT
BRANCH   1   3
ATOM      2  N   UNL     1       6.235  -0.689   1.066  0.00  0.00    -0.307 N 
ATOM      3  C   UNL     1       5.831   0.592   0.963  0.00  0.00    +0.234 C 
ATOM      4  O   UNL     1       6.634   1.493   1.085  0.00  0.00    -0.274 OA
ATOM      5  H   UNL     1       5.507  -1.506   0.955  0.00  0.00    +0.149 HD
BRANCH   2   7
ATOM      6  C   UNL     1       7.895  -1.000   2.835  0.00  0.00    +0.033 C 
ATOM      7  C   UNL     1       7.644  -0.995   1.326  0.00  0.00    +0.103 C 
BRANCH   7   8
ATOM      8  C   UNL     1       7.978  -2.349   0.756  0.00  0.00    +0.008 A 
ATOM      9  C   UNL     1       6.990  -3.307   0.626  0.00  0.00    +0.008 A 
ATOM     10  C   UNL     1       7.295  -4.548   0.099  0.00  0.00    +0.000 A 
ATOM     11  C   UNL     1       8.590  -4.836  -0.289  0.00  0.00    +0.003 A 
ATOM     12  C   UNL     1       9.581  -3.882  -0.154  0.00  0.00    +0.039 A 
ATOM     13  C   UNL     1       9.276  -2.637   0.369  0.00  0.00    +0.128 A 
ATOM     14  F   UNL     1      10.243  -1.704   0.501  0.00  0.00    -0.205 F 
ENDBRANCH   7   8
ENDBRANCH   2   7
ENDBRANCH   1   3
BRANCH   1  15
ATOM     15  N   UNL     1       4.100   2.288   1.092  0.00  0.00    -0.299 N 
ATOM     16  C   UNL     1       4.766   3.305   0.510  0.00  0.00    +0.251 C 
ATOM     17  O   UNL     1       5.602   3.076  -0.345  0.00  0.00    -0.270 OA
ATOM     18  H   UNL     1       3.345   2.496   1.864  0.00  0.00    +0.150 HD
BRANCH  16  19
ATOM     19  C   UNL     1       4.485   4.688   0.907  0.00  0.00    +0.074 A 
ATOM     20  C   UNL     1       5.050   5.864   0.439  0.00  0.00    +0.021 A 
ATOM     21  C   UNL     1       4.598   7.037   0.988  0.00  0.00    +0.008 A 
ATOM     22  C   UNL     1       3.635   6.993   1.946  0.00  0.00    +0.046 A 
ATOM     23  S   UNL     1       3.319   5.297   2.112  0.00  0.00    -0.092 S 
ENDBRANCH  16  19
ENDBRANCH   1  15
BRANCH   1  24
ATOM     24  C   UNL     1       4.090   0.734  -0.797  0.00  0.00    +0.069 C 
BRANCH  24  25
ATOM     25  C   UNL     1       2.616   0.928  -1.046  0.00  0.00    -0.020 A 
ATOM     26  C   UNL     1       1.684  -0.036  -1.115  0.00  0.00    +0.087 A 
ATOM     27  N   UNL     1       0.456   0.518  -1.353  0.00  0.00    -0.360 N 
ATOM     28  H   UNL     1      -0.431  -0.126  -1.442  0.00  0.00    +0.165 HD
ATOM     29  C   UNL     1       0.570   1.887  -1.445  0.00  0.00    +0.047 A 
ATOM     30  C   UNL     1       1.928   2.204  -1.256  0.00  0.00    +0.003 A 
ATOM     31  C   UNL     1       2.345   3.536  -1.297  0.00  0.00    +0.010 A 
ATOM     32  C   UNL     1       1.431   4.526  -1.520  0.00  0.00    +0.001 A 
ATOM     33  C   UNL     1       0.090   4.219  -1.707  0.00  0.00    +0.002 A 
ATOM     34  C   UNL     1      -0.344   2.912  -1.667  0.00  0.00    +0.026 A 
ENDBRANCH  24  25
ENDBRANCH   1  24
TORSDOF 7
