REMARK  Name = ZINC12502672
REMARK  7 active torsions:
REMARK  status: ('A' for Active; 'I' for Inactive)
REMARK    1  A    between atoms: C_4  and  C_7
REMARK    2  A    between atoms: C_7  and  C_8
REMARK    3  A    between atoms: C_7  and  C_14
REMARK    4  A    between atoms: N_16  and  C_17
REMARK    5  A    between atoms: C_17  and  N_19
REMARK    6  A    between atoms: N_19  and  N_20
REMARK    7  A    between atoms: C_21  and  C_23
REMARK                            x       y       z     vdW  Elec       q    Type
REMARK                         _______ _______ _______ _____ _____    ______ ____
ROOT
ATOM      1  C   UNL     1      -0.345  -0.786   1.243  0.00  0.00    +0.230 C 
ATOM      2  O   UNL     1      -0.791  -0.214   2.215  0.00  0.00    -0.274 OA
ATOM      3  N   UNL     1      -0.159  -2.120   1.272  0.00  0.00    -0.266 N 
ATOM      4  H   UNL     1       0.198  -2.578   0.495  0.00  0.00    +0.157 HD
ENDROOT
BRANCH   3   5
ATOM      5  C   UNL     1      -0.470  -2.820   2.382  0.00  0.00    +0.153 C 
ATOM      6  S   UNL     1      -1.100  -2.013   3.754  0.00  0.00    -0.017 S 
BRANCH   5   7
ATOM      7  N   UNL     1      -0.284  -4.154   2.411  0.00  0.00    -0.245 N 
ATOM      8  H   UNL     1      -0.507  -4.658   3.210  0.00  0.00    +0.172 HD
BRANCH   7   9
ATOM      9  N   UNL     1       0.232  -4.815   1.288  0.00  0.00    -0.231 N 
ATOM     10  C   UNL     1       0.417  -6.149   1.318  0.00  0.00    +0.261 C 
ATOM     11  O   UNL     1       0.138  -6.780   2.318  0.00  0.00    -0.269 OA
ATOM     12  H   UNL     1       0.455  -4.312   0.490  0.00  0.00    +0.173 HD
BRANCH  10  13
ATOM     13  C   UNL     1       0.961  -6.846   0.133  0.00  0.00    +0.051 A 
ATOM     14  C   UNL     1       1.278  -6.126  -1.020  0.00  0.00    +0.014 A 
ATOM     15  C   UNL     1       1.790  -6.781  -2.120  0.00  0.00    +0.001 A 
ATOM     16  C   UNL     1       1.979  -8.152  -2.087  0.00  0.00    +0.001 A 
ATOM     17  C   UNL     1       1.663  -8.873  -0.951  0.00  0.00    +0.015 A 
ATOM     18  C   UNL     1       1.155  -8.229   0.160  0.00  0.00    +0.026 A 
ATOM     19  I   UNL     1       0.675  -9.323   1.881  0.00  0.00    -0.043 I 
ENDBRANCH  10  13
ENDBRANCH   7   9
ENDBRANCH   5   7
ENDBRANCH   3   5
BRANCH   1  20
ATOM     20  C   UNL     1       0.002  -0.004   0.002  0.00  0.00    +0.135 C 
BRANCH  20  24
ATOM     21  C   UNL     1      -0.846   4.133   0.642  0.00  0.00    +0.000 A 
ATOM     22  C   UNL     1       0.406   3.744   0.204  0.00  0.00    +0.000 A 
ATOM     23  C   UNL     1       0.680   2.405  -0.003  0.00  0.00    +0.005 A 
ATOM     24  C   UNL     1      -0.297   1.456   0.228  0.00  0.00    -0.031 A 
ATOM     25  C   UNL     1      -1.551   1.845   0.661  0.00  0.00    +0.005 A 
ATOM     26  C   UNL     1      -1.824   3.184   0.873  0.00  0.00    +0.000 A 
ENDBRANCH  20  24
BRANCH  20  27
ATOM     27  C   UNL     1      -0.817  -0.511  -1.157  0.00  0.00    -0.031 A 
ATOM     28  C   UNL     1      -2.184  -0.668  -1.021  0.00  0.00    +0.005 A 
ATOM     29  C   UNL     1      -2.936  -1.129  -2.086  0.00  0.00    +0.000 A 
ATOM     30  C   UNL     1      -2.320  -1.442  -3.283  0.00  0.00    +0.000 A 
ATOM     31  C   UNL     1      -0.952  -1.291  -3.417  0.00  0.00    +0.000 A 
ATOM     32  C   UNL     1      -0.201  -0.825  -2.354  0.00  0.00    +0.005 A 
ENDBRANCH  20  27
ENDBRANCH   1  20
TORSDOF 7
