REMARK  Name = ZINC43224053
REMARK  14 active torsions:
REMARK  status: ('A' for Active; 'I' for Inactive)
REMARK    1  A    between atoms: C_1  and  C_2
REMARK    2  A    between atoms: C_3  and  C_28
REMARK    3  A    between atoms: C_5  and  C_13
REMARK    4  A    between atoms: N_6  and  C_7
REMARK    5  A    between atoms: C_7  and  C_8
REMARK    6  A    between atoms: C_15  and  C_24
REMARK    7  A    between atoms: C_16  and  O_23
REMARK    8  A    between atoms: C_17  and  C_19
REMARK    9  A    between atoms: C_19  and  C_20
REMARK   10  A    between atoms: C_19  and  C_21
REMARK   11  A    between atoms: C_19  and  C_22
REMARK   12  A    between atoms: C_24  and  C_25
REMARK   13  A    between atoms: C_24  and  C_26
REMARK   14  A    between atoms: C_24  and  C_27
REMARK                            x       y       z     vdW  Elec       q    Type
REMARK                         _______ _______ _______ _____ _____    ______ ____
ROOT
ATOM      1  C   UNL     1       1.089  -0.470  -2.446  0.00  0.00    +0.064 C 
ATOM      2  C   UNL     1       0.506  -0.859  -1.112  0.00  0.00    +0.029 A 
ATOM      3  C   UNL     1      -0.313  -0.075  -0.330  0.00  0.00    +0.057 A 
ATOM      4  C   UNL     1      -0.624  -0.831   0.831  0.00  0.00    +0.041 A 
ATOM      5  C   UNL     1       0.009  -2.025   0.710  0.00  0.00    +0.050 A 
ATOM      6  N   UNL     1       0.693  -2.036  -0.481  0.00  0.00    -0.336 N 
ENDROOT
BRANCH   5   7
ATOM      7  C   UNL     1      -0.034  -3.130   1.692  0.00  0.00    -0.001 A 
ATOM      8  C   UNL     1      -0.066  -2.850   3.059  0.00  0.00    +0.017 A 
ATOM      9  C   UNL     1      -0.106  -3.883   3.971  0.00  0.00    +0.000 A 
ATOM     10  C   UNL     1      -0.114  -5.200   3.532  0.00  0.00    +0.124 A 
ATOM     11  C   UNL     1      -0.082  -5.483   2.173  0.00  0.00    +0.000 A 
ATOM     12  C   UNL     1      -0.048  -4.455   1.254  0.00  0.00    +0.017 A 
BRANCH  11  13
ATOM     13  C   UNL     1      -0.090  -6.914   1.702  0.00  0.00    -0.009 C 
ATOM     14  C   UNL     1      -0.049  -6.948   0.172  0.00  0.00    +0.015 C 
ATOM     15  C   UNL     1       1.134  -7.643   2.261  0.00  0.00    +0.015 C 
ATOM     16  C   UNL     1      -1.364  -7.605   2.193  0.00  0.00    +0.015 C 
ENDBRANCH  11  13
BRANCH   9  17
ATOM     17  C   UNL     1      -0.141  -3.582   5.448  0.00  0.00    -0.009 C 
ATOM     18  C   UNL     1      -0.008  -2.073   5.664  0.00  0.00    +0.015 C 
ATOM     19  C   UNL     1      -1.467  -4.067   6.036  0.00  0.00    +0.015 C 
ATOM     20  C   UNL     1       1.018  -4.300   6.142  0.00  0.00    +0.015 C 
ENDBRANCH   9  17
BRANCH  10  21
ATOM     21  O   UNL     1      -0.154  -6.215   4.435  0.00  0.00    -0.506 OA
ATOM     22  H   UNL     1      -1.048  -6.496   4.672  0.00  0.00    +0.292 HD
ENDBRANCH  10  21
ENDBRANCH   5   7
BRANCH   3  23
ATOM     23  C   UNL     1      -0.778   1.288  -0.639  0.00  0.00    +0.243 C 
ATOM     24  O   UNL     1      -0.437   1.827  -1.674  0.00  0.00    -0.270 OA
ATOM     25  N   UNL     1      -1.582   1.938   0.226  0.00  0.00    -0.325 N 
ATOM     26  H   UNL     1      -1.855   1.508   1.052  0.00  0.00    +0.145 HD
ATOM     27  H   UNL     1      -1.889   2.836   0.022  0.00  0.00    +0.145 HD
ENDBRANCH   3  23
BRANCH   6  28
ATOM     28  C   UNL     1       1.500  -3.150  -0.985  0.00  0.00    +0.196 C 
BRANCH  28  29
ATOM     29  C   UNL     1       2.885  -3.075  -0.394  0.00  0.00    +0.124 A 
ATOM     30  C   UNL     1       3.310  -3.732   0.700  0.00  0.00    +0.046 A 
ATOM     31  C   UNL     1       4.663  -3.372   0.893  0.00  0.00    +0.041 A 
ATOM     32  C   UNL     1       4.984  -2.517  -0.094  0.00  0.00    +0.195 A 
ATOM     33  O   UNL     1       3.905  -2.345  -0.874  0.00  0.00    -0.466 OA
ENDBRANCH  28  29
ENDBRANCH   6  28
TORSDOF 7
