REMARK  Name = ZINC36895178
REMARK  6 active torsions:
REMARK  status: ('A' for Active; 'I' for Inactive)
REMARK    1  A    between atoms: C_1  and  C_2
REMARK    2  A    between atoms: C_2  and  N_3
REMARK    3  A    between atoms: C_12  and  C_14
REMARK    4  A    between atoms: N_16  and  N_17
REMARK    5  A    between atoms: C_18  and  C_20
REMARK    6  A    between atoms: C_23  and  C_25
REMARK                            x       y       z     vdW  Elec       q    Type
REMARK                         _______ _______ _______ _____ _____    ______ ____
ROOT
ATOM      1  N   UNL     1      -3.502  -1.317   5.009  0.00  0.00    -0.228 N 
ATOM      2  C   UNL     1      -2.756  -1.046   6.099  0.00  0.00    +0.295 C 
ATOM      3  O   UNL     1      -1.621  -0.627   5.972  0.00  0.00    -0.265 OA
ATOM      4  H   UNL     1      -4.406  -1.651   5.111  0.00  0.00    +0.173 HD
ENDROOT
BRANCH   2   5
ATOM      5  C   UNL     1      -3.314  -1.257   7.440  0.00  0.00    +0.191 A 
ATOM      6  C   UNL     1      -2.664  -1.016   8.630  0.00  0.00    +0.055 A 
ATOM      7  C   UNL     1      -3.556  -1.352   9.654  0.00  0.00    +0.053 A 
ATOM      8  C   UNL     1      -4.715  -1.784   9.050  0.00  0.00    +0.161 A 
ATOM      9  O   UNL     1      -4.552  -1.714   7.717  0.00  0.00    -0.448 OA
BRANCH   8  10
ATOM     10  C   UNL     1      -5.930  -2.240   9.745  0.00  0.00    +0.145 A 
ATOM     11  N   UNL     1      -6.160  -2.322  11.040  0.00  0.00    -0.236 NA
ATOM     12  C   UNL     1      -7.324  -2.759  11.540  0.00  0.00    +0.079 A 
ATOM     13  C   UNL     1      -7.695  -2.894  12.901  0.00  0.00    +0.029 A 
ATOM     14  C   UNL     1      -8.926  -3.357  13.244  0.00  0.00    +0.002 A 
ATOM     15  C   UNL     1      -9.865  -3.714  12.286  0.00  0.00    +0.001 A 
ATOM     16  C   UNL     1      -9.544  -3.597  10.946  0.00  0.00    +0.017 A 
ATOM     17  C   UNL     1      -8.303  -3.131  10.587  0.00  0.00    +0.040 A 
ATOM     18  S   UNL     1      -7.472  -2.816   9.049  0.00  0.00    -0.064 S 
ENDBRANCH   8  10
ENDBRANCH   2   5
BRANCH   1  21
ATOM     19  C   UNL     1      -3.714  -1.386   2.639  0.00  0.00    +0.281 C 
ATOM     20  O   UNL     1      -4.848  -1.805   2.767  0.00  0.00    -0.267 OA
ATOM     21  N   UNL     1      -2.969  -1.115   3.729  0.00  0.00    -0.229 N 
ATOM     22  H   UNL     1      -2.064  -0.781   3.627  0.00  0.00    +0.173 HD
BRANCH  19  32
ATOM     23  N   UNL     1      -1.372  -0.511   0.012  0.00  0.00    -0.229 N 
ATOM     24  C   UNL     1      -1.981  -0.731  -1.171  0.00  0.00    +0.275 A 
ATOM     25  O   UNL     1      -1.401  -0.513  -2.220  0.00  0.00    -0.266 OA
ATOM     26  C   UNL     1      -3.359  -1.239  -1.166  0.00  0.00    +0.050 A 
ATOM     27  C   UNL     1      -4.074  -1.498  -2.332  0.00  0.00    +0.014 A 
ATOM     28  C   UNL     1      -5.364  -1.974  -2.241  0.00  0.00    +0.001 A 
ATOM     29  C   UNL     1      -5.954  -2.196  -1.004  0.00  0.00    +0.001 A 
ATOM     30  C   UNL     1      -5.263  -1.946   0.163  0.00  0.00    +0.011 A 
ATOM     31  C   UNL     1      -3.959  -1.466   0.094  0.00  0.00    +0.020 A 
ATOM     32  C   UNL     1      -3.153  -1.173   1.290  0.00  0.00    +0.155 A 
ATOM     33  N   UNL     1      -1.929  -0.727   1.144  0.00  0.00    -0.163 NA
BRANCH  23  35
ATOM     34  C   UNL     1      -0.019   1.526   0.010  0.00  0.00    +0.029 C 
ATOM     35  C   UNL     1       0.002  -0.004   0.002  0.00  0.00    +0.144 C 
ENDBRANCH  23  35
ENDBRANCH  19  32
ENDBRANCH   1  21
TORSDOF 5
