REMARK  Name = ZINC11263971
REMARK  8 active torsions:
REMARK  status: ('A' for Active; 'I' for Inactive)
REMARK    1  A    between atoms: C_1  and  N_2
REMARK    2  A    between atoms: N_2  and  C_3
REMARK    3  A    between atoms: C_6  and  C_11
REMARK    4  A    between atoms: C_11  and  O_12
REMARK    5  A    between atoms: O_12  and  C_13
REMARK    6  A    between atoms: C_13  and  C_15
REMARK    7  A    between atoms: C_28  and  C_29
REMARK    8  A    between atoms: C_32  and  O_35
REMARK                            x       y       z     vdW  Elec       q    Type
REMARK                         _______ _______ _______ _____ _____    ______ ____
ROOT
ATOM      1  C   UNL     1      -2.775  -6.787  -2.362  0.00  0.00    +0.073 A 
ATOM      2  C   UNL     1      -3.495  -7.065  -3.605  0.00  0.00    +0.015 A 
ATOM      3  C   UNL     1      -2.905  -6.858  -4.855  0.00  0.00    +0.011 A 
ATOM      4  C   UNL     1      -3.614  -7.131  -5.988  0.00  0.00    +0.001 A 
ATOM      5  C   UNL     1      -4.918  -7.614  -5.914  0.00  0.00    +0.002 A 
ATOM      6  C   UNL     1      -5.522  -7.827  -4.713  0.00  0.00    +0.028 A 
ATOM      7  C   UNL     1      -4.822  -7.556  -3.522  0.00  0.00    +0.072 A 
ATOM      8  N   UNL     1      -5.386  -7.755  -2.333  0.00  0.00    -0.247 NA
ATOM      9  C   UNL     1      -4.759  -7.512  -1.186  0.00  0.00    +0.072 A 
ATOM     10  C   UNL     1      -3.440  -7.029  -1.168  0.00  0.00    -0.007 A 
ATOM     11  C   UNL     1      -2.980  -6.854   0.258  0.00  0.00    +0.043 C 
ATOM     12  C   UNL     1      -4.155  -7.287   1.145  0.00  0.00    +0.042 C 
ATOM     13  C   UNL     1      -5.256  -7.684   0.193  0.00  0.00    -0.021 C 
ATOM     14  C   UNL     1      -6.475  -8.132   0.541  0.00  0.00    +0.013 C 
ENDROOT
BRANCH  14  15
ATOM     15  C   UNL     1      -6.789  -8.387   1.957  0.00  0.00    -0.024 A 
ATOM     16  C   UNL     1      -7.987  -9.017   2.307  0.00  0.00    +0.011 A 
ATOM     17  C   UNL     1      -8.277  -9.253   3.633  0.00  0.00    +0.046 A 
ATOM     18  C   UNL     1      -7.380  -8.866   4.622  0.00  0.00    +0.117 A 
ATOM     19  C   UNL     1      -6.188  -8.240   4.279  0.00  0.00    +0.046 A 
ATOM     20  C   UNL     1      -5.887  -8.004   2.955  0.00  0.00    +0.011 A 
BRANCH  18  21
ATOM     21  O   UNL     1      -7.670  -9.100   5.928  0.00  0.00    -0.507 OA
ATOM     22  H   UNL     1      -7.356  -9.955   6.253  0.00  0.00    +0.292 HD
ENDBRANCH  18  21
ENDBRANCH  14  15
BRANCH   1  23
ATOM     23  C   UNL     1      -1.390  -6.273  -2.376  0.00  0.00    +0.341 C 
ATOM     24  O   UNL     1      -0.455  -7.048  -2.379  0.00  0.00    -0.245 OA
BRANCH  23  25
ATOM     25  O   UNL     1      -1.164  -4.945  -2.387  0.00  0.00    -0.453 OA
BRANCH  25  26
ATOM     26  C   UNL     1       0.200  -4.519  -2.401  0.00  0.00    +0.308 C 
BRANCH  26  32
ATOM     27  C   UNL     1       0.423   1.143  -0.092  0.00  0.00    +0.132 C 
ATOM     28  N   UNL     1       0.374  -0.322  -0.085  0.00  0.00    -0.306 N 
ATOM     29  C   UNL     1       0.363  -1.048   1.187  0.00  0.00    +0.132 C 
ATOM     30  C   UNL     1       0.339  -1.016  -1.277  0.00  0.00    +0.222 A 
ATOM     31  N   UNL     1       0.289  -2.347  -1.271  0.00  0.00    -0.196 NA
ATOM     32  C   UNL     1       0.256  -3.013  -2.412  0.00  0.00    +0.173 A 
ATOM     33  N   UNL     1       0.271  -2.362  -3.562  0.00  0.00    -0.196 NA
ATOM     34  C   UNL     1       0.321  -1.032  -3.575  0.00  0.00    +0.217 A 
ATOM     35  N   UNL     1       0.349  -0.359  -2.431  0.00  0.00    -0.181 NA
ATOM     36  N   UNL     1       0.337  -0.353  -4.777  0.00  0.00    -0.327 N 
ATOM     37  H   UNL     1       0.312  -0.846  -5.612  0.00  0.00    +0.145 HD
ATOM     38  H   UNL     1       0.373   0.616  -4.786  0.00  0.00    +0.145 HD
ENDBRANCH  26  32
ENDBRANCH  25  26
ENDBRANCH  23  25
ENDBRANCH   1  23
TORSDOF 6
