REMARK  Name = ZINC62752988
REMARK  4 active torsions:
REMARK  status: ('A' for Active; 'I' for Inactive)
REMARK    1  A    between atoms: C_1  and  C_2
REMARK    2  A    between atoms: N_6  and  C_11
REMARK    3  A    between atoms: C_7  and  C_10
REMARK    4  A    between atoms: C_18  and  C_20
REMARK                            x       y       z     vdW  Elec       q    Type
REMARK                         _______ _______ _______ _____ _____    ______ ____
ROOT
ATOM      1  C   UNL     1      -0.875  -3.786   1.104  0.00  0.00    -0.054 C 
ATOM      2  C   UNL     1      -0.325  -4.418  -0.189  0.00  0.00    -0.014 C 
ATOM      3  C   UNL     1      -0.453  -5.917  -0.198  0.00  0.00    -0.002 C 
ATOM      4  C   UNL     1      -1.767  -6.292  -0.914  0.00  0.00    -0.000 C 
ATOM      5  C   UNL     1      -2.929  -6.152  -0.050  0.00  0.00    +0.001 C 
ATOM      6  C   UNL     1      -3.137  -4.699   0.425  0.00  0.00    +0.013 C 
ATOM      7  C   UNL     1      -2.197  -4.430   1.565  0.00  0.00    +0.089 C 
ENDROOT
BRANCH   1  12
ATOM      8  C   UNL     1      -1.493   1.515  -0.906  0.00  0.00    +0.007 C 
ATOM      9  C   UNL     1      -1.230   0.012  -0.795  0.00  0.00    -0.017 C 
ATOM     10  C   UNL     1      -2.488  -0.691  -0.276  0.00  0.00    -0.015 C 
ATOM     11  C   UNL     1      -2.194  -2.182  -0.093  0.00  0.00    -0.078 C 
ATOM     12  N   UNL     1      -1.101  -2.353   0.873  0.00  0.00    +0.384 N 
ATOM     13  C   UNL     1       0.127  -1.744   0.348  0.00  0.00    -0.071 C 
ATOM     14  C   UNL     1      -0.077  -0.236   0.181  0.00  0.00    -0.012 C 
ATOM     15  C   UNL     1       1.278  -1.996   1.325  0.00  0.00    -0.013 C 
ATOM     16  H   UNL     1      -1.351  -1.909   1.744  0.00  0.00    -0.081 HD
ENDBRANCH   1  12
BRANCH   7  17
ATOM     17  C   UNL     1      -2.873  -3.506   2.544  0.00  0.00    +0.357 C 
ATOM     18  O   UNL     1      -4.084  -3.363   2.511  0.00  0.00    -0.246 OA
ATOM     19  O   UNL     1      -2.211  -2.901   3.369  0.00  0.00    -0.246 OA
ENDBRANCH   7  17
TORSDOF 2
