REMARK  Name = ZINC31118084
REMARK  9 active torsions:
REMARK  status: ('A' for Active; 'I' for Inactive)
REMARK    1  A    between atoms: C_1  and  C_2
REMARK    2  A    between atoms: C_12  and  C_16
REMARK    3  A    between atoms: N_18  and  C_19
REMARK    4  A    between atoms: C_19  and  C_20
REMARK    5  A    between atoms: C_20  and  C_21
REMARK    6  A    between atoms: C_21  and  C_22
REMARK    7  A    between atoms: C_23  and  C_35
REMARK    8  A    between atoms: C_24  and  N_34
REMARK    9  A    between atoms: N_25  and  C_27
REMARK                            x       y       z     vdW  Elec       q    Type
REMARK                         _______ _______ _______ _____ _____    ______ ____
ROOT
ATOM      1  C   UNL     1      -6.944   1.784   1.487  0.00  0.00    +0.105 C 
ENDROOT
BRANCH   1   4
ATOM      2  C   UNL     1      -8.742   1.602   3.121  0.00  0.00    +0.246 C 
ATOM      3  O   UNL     1      -9.533   1.532   2.200  0.00  0.00    -0.270 OA
ATOM      4  N   UNL     1      -7.424   1.730   2.870  0.00  0.00    -0.311 N 
ATOM      5  H   UNL     1      -6.709   1.793   3.703  0.00  0.00    +0.149 HD
BRANCH   2  16
ATOM      6  C   UNL     1     -15.881   0.741   7.726  0.00  0.00    +0.008 C 
ATOM      7  C   UNL     1     -14.800   0.603   6.652  0.00  0.00    -0.009 C 
ATOM      8  C   UNL     1     -15.202   1.412   5.415  0.00  0.00    +0.009 C 
ATOM      9  C   UNL     1     -14.256   1.079   4.256  0.00  0.00    +0.054 C 
ATOM     10  C   UNL     1     -12.832   1.206   4.748  0.00  0.00    +0.020 A 
ATOM     11  C   UNL     1     -12.492   1.232   6.050  0.00  0.00    -0.019 A 
ATOM     12  C   UNL     1     -11.039   1.368   6.116  0.00  0.00    +0.004 A 
ATOM     13  C   UNL     1     -10.114   1.449   7.158  0.00  0.00    +0.010 A 
ATOM     14  C   UNL     1      -8.770   1.578   6.880  0.00  0.00    +0.001 A 
ATOM     15  C   UNL     1      -8.323   1.628   5.572  0.00  0.00    +0.015 A 
ATOM     16  C   UNL     1      -9.225   1.548   4.514  0.00  0.00    +0.061 A 
ATOM     17  C   UNL     1     -10.599   1.421   4.780  0.00  0.00    +0.059 A 
ATOM     18  N   UNL     1     -11.707   1.315   3.979  0.00  0.00    -0.357 N 
ATOM     19  H   UNL     1     -11.788   1.307   2.882  0.00  0.00    +0.166 HD
ATOM     20  C   UNL     1     -13.467   1.133   7.194  0.00  0.00    +0.040 C 
ENDBRANCH   2  16
ENDBRANCH   1   4
BRANCH   1  21
ATOM     21  C   UNL     1      -5.421   1.929   1.480  0.00  0.00    +0.025 C 
BRANCH  21  22
ATOM     22  C   UNL     1      -4.920   1.986   0.036  0.00  0.00    +0.060 C 
BRANCH  22  23
ATOM     23  C   UNL     1      -3.420   2.129   0.030  0.00  0.00    +0.083 A 
ATOM     24  C   UNL     1      -2.486   1.067   0.020  0.00  0.00    +0.114 A 
ATOM     25  C   UNL     1      -1.217   1.640   0.017  0.00  0.00    +0.138 A 
ATOM     26  N   UNL     1      -1.387   2.982   0.030  0.00  0.00    -0.217 N 
ATOM     27  N   UNL     1      -2.760   3.253   0.033  0.00  0.00    -0.168 NA
BRANCH  26  28
ATOM     28  C   UNL     1      -0.362   3.938   0.037  0.00  0.00    +0.068 A 
ATOM     29  C   UNL     1       0.817   3.688   0.726  0.00  0.00    +0.030 A 
ATOM     30  C   UNL     1       1.827   4.630   0.728  0.00  0.00    +0.040 A 
ATOM     31  C   UNL     1       1.661   5.827   0.052  0.00  0.00    +0.124 A 
ATOM     32  C   UNL     1       0.484   6.080  -0.631  0.00  0.00    +0.040 A 
ATOM     33  C   UNL     1      -0.527   5.139  -0.640  0.00  0.00    +0.030 A 
ATOM     34  F   UNL     1       2.649   6.748   0.059  0.00  0.00    -0.205 F 
ENDBRANCH  26  28
BRANCH  25  35
ATOM     35  N   UNL     1      -0.011   0.966   0.007  0.00  0.00    -0.342 N 
ATOM     36  H   UNL     1       0.934   1.529   0.005  0.00  0.00    +0.144 HD
ATOM     37  H   UNL     1       0.004  -0.134   0.002  0.00  0.00    +0.144 HD
ENDBRANCH  25  35
BRANCH  24  38
ATOM     38  C   UNL     1      -2.788  -0.333   0.015  0.00  0.00    +0.104 C 
ATOM     39  N   UNL     1      -3.027  -1.443   0.011  0.00  0.00    -0.191 NA
ENDBRANCH  24  38
ENDBRANCH  22  23
ENDBRANCH  21  22
ENDBRANCH   1  21
TORSDOF 8
