REMARK  Name = ZINC17098378
REMARK  7 active torsions:
REMARK  status: ('A' for Active; 'I' for Inactive)
REMARK    1  A    between atoms: C_3  and  C_10
REMARK    2  A    between atoms: C_5  and  N_7
REMARK    3  A    between atoms: C_13  and  C_15
REMARK    4  A    between atoms: N_17  and  C_18
REMARK    5  A    between atoms: C_18  and  N_20
REMARK    6  A    between atoms: N_20  and  C_21
REMARK    7  A    between atoms: C_30  and  O_31
REMARK                            x       y       z     vdW  Elec       q    Type
REMARK                         _______ _______ _______ _____ _____    ______ ____
ROOT
ATOM      1  C   UNL     1       7.205   2.338  -0.545  0.00  0.00    +0.285 C 
ATOM      2  O   UNL     1       7.918   3.295  -0.785  0.00  0.00    -0.266 OA
ATOM      3  N   UNL     1       7.756   1.129  -0.314  0.00  0.00    -0.261 N 
ATOM      4  H   UNL     1       7.188   0.366  -0.123  0.00  0.00    +0.157 HD
ENDROOT
BRANCH   1   8
ATOM      5  C   UNL     1       3.612   2.039  -0.304  0.00  0.00    +0.136 A 
ATOM      6  C   UNL     1       3.701   3.370  -0.593  0.00  0.00    +0.050 A 
ATOM      7  C   UNL     1       5.060   3.672  -0.725  0.00  0.00    +0.055 A 
ATOM      8  C   UNL     1       5.751   2.499  -0.508  0.00  0.00    +0.190 A 
ATOM      9  O   UNL     1       4.852   1.525  -0.250  0.00  0.00    -0.450 OA
BRANCH   5  12
ATOM     10  C   UNL     1      -0.039   1.233   0.042  0.00  0.00    +0.003 A 
ATOM     11  C   UNL     1       1.127   1.940  -0.167  0.00  0.00    +0.012 A 
ATOM     12  C   UNL     1       2.359   1.288  -0.082  0.00  0.00    +0.019 A 
ATOM     13  C   UNL     1       2.401  -0.076   0.214  0.00  0.00    +0.044 A 
ATOM     14  C   UNL     1       1.228  -0.770   0.420  0.00  0.00    +0.127 A 
ATOM     15  C   UNL     1       0.010  -0.118   0.334  0.00  0.00    +0.033 A 
BRANCH  14  16
ATOM     16  N   UNL     1       1.270  -2.216   0.732  0.00  0.00    +0.056 N 
ATOM     17  O   UNL     1       2.333  -2.788   0.807  0.00  0.00    -0.126 OA
ATOM     18  O   UNL     1       0.243  -2.827   0.913  0.00  0.00    -0.126 OA
ENDBRANCH  14  16
ENDBRANCH   5  12
ENDBRANCH   1   8
BRANCH   3  19
ATOM     19  C   UNL     1       9.095   0.981  -0.349  0.00  0.00    +0.141 C 
ATOM     20  S   UNL     1      10.097   2.328  -0.686  0.00  0.00    -0.018 S 
BRANCH  19  21
ATOM     21  N   UNL     1       9.646  -0.227  -0.117  0.00  0.00    -0.296 N 
ATOM     22  H   UNL     1       9.083  -0.976   0.135  0.00  0.00    +0.154 HD
BRANCH  21  23
ATOM     23  C   UNL     1      11.025  -0.401  -0.241  0.00  0.00    +0.040 A 
ATOM     24  C   UNL     1      11.894   0.496   0.342  0.00  0.00    +0.024 A 
ATOM     25  C   UNL     1      13.271   0.332   0.224  0.00  0.00    +0.003 A 
ATOM     26  C   UNL     1      13.797  -0.716  -0.469  0.00  0.00    +0.012 A 
ATOM     27  C   UNL     1      12.945  -1.652  -1.077  0.00  0.00    +0.025 A 
ATOM     28  C   UNL     1      11.543  -1.500  -0.959  0.00  0.00    +0.007 A 
ATOM     29  C   UNL     1      10.693  -2.440  -1.564  0.00  0.00    +0.010 A 
ATOM     30  C   UNL     1      11.224  -3.489  -2.250  0.00  0.00    +0.004 A 
ATOM     31  C   UNL     1      12.602  -3.648  -2.364  0.00  0.00    +0.046 A 
ATOM     32  C   UNL     1      13.462  -2.747  -1.801  0.00  0.00    +0.125 A 
BRANCH  32  33
ATOM     33  O   UNL     1      14.804  -2.915  -1.922  0.00  0.00    -0.506 OA
ATOM     34  H   UNL     1      15.198  -3.449  -1.218  0.00  0.00    +0.292 HD
ENDBRANCH  32  33
ENDBRANCH  21  23
ENDBRANCH  19  21
ENDBRANCH   3  19
TORSDOF 7
