REMARK  Name = ZINC37371367
REMARK  3 active torsions:
REMARK  status: ('A' for Active; 'I' for Inactive)
REMARK    1  A    between atoms: C_6  and  C_7
REMARK    2  A    between atoms: C_7  and  C_9
REMARK    3  A    between atoms: C_7  and  N_17
REMARK                            x       y       z     vdW  Elec       q    Type
REMARK                         _______ _______ _______ _____ _____    ______ ____
ROOT
ATOM      1  C   UNL     1      -1.294  -0.773   0.011  0.00  0.00    -0.013 C 
ENDROOT
BRANCH   1   7
ATOM      2  C   UNL     1      -0.017   1.378   0.010  0.00  0.00    +0.006 A 
ATOM      3  C   UNL     1       1.169   2.091   0.002  0.00  0.00    +0.048 A 
ATOM      4  C   UNL     1       2.378   1.419  -0.013  0.00  0.00    +0.142 A 
ATOM      5  C   UNL     1       2.397   0.025  -0.021  0.00  0.00    +0.076 A 
ATOM      6  C   UNL     1       1.207  -0.684  -0.013  0.00  0.00    +0.029 A 
ATOM      7  C   UNL     1       0.002  -0.004   0.002  0.00  0.00    -0.056 A 
ATOM      8  N   UNL     1       3.629  -0.644  -0.038  0.00  0.00    -0.280 N 
ATOM      9  C   UNL     1       4.751   0.043   0.269  0.00  0.00    +0.255 C 
ATOM     10  O   UNL     1       5.831  -0.507   0.231  0.00  0.00    -0.272 OA
ATOM     11  C   UNL     1       4.655   1.496   0.659  0.00  0.00    +0.325 C 
ATOM     12  O   UNL     1       3.552   2.104  -0.020  0.00  0.00    -0.481 OA
ATOM     13  H   UNL     1       3.675  -1.586  -0.267  0.00  0.00    +0.155 HD
ENDBRANCH   1   7
BRANCH   1  14
ATOM     14  C   UNL     1      -1.838  -0.825   1.416  0.00  0.00    -0.056 A 
ATOM     15  C   UNL     1      -2.523   0.260   1.931  0.00  0.00    +0.004 A 
ATOM     16  C   UNL     1      -3.022   0.214   3.219  0.00  0.00    +0.021 A 
ATOM     17  C   UNL     1      -2.836  -0.918   3.993  0.00  0.00    +0.059 A 
ATOM     18  C   UNL     1      -2.150  -2.003   3.477  0.00  0.00    +0.059 A 
ATOM     19  C   UNL     1      -1.656  -1.958   2.185  0.00  0.00    +0.023 A 
ATOM     20 CL   UNL     1      -1.915  -3.424   4.447  0.00  0.00    -0.082 Cl
ATOM     21 CL   UNL     1      -3.462  -0.976   5.612  0.00  0.00    -0.082 Cl
ENDBRANCH   1  14
BRANCH   1  22
ATOM     22  N   UNL     1      -2.265  -0.106  -0.866  0.00  0.00    +0.385 N 
ATOM     23  H   UNL     1      -1.901  -0.071  -1.806  0.00  0.00    -0.089 HD
ATOM     24  H   UNL     1      -3.133  -0.620  -0.860  0.00  0.00    -0.089 HD
ATOM     25  H   UNL     1      -2.429   0.833  -0.534  0.00  0.00    -0.089 HD
ENDBRANCH   1  22
TORSDOF 3
