REMARK  Name = ZINC01784089
REMARK  7 active torsions:
REMARK  status: ('A' for Active; 'I' for Inactive)
REMARK    1  A    between atoms: C_1  and  C_2
REMARK    2  A    between atoms: C_3  and  C_29
REMARK    3  A    between atoms: N_9  and  C_12
REMARK    4  A    between atoms: C_12  and  C_13
REMARK    5  A    between atoms: N_15  and  N_16
REMARK    6  A    between atoms: C_17  and  C_18
REMARK    7  A    between atoms: C_27  and  O_28
REMARK                            x       y       z     vdW  Elec       q    Type
REMARK                         _______ _______ _______ _____ _____    ______ ____
ROOT
ATOM      1  C   UNL     1      -1.363  -0.503   5.477  0.00  0.00    +0.252 C 
ATOM      2  O   UNL     1      -2.288  -0.780   4.742  0.00  0.00    -0.272 OA
ATOM      3  N   UNL     1      -1.604  -0.064   6.728  0.00  0.00    -0.206 N 
ATOM      4  H   UNL     1      -0.864   0.158   7.316  0.00  0.00    +0.177 HD
ENDROOT
BRANCH   3   5
ATOM      5  N   UNL     1      -2.923   0.074   7.180  0.00  0.00    -0.188 NA
ATOM      6  C   UNL     1      -3.155   0.498   8.386  0.00  0.00    +0.142 C 
BRANCH   6   7
ATOM      7  C   UNL     1      -4.539   0.643   8.860  0.00  0.00    +0.044 A 
ATOM      8  C   UNL     1      -4.819   1.124  10.212  0.00  0.00    -0.006 A 
ATOM      9  C   UNL     1      -3.787   1.462  11.096  0.00  0.00    +0.009 A 
ATOM     10  C   UNL     1      -4.090   1.907  12.348  0.00  0.00    +0.001 A 
ATOM     11  C   UNL     1      -5.415   2.032  12.761  0.00  0.00    +0.001 A 
ATOM     12  C   UNL     1      -6.443   1.712  11.927  0.00  0.00    +0.008 A 
ATOM     13  C   UNL     1      -6.167   1.249  10.629  0.00  0.00    -0.017 A 
ATOM     14  C   UNL     1      -7.202   0.911   9.740  0.00  0.00    +0.012 A 
ATOM     15  C   UNL     1      -6.924   0.465   8.486  0.00  0.00    +0.046 A 
ATOM     16  C   UNL     1      -5.614   0.329   8.029  0.00  0.00    +0.126 A 
BRANCH  16  17
ATOM     17  O   UNL     1      -5.383  -0.115   6.766  0.00  0.00    -0.506 OA
ATOM     18  H   UNL     1      -5.301  -1.076   6.696  0.00  0.00    +0.292 HD
ENDBRANCH  16  17
ENDBRANCH   6   7
ENDBRANCH   3   5
BRANCH   1  19
ATOM     19  C   UNL     1       0.056  -0.652   4.991  0.00  0.00    +0.223 C 
BRANCH  19  28
ATOM     20  C   UNL     1      -0.018   1.503   0.010  0.00  0.00    +0.045 C 
ATOM     21  C   UNL     1       0.002  -0.004   0.002  0.00  0.00    -0.026 A 
ATOM     22  C   UNL     1       0.006  -0.677  -1.160  0.00  0.00    -0.008 A 
ATOM     23  S   UNL     1       0.032  -2.385  -0.648  0.00  0.00    -0.073 S 
ATOM     24  C   UNL     1       0.037  -2.144   1.110  0.00  0.00    +0.116 A 
ATOM     25  C   UNL     1       0.024  -0.745   1.250  0.00  0.00    +0.075 A 
ATOM     26  C   UNL     1       0.029  -0.257   2.597  0.00  0.00    +0.263 A 
ATOM     27  O   UNL     1       0.014   0.942   2.821  0.00  0.00    -0.267 OA
ATOM     28  N   UNL     1       0.051  -1.142   3.611  0.00  0.00    -0.290 N 
ATOM     29  C   UNL     1       0.068  -2.480   3.380  0.00  0.00    +0.203 A 
ATOM     30  N   UNL     1       0.053  -2.956   2.163  0.00  0.00    -0.230 NA
ATOM     31  C   UNL     1      -0.009  -0.122  -2.561  0.00  0.00    +0.052 C 
ENDBRANCH  19  28
ENDBRANCH   1  19
TORSDOF 5
