REMARK  Name = ZINC20286981
REMARK  7 active torsions:
REMARK  status: ('A' for Active; 'I' for Inactive)
REMARK    1  A    between atoms: C_4  and  C_7
REMARK    2  A    between atoms: N_20  and  N_21
REMARK    3  A    between atoms: C_22  and  C_24
REMARK    4  A    between atoms: C_24  and  C_25
REMARK    5  A    between atoms: C_25  and  C_26
REMARK    6  A    between atoms: N_28  and  C_29
REMARK    7  A    between atoms: C_29  and  C_30
REMARK                            x       y       z     vdW  Elec       q    Type
REMARK                         _______ _______ _______ _____ _____    ______ ____
ROOT
ATOM      1  C   UNL     1       3.660   2.164  -0.022  0.00  0.00    +0.182 A 
ATOM      2  N   UNL     1       3.770   3.497  -0.016  0.00  0.00    -0.206 NA
ATOM      3  C   UNL     1       5.040   3.837  -0.025  0.00  0.00    +0.169 A 
ATOM      4  C   UNL     1       5.761   5.115  -0.025  0.00  0.00    +0.045 A 
ATOM      5  C   UNL     1       5.096   6.339  -0.012  0.00  0.00    +0.014 A 
ATOM      6  C   UNL     1       5.824   7.508  -0.012  0.00  0.00    +0.001 A 
ATOM      7  C   UNL     1       7.212   7.476  -0.023  0.00  0.00    +0.002 A 
ATOM      8  C   UNL     1       7.889   6.279  -0.036  0.00  0.00    +0.028 A 
ATOM      9  C   UNL     1       7.174   5.078  -0.037  0.00  0.00    +0.078 A 
ATOM     10  N   UNL     1       7.807   3.880  -0.049  0.00  0.00    -0.213 NA
ATOM     11  C   UNL     1       7.150   2.749  -0.051  0.00  0.00    +0.235 A 
ATOM     12  N   UNL     1       5.784   2.686  -0.037  0.00  0.00    -0.180 N 
ATOM     13  N   UNL     1       4.864   1.629  -0.030  0.00  0.00    -0.142 NA
ATOM     14  N   UNL     1       7.862   1.573  -0.063  0.00  0.00    -0.232 N 
ATOM     15  H   UNL     1       7.333   0.609  -0.065  0.00  0.00    +0.173 HD
ENDROOT
BRANCH   1  19
ATOM     16  C   UNL     1       0.002  -0.004   0.002  0.00  0.00    +0.000 A 
ATOM     17  C   UNL     1      -0.017   1.379   0.010  0.00  0.00    +0.001 A 
ATOM     18  C   UNL     1       1.168   2.088   0.002  0.00  0.00    +0.011 A 
ATOM     19  C   UNL     1       2.384   1.408  -0.014  0.00  0.00    +0.021 A 
ATOM     20  C   UNL     1       2.397   0.014  -0.021  0.00  0.00    +0.011 A 
ATOM     21  C   UNL     1       1.206  -0.684  -0.013  0.00  0.00    +0.001 A 
ENDBRANCH   1  19
BRANCH  14  22
ATOM     22  N   UNL     1       9.263   1.604  -0.075  0.00  0.00    -0.234 N 
ATOM     23  C   UNL     1       9.962   0.451  -0.088  0.00  0.00    +0.230 C 
ATOM     24  O   UNL     1       9.378  -0.612  -0.089  0.00  0.00    -0.274 OA
ATOM     25  H   UNL     1       9.793   2.568  -0.074  0.00  0.00    +0.173 HD
BRANCH  23  26
ATOM     26  C   UNL     1      11.468   0.483  -0.100  0.00  0.00    +0.106 C 
BRANCH  26  27
ATOM     27  C   UNL     1      12.009  -0.948  -0.113  0.00  0.00    +0.105 C 
BRANCH  27  28
ATOM     28  C   UNL     1      13.516  -0.915  -0.126  0.00  0.00    +0.214 C 
ATOM     29  O   UNL     1      14.100   0.148  -0.124  0.00  0.00    -0.276 OA
ATOM     30  N   UNL     1      14.214  -2.068  -0.138  0.00  0.00    -0.311 N 
ATOM     31  H   UNL     1      13.685  -3.032  -0.140  0.00  0.00    +0.149 HD
BRANCH  30  32
ATOM     32  C   UNL     1      15.679  -2.036  -0.151  0.00  0.00    +0.141 C 
BRANCH  32  33
ATOM     33  C   UNL     1      16.212  -3.446  -0.163  0.00  0.00    -0.012 A 
ATOM     34  C   UNL     1      16.666  -4.024   1.007  0.00  0.00    +0.006 A 
ATOM     35  C   UNL     1      17.150  -5.319   0.996  0.00  0.00    +0.000 A 
ATOM     36  C   UNL     1      17.190  -6.033  -0.187  0.00  0.00    +0.001 A 
ATOM     37  C   UNL     1      16.741  -5.454  -1.359  0.00  0.00    +0.020 A 
ATOM     38  C   UNL     1      16.252  -4.160  -1.348  0.00  0.00    +0.046 A 
ATOM     39 CL   UNL     1      15.688  -3.432  -2.820  0.00  0.00    -0.083 Cl
ENDBRANCH  32  33
ENDBRANCH  30  32
ENDBRANCH  27  28
ENDBRANCH  26  27
ENDBRANCH  23  26
ENDBRANCH  14  22
TORSDOF 7
