REMARK  Name = ZINC21231750
REMARK  11 active torsions:
REMARK  status: ('A' for Active; 'I' for Inactive)
REMARK    1  A    between atoms: C_1  and  C_2
REMARK    2  A    between atoms: C_2  and  C_3
REMARK    3  A    between atoms: C_2  and  C_4
REMARK    4  A    between atoms: C_4  and  C_5
REMARK    5  A    between atoms: C_5  and  N_6
REMARK    6  A    between atoms: C_15  and  S_16
REMARK    7  A    between atoms: S_16  and  C_17
REMARK    8  A    between atoms: C_17  and  C_19
REMARK    9  A    between atoms: C_17  and  C_22
REMARK   10  A    between atoms: C_19  and  C_20
REMARK   11  A    between atoms: C_19  and  C_21
REMARK                            x       y       z     vdW  Elec       q    Type
REMARK                         _______ _______ _______ _____ _____    ______ ____
ROOT
ATOM      1  N   UNL     1       1.153   1.913   0.108  0.00  0.00    -0.287 N 
ATOM      2  C   UNL     1       0.024   1.219   0.344  0.00  0.00    +0.263 A 
ATOM      3  O   UNL     1       0.028   0.001   0.303  0.00  0.00    -0.267 OA
ATOM      4  C   UNL     1      -1.182   1.931   0.636  0.00  0.00    +0.076 A 
ATOM      5  C   UNL     1      -2.510   1.386   0.927  0.00  0.00    -0.023 A 
ATOM      6  C   UNL     1      -3.494   2.272   1.180  0.00  0.00    -0.004 A 
ATOM      7  S   UNL     1      -2.723   3.863   1.055  0.00  0.00    -0.073 S 
ATOM      8  C   UNL     1      -1.075   3.332   0.663  0.00  0.00    +0.117 A 
ATOM      9  N   UNL     1       0.071   3.957   0.421  0.00  0.00    -0.216 NA
ATOM     10  C   UNL     1       1.166   3.277   0.149  0.00  0.00    +0.173 A 
ATOM     11  C   UNL     1      -4.927   1.971   1.497  0.00  0.00    +0.043 C 
ATOM     12  C   UNL     1      -5.207   0.507   1.131  0.00  0.00    +0.005 C 
ATOM     13  C   UNL     1      -4.089  -0.366   1.708  0.00  0.00    +0.005 C 
ATOM     14  C   UNL     1      -2.788  -0.115   0.944  0.00  0.00    +0.037 C 
ENDROOT
BRANCH   1  15
ATOM     15  C   UNL     1       2.390   1.191  -0.198  0.00  0.00    +0.127 C 
BRANCH  15  16
ATOM     16  C   UNL     1       2.499   0.985  -1.710  0.00  0.00    +0.025 C 
BRANCH  16  18
ATOM     17  C   UNL     1       3.841  -0.085  -3.526  0.00  0.00    +0.007 C 
ATOM     18  C   UNL     1       3.792   0.231  -2.029  0.00  0.00    -0.016 C 
ATOM     19  C   UNL     1       4.995   1.097  -1.651  0.00  0.00    +0.007 C 
ENDBRANCH  16  18
ENDBRANCH  15  16
ENDBRANCH   1  15
BRANCH  10  20
ATOM     20  S   UNL     1       2.669   4.141  -0.166  0.00  0.00    -0.075 S 
BRANCH  20  21
ATOM     21  C   UNL     1       2.067   5.847  -0.122  0.00  0.00    +0.143 C 
BRANCH  21  22
ATOM     22  C   UNL     1       1.172   6.094  -1.310  0.00  0.00    +0.234 C 
ATOM     23  O   UNL     1       1.238   5.370  -2.280  0.00  0.00    -0.274 OA
ATOM     24  N   UNL     1       0.299   7.120  -1.294  0.00  0.00    -0.239 N 
ATOM     25  C   UNL     1      -0.501   7.341  -2.356  0.00  0.00    +0.303 C 
ATOM     26  O   UNL     1      -0.435   6.615  -3.328  0.00  0.00    -0.253 OA
ATOM     27  N   UNL     1      -1.375   8.368  -2.340  0.00  0.00    -0.313 N 
ATOM     28  H   UNL     1       0.239   7.778  -0.414  0.00  0.00    +0.159 HD
ATOM     29  H   UNL     1      -2.027   8.548  -3.207  0.00  0.00    +0.146 HD
ATOM     30  H   UNL     1      -1.435   9.025  -1.460  0.00  0.00    +0.146 HD
ENDBRANCH  21  22
BRANCH  21  31
ATOM     31  C   UNL     1       3.255   6.809  -0.170  0.00  0.00    +0.005 C 
ATOM     32  C   UNL     1       2.744   8.252  -0.163  0.00  0.00    +0.009 C 
ATOM     33  C   UNL     1       4.147   6.579   1.051  0.00  0.00    +0.009 C 
ENDBRANCH  21  31
ENDBRANCH  20  21
ENDBRANCH  10  20
TORSDOF 7
