REMARK  Name = ZINC20500647
REMARK  12 active torsions:
REMARK  status: ('A' for Active; 'I' for Inactive)
REMARK    1  A    between atoms: C_1  and  C_2
REMARK    2  A    between atoms: C_2  and  N_3
REMARK    3  A    between atoms: C_4  and  C_23
REMARK    4  A    between atoms: C_6  and  C_13
REMARK    5  A    between atoms: C_9  and  C_10
REMARK    6  A    between atoms: C_9  and  C_11
REMARK    7  A    between atoms: C_11  and  O_12
REMARK    8  A    between atoms: C_13  and  N_14
REMARK    9  A    between atoms: N_14  and  C_15
REMARK   10  A    between atoms: C_15  and  C_16
REMARK   11  A    between atoms: C_19  and  C_21
REMARK   12  A    between atoms: C_21  and  O_22
REMARK                            x       y       z     vdW  Elec       q    Type
REMARK                         _______ _______ _______ _____ _____    ______ ____
ROOT
ATOM      1  N   UNL     1       0.496   1.940  -5.557  0.00  0.00    +0.389 N 
ATOM      2  C   UNL     1      -0.532   1.137  -4.846  0.00  0.00    -0.035 C 
ATOM      3  C   UNL     1      -0.712   1.849  -3.489  0.00  0.00    -0.039 C 
ATOM      4  C   UNL     1      -0.260   3.303  -3.736  0.00  0.00    -0.010 C 
ATOM      5  C   UNL     1       0.156   3.347  -5.222  0.00  0.00    -0.044 C 
ATOM      6  C   UNL     1      -1.007   3.835  -6.087  0.00  0.00    -0.007 C 
ATOM      7  H   UNL     1       1.523   1.670  -5.268  0.00  0.00    -0.080 HD
ENDROOT
BRANCH   2   8
ATOM      8  C   UNL     1      -0.048  -0.275  -4.639  0.00  0.00    -0.061 A 
ATOM      9  C   UNL     1       1.291  -0.518  -4.392  0.00  0.00    +0.003 A 
ATOM     10  C   UNL     1       1.734  -1.812  -4.196  0.00  0.00    +0.020 A 
ATOM     11  C   UNL     1       0.840  -2.866  -4.258  0.00  0.00    +0.041 A 
ATOM     12  C   UNL     1      -0.498  -2.623  -4.511  0.00  0.00    +0.020 A 
ATOM     13  C   UNL     1      -0.942  -1.328  -4.701  0.00  0.00    +0.003 A 
ATOM     14 CL   UNL     1       1.397  -4.493  -4.020  0.00  0.00    -0.084 Cl
ENDBRANCH   2   8
BRANCH   1  16
ATOM     15  C   UNL     1       0.831   0.270  -7.316  0.00  0.00    -0.017 C 
ATOM     16  C   UNL     1       0.431   1.714  -7.007  0.00  0.00    -0.081 C 
ENDBRANCH   1  16
BRANCH   5  17
ATOM     17  C   UNL     1       1.376   4.250  -5.411  0.00  0.00    +0.143 C 
BRANCH  17  18
ATOM     18  O   UNL     1       1.027   5.597  -5.083  0.00  0.00    -0.396 OA
ATOM     19  H   UNL     1       1.781   6.394  -5.160  0.00  0.00    +0.209 HD
ENDBRANCH  17  18
ENDBRANCH   5  17
BRANCH   3  20
ATOM     20  C   UNL     1       0.168   1.192  -2.423  0.00  0.00    -0.080 C 
BRANCH  20  21
ATOM     21  N   UNL     1      -0.106   1.805  -1.116  0.00  0.00    +0.384 N 
ATOM     22  H   UNL     1       0.115   2.881  -1.162  0.00  0.00    -0.085 HD
ATOM     23  H   UNL     1      -1.166   1.659  -0.858  0.00  0.00    -0.085 HD
BRANCH  21  24
ATOM     24  C   UNL     1       0.723   1.198  -0.066  0.00  0.00    -0.007 C 
BRANCH  24  25
ATOM     25  C   UNL     1       0.414   1.850   1.257  0.00  0.00    +0.089 A 
ATOM     26  C   UNL     1      -0.528   1.452   2.130  0.00  0.00    +0.043 A 
ATOM     27  C   UNL     1      -0.471   2.340   3.228  0.00  0.00    +0.047 A 
ATOM     28  C   UNL     1       0.497   3.233   2.957  0.00  0.00    +0.130 A 
ATOM     29  O   UNL     1       1.030   2.932   1.762  0.00  0.00    -0.464 OA
BRANCH  28  30
ATOM     30  C   UNL     1       0.913   4.379   3.844  0.00  0.00    +0.230 C 
BRANCH  30  31
ATOM     31  O   UNL     1       1.948   3.945   4.728  0.00  0.00    -0.387 OA
ATOM     32  H   UNL     1       2.381   4.648   5.455  0.00  0.00    +0.210 HD
ENDBRANCH  30  31
ENDBRANCH  28  30
ENDBRANCH  24  25
ENDBRANCH  21  24
ENDBRANCH  20  21
ENDBRANCH   3  20
TORSDOF 10
