REMARK  Name = ZINC02295507
REMARK  9 active torsions:
REMARK  status: ('A' for Active; 'I' for Inactive)
REMARK    1  A    between atoms: C_1  and  C_2
REMARK    2  A    between atoms: C_2  and  C_3
REMARK    3  A    between atoms: C_3  and  C_4
REMARK    4  A    between atoms: C_4  and  C_5
REMARK    5  A    between atoms: C_5  and  C_6
REMARK    6  A    between atoms: C_6  and  S_7
REMARK    7  A    between atoms: S_7  and  C_8
REMARK    8  A    between atoms: C_25  and  C_27
REMARK    9  A    between atoms: C_25  and  C_28
REMARK                            x       y       z     vdW  Elec       q    Type
REMARK                         _______ _______ _______ _____ _____    ______ ____
ROOT
ATOM      1  C   UNL     1       0.229   1.038   2.736  0.00  0.00    +0.114 A 
ATOM      2  C   UNL     1      -0.052   1.214   4.084  0.00  0.00    +0.072 A 
ATOM      3  C   UNL     1       0.730   0.596   5.068  0.00  0.00    +0.092 A 
ATOM      4  C   UNL     1       0.334   0.858   6.464  0.00  0.00    +0.035 A 
ATOM      5  C   UNL     1       0.947   0.363   7.641  0.00  0.00    -0.024 A 
ATOM      6  C   UNL     1       0.445   0.711   8.856  0.00  0.00    +0.020 A 
ATOM      7  C   UNL     1      -0.673   1.549   8.934  0.00  0.00    +0.105 A 
ATOM      8  C   UNL     1      -0.782   1.694   6.640  0.00  0.00    +0.089 A 
ATOM      9  S   UNL     1      -1.280   2.116   4.989  0.00  0.00    -0.066 S 
ATOM     10  N   UNL     1      -1.187   1.899  10.175  0.00  0.00    -0.312 N 
ATOM     11  C   UNL     1      -2.569   1.424  10.326  0.00  0.00    +0.134 C 
ATOM     12  C   UNL     1      -3.075   1.778  11.727  0.00  0.00    +0.178 C 
ATOM     13  O   UNL     1      -2.963   3.190  11.926  0.00  0.00    -0.377 OA
ATOM     14  C   UNL     1      -1.630   3.687  11.786  0.00  0.00    +0.178 C 
ATOM     15  C   UNL     1      -1.109   3.352  10.386  0.00  0.00    +0.134 C 
ATOM     16  C   UNL     1       1.069   0.217  10.136  0.00  0.00    +0.199 C 
ATOM     17  O   UNL     1       1.932  -0.888   9.870  0.00  0.00    -0.369 OA
ATOM     18  C   UNL     1       2.887  -0.623   8.836  0.00  0.00    +0.068 C 
ATOM     19  C   UNL     1       2.142  -0.541   7.501  0.00  0.00    +0.070 C 
ATOM     20  C   UNL     1       3.917  -1.752   8.783  0.00  0.00    +0.041 C 
ATOM     21  C   UNL     1       3.592   0.706   9.114  0.00  0.00    +0.041 C 
ATOM     22  N   UNL     1       1.754  -0.166   4.622  0.00  0.00    -0.234 NA
ATOM     23  C   UNL     1       1.990  -0.309   3.342  0.00  0.00    +0.223 A 
ATOM     24  N   UNL     1       1.260   0.261   2.401  0.00  0.00    -0.228 NA
ATOM     25  N   UNL     1      -1.306   2.055   7.838  0.00  0.00    -0.337 N 
ATOM     26  H   UNL     1      -2.125   2.669   7.914  0.00  0.00    +0.168 HD
ENDROOT
BRANCH   1  27
ATOM     27  S   UNL     1      -0.755   1.817   1.499  0.00  0.00    -0.105 S 
BRANCH  27  28
ATOM     28  C   UNL     1       0.085   1.222   0.010  0.00  0.00    +0.076 C 
BRANCH  28  29
ATOM     29  C   UNL     1      -0.615   1.786  -1.229  0.00  0.00    +0.011 C 
BRANCH  29  30
ATOM     30  C   UNL     1       0.095   1.284  -2.488  0.00  0.00    +0.001 C 
BRANCH  30  31
ATOM     31  C   UNL     1      -0.605   1.847  -3.727  0.00  0.00    -0.000 C 
BRANCH  31  33
ATOM     32  C   UNL     1      -0.595   1.908  -6.224  0.00  0.00    +0.004 C 
ATOM     33  C   UNL     1       0.105   1.345  -4.986  0.00  0.00    -0.003 C 
ENDBRANCH  31  33
ENDBRANCH  30  31
ENDBRANCH  29  30
ENDBRANCH  28  29
ENDBRANCH  27  28
ENDBRANCH   1  27
TORSDOF 6
