REMARK  Name = ZINC02708724
REMARK  8 active torsions:
REMARK  status: ('A' for Active; 'I' for Inactive)
REMARK    1  A    between atoms: C_1  and  O_2
REMARK    2  A    between atoms: O_2  and  C_3
REMARK    3  A    between atoms: C_6  and  C_11
REMARK    4  A    between atoms: C_8  and  O_9
REMARK    5  A    between atoms: O_9  and  C_10
REMARK    6  A    between atoms: N_14  and  C_15
REMARK    7  A    between atoms: C_18  and  S_21
REMARK    8  A    between atoms: S_21  and  N_24
REMARK                            x       y       z     vdW  Elec       q    Type
REMARK                         _______ _______ _______ _____ _____    ______ ____
ROOT
ATOM      1  C   UNL     1      -6.013  -0.040   1.859  0.00  0.00    +0.026 C 
ATOM      2  C   UNL     1      -6.639  -0.741   0.881  0.00  0.00    +0.058 C 
ATOM      3  C   UNL     1      -8.048  -1.174   0.793  0.00  0.00    +0.140 C 
ATOM      4  N   UNL     1      -8.921  -0.902   1.739  0.00  0.00    -0.231 NA
ATOM      5  N   UNL     1      -8.389  -1.871  -0.323  0.00  0.00    -0.260 N 
ATOM      6  C   UNL     1      -7.476  -2.135  -1.277  0.00  0.00    +0.282 C 
ATOM      7  O   UNL     1      -7.632  -2.741  -2.320  0.00  0.00    -0.262 OA
ATOM      8  S   UNL     1      -5.984  -1.381  -0.653  0.00  0.00    -0.028 S 
ATOM      9  H   UNL     1      -9.302  -2.180  -0.434  0.00  0.00    +0.157 HD
ENDROOT
BRANCH   1  13
ATOM     10  C   UNL     1      -2.036   1.321   1.274  0.00  0.00    +0.162 A 
ATOM     11  C   UNL     1      -2.741   0.764   0.215  0.00  0.00    +0.050 A 
ATOM     12  C   UNL     1      -4.032   0.321   0.400  0.00  0.00    +0.012 A 
ATOM     13  C   UNL     1      -4.636   0.432   1.658  0.00  0.00    -0.020 A 
ATOM     14  C   UNL     1      -3.924   0.994   2.725  0.00  0.00    +0.057 A 
ATOM     15  C   UNL     1      -2.628   1.430   2.531  0.00  0.00    +0.162 A 
BRANCH  10  17
ATOM     16  C   UNL     1      -0.214   1.608  -0.227  0.00  0.00    +0.277 C 
ATOM     17  O   UNL     1      -0.762   1.756   1.085  0.00  0.00    -0.491 OA
ENDBRANCH  10  17
BRANCH  15  18
ATOM     18  O   UNL     1      -1.931   1.971   3.566  0.00  0.00    -0.491 OA
ATOM     19  C   UNL     1      -2.599   2.052   4.826  0.00  0.00    +0.277 C 
ENDBRANCH  15  18
ENDBRANCH   1  13
BRANCH   4  20
ATOM     20  C   UNL     1     -10.214  -1.323   1.616  0.00  0.00    +0.066 A 
ATOM     21  C   UNL     1     -10.894  -1.160   0.406  0.00  0.00    +0.030 A 
ATOM     22  C   UNL     1     -12.198  -1.592   0.288  0.00  0.00    +0.030 A 
ATOM     23  C   UNL     1     -12.838  -2.177   1.367  0.00  0.00    +0.105 A 
ATOM     24  C   UNL     1     -12.173  -2.337   2.570  0.00  0.00    +0.030 A 
ATOM     25  C   UNL     1     -10.867  -1.914   2.702  0.00  0.00    +0.030 A 
BRANCH  23  26
ATOM     26  S   UNL     1     -14.506  -2.720   1.208  0.00  0.00    +0.056 S 
ATOM     27  O   UNL     1     -14.727  -2.954  -0.176  0.00  0.00    -0.153 OA
ATOM     28  O   UNL     1     -14.700  -3.727   2.192  0.00  0.00    -0.153 OA
BRANCH  26  29
ATOM     29  N   UNL     1     -15.478  -1.449   1.634  0.00  0.00    -0.204 NA
ATOM     30  H   UNL     1     -15.082  -0.605   1.905  0.00  0.00    +0.144 HD
ATOM     31  H   UNL     1     -16.442  -1.547   1.613  0.00  0.00    +0.144 HD
ENDBRANCH  26  29
ENDBRANCH  23  26
ENDBRANCH   4  20
TORSDOF 6
