REMARK  Name = ZINC39431160
REMARK  6 active torsions:
REMARK  status: ('A' for Active; 'I' for Inactive)
REMARK    1  A    between atoms: C_1  and  C_2
REMARK    2  A    between atoms: C_2  and  C_4
REMARK    3  A    between atoms: C_2  and  S_16
REMARK    4  A    between atoms: S_16  and  C_17
REMARK    5  A    between atoms: C_21  and  C_31
REMARK    6  A    between atoms: N_23  and  C_24
REMARK                            x       y       z     vdW  Elec       q    Type
REMARK                         _______ _______ _______ _____ _____    ______ ____
ROOT
ATOM      1  C   UNL     1      -2.347  -0.089   1.611  0.00  0.00    +0.274 C 
ATOM      2  N   UNL     1      -1.513  -0.624   2.688  0.00  0.00    -0.180 NA
ATOM      3  N   UNL     1      -1.018   0.272   3.370  0.00  0.00    -0.286 N 
ATOM      4  C   UNL     1      -1.415   1.599   2.896  0.00  0.00    +0.218 C 
ATOM      5  N   UNL     1      -2.295   1.379   1.734  0.00  0.00    -0.273 N 
ATOM      6  H   UNL     1      -0.435   0.117   4.130  0.00  0.00    +0.185 HD
ENDROOT
BRANCH   5   7
ATOM      7  C   UNL     1      -2.930   2.335   0.936  0.00  0.00    +0.034 A 
ATOM      8  C   UNL     1      -2.668   3.686   1.128  0.00  0.00    +0.026 A 
ATOM      9  C   UNL     1      -3.296   4.629   0.339  0.00  0.00    +0.040 A 
ATOM     10  C   UNL     1      -4.186   4.229  -0.644  0.00  0.00    +0.124 A 
ATOM     11  C   UNL     1      -4.448   2.884  -0.838  0.00  0.00    +0.040 A 
ATOM     12  C   UNL     1      -3.819   1.937  -0.054  0.00  0.00    +0.026 A 
ATOM     13  F   UNL     1      -4.799   5.154  -1.415  0.00  0.00    -0.205 F 
ENDBRANCH   5   7
BRANCH   4  14
ATOM     14  C   UNL     1      -2.162   2.333   3.980  0.00  0.00    -0.006 A 
ATOM     15  C   UNL     1      -3.383   1.857   4.421  0.00  0.00    +0.010 A 
ATOM     16  C   UNL     1      -4.069   2.529   5.415  0.00  0.00    +0.039 A 
ATOM     17  C   UNL     1      -3.533   3.679   5.969  0.00  0.00    +0.123 A 
ATOM     18  C   UNL     1      -2.310   4.154   5.527  0.00  0.00    +0.039 A 
ATOM     19  C   UNL     1      -1.623   3.478   4.536  0.00  0.00    +0.010 A 
ATOM     20  F   UNL     1      -4.203   4.336   6.941  0.00  0.00    -0.205 F 
ENDBRANCH   4  14
BRANCH   1  21
ATOM     21  S   UNL     1      -1.690  -0.603  -0.000  0.00  0.00    -0.103 S 
BRANCH  21  23
ATOM     22  C   UNL     1      -0.023   1.566   0.021  0.00  0.00    +0.027 C 
ATOM     23  C   UNL     1       0.007   0.036  -0.006  0.00  0.00    +0.113 C 
BRANCH  23  24
ATOM     24  C   UNL     1       0.715  -0.430  -1.252  0.00  0.00    +0.123 A 
ATOM     25  N   UNL     1       1.973   0.027  -1.488  0.00  0.00    -0.309 N 
ATOM     26  H   UNL     1       2.388   0.637  -0.859  0.00  0.00    +0.170 HD
ATOM     27  C   UNL     1       2.652  -0.363  -2.592  0.00  0.00    +0.259 A 
ATOM     28  O   UNL     1       3.779   0.038  -2.816  0.00  0.00    -0.267 OA
ATOM     29  C   UNL     1       1.974  -1.290  -3.511  0.00  0.00    +0.065 A 
ATOM     30  C   UNL     1       2.585  -1.750  -4.676  0.00  0.00    +0.015 A 
ATOM     31  C   UNL     1       1.904  -2.618  -5.501  0.00  0.00    +0.001 A 
ATOM     32  C   UNL     1       0.618  -3.034  -5.182  0.00  0.00    +0.002 A 
ATOM     33  C   UNL     1      -0.003  -2.590  -4.037  0.00  0.00    +0.028 A 
ATOM     34  C   UNL     1       0.667  -1.711  -3.183  0.00  0.00    +0.078 A 
ATOM     35  N   UNL     1       0.095  -1.253  -2.042  0.00  0.00    -0.233 NA
ENDBRANCH  23  24
ENDBRANCH  21  23
ENDBRANCH   1  21
TORSDOF 5
