REMARK  Name = ZINC51095260
REMARK  5 active torsions:
REMARK  status: ('A' for Active; 'I' for Inactive)
REMARK    1  A    between atoms: C_1  and  C_2
REMARK    2  A    between atoms: C_2  and  C_4
REMARK    3  A    between atoms: C_2  and  N_10
REMARK    4  A    between atoms: C_11  and  C_13
REMARK    5  A    between atoms: N_19  and  N_20
REMARK                            x       y       z     vdW  Elec       q    Type
REMARK                         _______ _______ _______ _____ _____    ______ ____
ROOT
ATOM      1  N   UNL     1      -1.372  -0.511   0.012  0.00  0.00    -0.304 N 
ATOM      2  C   UNL     1      -2.051  -0.643  -1.145  0.00  0.00    +0.246 C 
ATOM      3  O   UNL     1      -1.522  -0.341  -2.197  0.00  0.00    -0.270 OA
ATOM      4  H   UNL     1      -1.794  -0.752   0.852  0.00  0.00    +0.150 HD
ENDROOT
BRANCH   2   5
ATOM      5  C   UNL     1      -3.435  -1.153  -1.134  0.00  0.00    +0.056 A 
ATOM      6  C   UNL     1      -4.149  -1.300  -2.334  0.00  0.00    +0.038 A 
ATOM      7  C   UNL     1      -5.431  -1.778  -2.277  0.00  0.00    +0.083 A 
ATOM      8  C   UNL     1      -5.985  -2.103  -1.039  0.00  0.00    +0.151 A 
ATOM      9  N   UNL     1      -5.288  -1.954   0.079  0.00  0.00    -0.237 NA
ATOM     10  C   UNL     1      -4.051  -1.503   0.068  0.00  0.00    +0.126 A 
ATOM     11  N   UNL     1      -7.282  -2.586  -0.976  0.00  0.00    -0.266 N 
ATOM     12 CL   UNL     1      -6.357  -1.977  -3.731  0.00  0.00    -0.080 Cl
ATOM     13  H   UNL     1      -7.798  -2.697  -1.790  0.00  0.00    +0.167 HD
BRANCH  11  14
ATOM     14  N   UNL     1      -7.834  -2.907   0.231  0.00  0.00    -0.255 NA
ATOM     15  H   UNL     1      -8.778  -3.244   0.119  0.00  0.00    +0.140 HD
ATOM     16  H   UNL     1      -7.265  -3.581   0.721  0.00  0.00    +0.140 HD
ENDBRANCH  11  14
ENDBRANCH   2   5
BRANCH   1  18
ATOM     17  C   UNL     1      -0.019   1.526   0.010  0.00  0.00    +0.033 C 
ATOM     18  C   UNL     1       0.002  -0.004   0.002  0.00  0.00    +0.107 C 
BRANCH  18  19
ATOM     19  C   UNL     1       0.731  -0.503   1.223  0.00  0.00    +0.011 A 
ATOM     20  C   UNL     1       2.009  -0.938   1.335  0.00  0.00    +0.014 A 
ATOM     21  C   UNL     1       2.471  -1.355   2.570  0.00  0.00    +0.028 A 
ATOM     22  C   UNL     1       1.629  -1.315   3.633  0.00  0.00    +0.078 A 
ATOM     23  S   UNL     1       0.136  -0.668   2.898  0.00  0.00    -0.080 S 
ATOM     24 CL   UNL     1       1.927  -1.770   5.282  0.00  0.00    -0.076 Cl
ENDBRANCH  18  19
ENDBRANCH   1  18
TORSDOF 4
