REMARK  Name = ZINC00626275
REMARK  9 active torsions:
REMARK  status: ('A' for Active; 'I' for Inactive)
REMARK    1  A    between atoms: C_1  and  C_2
REMARK    2  A    between atoms: C_2  and  O_3
REMARK    3  A    between atoms: O_3  and  C_4
REMARK    4  A    between atoms: C_4  and  C_6
REMARK    5  A    between atoms: C_7  and  C_27
REMARK    6  A    between atoms: C_11  and  C_13
REMARK    7  A    between atoms: C_16  and  O_19
REMARK    8  A    between atoms: C_23  and  C_25
REMARK    9  A    between atoms: C_23  and  C_26
REMARK                            x       y       z     vdW  Elec       q    Type
REMARK                         _______ _______ _______ _____ _____    ______ ____
ROOT
ATOM      1  C   UNL     1      -0.624   1.779   3.606  0.00  0.00    +0.065 C 
ATOM      2  C   UNL     1      -0.287   1.156   4.749  0.00  0.00    +0.016 C 
ATOM      3  N   UNL     1      -0.999   1.377   5.895  0.00  0.00    -0.321 N 
ATOM      4  C   UNL     1      -1.786   2.490   6.023  0.00  0.00    +0.016 C 
ATOM      5  C   UNL     1      -2.184   3.178   4.932  0.00  0.00    +0.024 C 
ATOM      6  C   UNL     1      -1.783   2.730   3.551  0.00  0.00    +0.092 C 
ATOM      7  C   UNL     1      -2.980   4.330   5.051  0.00  0.00    +0.162 C 
ATOM      8  O   UNL     1      -3.328   4.921   4.048  0.00  0.00    -0.292 OA
ATOM      9  C   UNL     1      -3.410   4.845   6.397  0.00  0.00    +0.086 C 
ATOM     10  C   UNL     1      -2.363   4.444   7.442  0.00  0.00    -0.023 C 
ATOM     11  C   UNL     1      -2.200   2.923   7.408  0.00  0.00    +0.058 C 
ATOM     12  C   UNL     1      -1.027   5.112   7.113  0.00  0.00    +0.011 C 
ATOM     13  C   UNL     1      -2.829   4.884   8.832  0.00  0.00    +0.011 C 
ATOM     14  C   UNL     1       0.883   0.206   4.767  0.00  0.00    +0.061 C 
ATOM     15  H   UNL     1      -0.942   0.658   6.725  0.00  0.00    +0.152 HD
ENDROOT
BRANCH   6  16
ATOM     16  C   UNL     1      -2.955   2.043   2.899  0.00  0.00    -0.035 A 
ATOM     17  C   UNL     1      -3.480   0.893   3.459  0.00  0.00    +0.008 A 
ATOM     18  C   UNL     1      -4.559   0.265   2.866  0.00  0.00    +0.046 A 
ATOM     19  C   UNL     1      -5.107   0.782   1.702  0.00  0.00    +0.117 A 
ATOM     20  C   UNL     1      -4.575   1.933   1.138  0.00  0.00    +0.046 A 
ATOM     21  C   UNL     1      -3.500   2.561   1.738  0.00  0.00    +0.008 A 
BRANCH  19  22
ATOM     22  O   UNL     1      -6.164   0.163   1.113  0.00  0.00    -0.507 OA
ATOM     23  H   UNL     1      -6.598   0.574   0.190  0.00  0.00    +0.292 HD
ENDBRANCH  19  22
ENDBRANCH   6  16
BRANCH   1  24
ATOM     24  C   UNL     1       0.133   1.538   2.436  0.00  0.00    +0.338 C 
ATOM     25  O   UNL     1       1.149   0.871   2.495  0.00  0.00    -0.245 OA
BRANCH  24  26
ATOM     26  O   UNL     1      -0.272   2.047   1.254  0.00  0.00    -0.462 OA
BRANCH  26  28
ATOM     27  C   UNL     1      -0.074   2.420  -1.126  0.00  0.00    +0.048 C 
ATOM     28  C   UNL     1       0.540   1.764   0.113  0.00  0.00    +0.229 C 
ENDBRANCH  26  28
ENDBRANCH  24  26
ENDBRANCH   1  24
TORSDOF 5
