REMARK  Name = ZINC16694235
REMARK  8 active torsions:
REMARK  status: ('A' for Active; 'I' for Inactive)
REMARK    1  A    between atoms: C_1  and  C_2
REMARK    2  A    between atoms: N_4  and  C_28
REMARK    3  A    between atoms: C_8  and  N_9
REMARK    4  A    between atoms: N_9  and  C_10
REMARK    5  A    between atoms: C_13  and  S_16
REMARK    6  A    between atoms: S_16  and  N_19
REMARK    7  A    between atoms: N_19  and  C_20
REMARK    8  A    between atoms: C_25  and  O_26
REMARK                            x       y       z     vdW  Elec       q    Type
REMARK                         _______ _______ _______ _____ _____    ______ ____
ROOT
ATOM      1  C   UNL     1       0.356  -1.241   4.990  0.00  0.00    +0.031 A 
ATOM      2  C   UNL     1       0.324   0.118   5.277  0.00  0.00    +0.025 A 
ATOM      3  C   UNL     1       0.250   0.544   6.589  0.00  0.00    +0.030 A 
ATOM      4  C   UNL     1       0.208  -0.381   7.616  0.00  0.00    +0.109 A 
ATOM      5  C   UNL     1       0.241  -1.734   7.334  0.00  0.00    +0.030 A 
ATOM      6  C   UNL     1       0.309  -2.167   6.024  0.00  0.00    +0.025 A 
ENDROOT
BRANCH   4   7
ATOM      7  S   UNL     1       0.115   0.166   9.288  0.00  0.00    +0.072 S 
ATOM      8  O   UNL     1       0.639  -0.884  10.089  0.00  0.00    -0.150 OA
ATOM      9  O   UNL     1       0.649   1.483   9.315  0.00  0.00    -0.150 OA
BRANCH   7  10
ATOM     10  N   UNL     1      -1.490   0.298   9.672  0.00  0.00    -0.213 N 
ATOM     11  H   UNL     1      -1.856   1.156   9.938  0.00  0.00    +0.174 HD
BRANCH  10  12
ATOM     12  C   UNL     1      -2.319  -0.828   9.612  0.00  0.00    +0.091 A 
ATOM     13  C   UNL     1      -1.823  -2.075   9.964  0.00  0.00    +0.048 A 
ATOM     14  C   UNL     1      -2.645  -3.187   9.904  0.00  0.00    +0.043 A 
ATOM     15  C   UNL     1      -3.960  -3.057   9.494  0.00  0.00    +0.024 A 
ATOM     16  C   UNL     1      -4.459  -1.817   9.142  0.00  0.00    +0.049 A 
ATOM     17  C   UNL     1      -3.645  -0.699   9.204  0.00  0.00    +0.139 A 
ATOM     18 CL   UNL     1      -2.024  -4.747  10.344  0.00  0.00    -0.083 Cl
BRANCH  17  19
ATOM     19  O   UNL     1      -4.137   0.523   8.863  0.00  0.00    -0.505 OA
ATOM     20  H   UNL     1      -4.035   0.741   7.927  0.00  0.00    +0.292 HD
ENDBRANCH  17  19
ENDBRANCH  10  12
ENDBRANCH   7  10
ENDBRANCH   4   7
BRANCH   1  21
ATOM     21  N   UNL     1       0.430  -1.675   3.664  0.00  0.00    -0.320 N 
ATOM     22  H   UNL     1       0.449  -2.624   3.465  0.00  0.00    +0.152 HD
BRANCH  21  30
ATOM     23  C   UNL     1       0.597   1.133   0.085  0.00  0.00    +0.068 C 
ATOM     24  C   UNL     1       0.607  -0.373   0.134  0.00  0.00    +0.070 C 
ATOM     25  N   UNL     1       0.674  -1.173  -0.886  0.00  0.00    -0.176 NA
ATOM     26  N   UNL     1       0.663  -2.509  -0.485  0.00  0.00    -0.156 N 
ATOM     27  C   UNL     1       0.584  -2.588   0.859  0.00  0.00    +0.273 C 
ATOM     28  O   UNL     1       0.554  -3.604   1.533  0.00  0.00    -0.268 OA
ATOM     29  C   UNL     1       0.550  -1.204   1.346  0.00  0.00    +0.075 C 
ATOM     30  C   UNL     1       0.476  -0.773   2.660  0.00  0.00    +0.087 C 
BRANCH  26  31
ATOM     31  C   UNL     1       0.723  -3.607  -1.351  0.00  0.00    +0.062 A 
ATOM     32  C   UNL     1       0.699  -4.899  -0.840  0.00  0.00    +0.025 A 
ATOM     33  C   UNL     1       0.759  -5.981  -1.696  0.00  0.00    +0.003 A 
ATOM     34  C   UNL     1       0.844  -5.780  -3.062  0.00  0.00    +0.020 A 
ATOM     35  C   UNL     1       0.869  -4.495  -3.575  0.00  0.00    +0.043 A 
ATOM     36  C   UNL     1       0.803  -3.408  -2.723  0.00  0.00    +0.045 A 
ATOM     37 CL   UNL     1       0.976  -4.247  -5.290  0.00  0.00    -0.083 Cl
ENDBRANCH  26  31
ENDBRANCH  21  30
ENDBRANCH   1  21
TORSDOF 7
