REMARK  Name = ZINC03765716
REMARK  6 active torsions:
REMARK  status: ('A' for Active; 'I' for Inactive)
REMARK    1  A    between atoms: C_6  and  C_11
REMARK    2  A    between atoms: C_13  and  C_35
REMARK    3  A    between atoms: C_18  and  C_21
REMARK    4  A    between atoms: N_23  and  N_24
REMARK    5  A    between atoms: C_25  and  C_26
REMARK    6  A    between atoms: C_29  and  N_32
REMARK                            x       y       z     vdW  Elec       q    Type
REMARK                         _______ _______ _______ _____ _____    ______ ____
ROOT
ATOM      1  C   UNL     1       1.109   7.755   0.841  0.00  0.00    +0.077 A 
ATOM      2  C   UNL     1      -0.011   8.422   0.430  0.00  0.00    +0.062 A 
ATOM      3  C   UNL     1       0.372   9.338  -0.551  0.00  0.00    +0.166 A 
ATOM      4  N   UNL     1       1.663   9.234  -0.740  0.00  0.00    -0.160 NA
ATOM      5  N   UNL     1       2.161   8.246   0.119  0.00  0.00    -0.207 N 
ATOM      6  C   UNL     1       3.489   7.839   0.221  0.00  0.00    +0.195 A 
ATOM      7  N   UNL     1       4.570   8.570   0.394  0.00  0.00    -0.216 NA
ATOM      8  C   UNL     1       5.764   7.981   0.471  0.00  0.00    +0.136 A 
ATOM      9  C   UNL     1       5.840   6.616   0.357  0.00  0.00    +0.081 A 
ATOM     10  S   UNL     1       4.170   6.191   0.144  0.00  0.00    -0.055 S 
ENDROOT
BRANCH   1  16
ATOM     11  C   UNL     1       0.270   2.987   5.092  0.00  0.00    +0.001 A 
ATOM     12  C   UNL     1      -0.937   3.233   4.440  0.00  0.00    +0.001 A 
ATOM     13  C   UNL     1      -1.036   4.204   3.492  0.00  0.00    +0.008 A 
ATOM     14  C   UNL     1       0.098   4.964   3.154  0.00  0.00    -0.017 A 
ATOM     15  C   UNL     1       0.033   5.968   2.176  0.00  0.00    +0.018 A 
ATOM     16  C   UNL     1       1.171   6.696   1.870  0.00  0.00    +0.001 A 
ATOM     17  C   UNL     1       2.384   6.434   2.531  0.00  0.00    +0.010 A 
ATOM     18  C   UNL     1       2.466   5.467   3.480  0.00  0.00    +0.009 A 
ATOM     19  C   UNL     1       1.327   4.710   3.813  0.00  0.00    -0.018 A 
ATOM     20  C   UNL     1       1.388   3.703   4.791  0.00  0.00    +0.008 A 
ENDBRANCH   1  16
BRANCH   8  21
ATOM     21  C   UNL     1       6.982   8.783   0.669  0.00  0.00    +0.282 C 
ATOM     22  O   UNL     1       8.067   8.236   0.733  0.00  0.00    -0.267 OA
ATOM     23  N   UNL     1       6.896  10.123   0.780  0.00  0.00    -0.202 N 
ATOM     24  H   UNL     1       6.030  10.559   0.730  0.00  0.00    +0.178 HD
BRANCH  23  25
ATOM     25  N   UNL     1       8.055  10.887   0.969  0.00  0.00    -0.187 NA
ATOM     26  C   UNL     1       7.972  12.177   1.076  0.00  0.00    +0.138 C 
BRANCH  26  27
ATOM     27  C   UNL     1       9.192  12.981   1.275  0.00  0.00    -0.005 A 
ATOM     28  C   UNL     1      10.439  12.356   1.354  0.00  0.00    +0.012 A 
ATOM     29  C   UNL     1      11.577  13.114   1.534  0.00  0.00    +0.033 A 
ATOM     30  C   UNL     1      11.484  14.490   1.647  0.00  0.00    +0.126 A 
ATOM     31  C   UNL     1      10.252  15.116   1.576  0.00  0.00    +0.033 A 
ATOM     32  C   UNL     1       9.106  14.370   1.390  0.00  0.00    +0.012 A 
BRANCH  30  33
ATOM     33  N   UNL     1      12.709  15.297   1.847  0.00  0.00    +0.056 N 
ATOM     34  O   UNL     1      12.631  16.508   1.948  0.00  0.00    -0.126 OA
ATOM     35  O   UNL     1      13.795  14.749   1.911  0.00  0.00    -0.126 OA
ENDBRANCH  30  33
ENDBRANCH  26  27
ENDBRANCH  23  25
ENDBRANCH   8  21
BRANCH   3  36
ATOM     36  C   UNL     1      -0.549  10.285  -1.276  0.00  0.00    +0.436 C 
ATOM     37  F   UNL     1       0.166  10.963  -2.268  0.00  0.00    -0.164 F 
ATOM     38  F   UNL     1      -1.593   9.562  -1.864  0.00  0.00    -0.164 F 
ATOM     39  F   UNL     1      -1.077  11.209  -0.367  0.00  0.00    -0.164 F 
ENDBRANCH   3  36
TORSDOF 6
