REMARK  Name = ZINC09465140
REMARK  10 active torsions:
REMARK  status: ('A' for Active; 'I' for Inactive)
REMARK    1  A    between atoms: C_1  and  C_2
REMARK    2  A    between atoms: C_5  and  O_9
REMARK    3  A    between atoms: C_6  and  C_8
REMARK    4  A    between atoms: O_9  and  C_10
REMARK    5  A    between atoms: C_10  and  C_11
REMARK    6  A    between atoms: C_14  and  S_17
REMARK    7  A    between atoms: N_15  and  N_16
REMARK    8  A    between atoms: S_17  and  C_18
REMARK    9  A    between atoms: C_18  and  C_20
REMARK   10  A    between atoms: C_18  and  C_21
REMARK                            x       y       z     vdW  Elec       q    Type
REMARK                         _______ _______ _______ _____ _____    ______ ____
ROOT
ATOM      1  C   UNL     1       3.587   0.179  -3.046  0.00  0.00    +0.189 A 
ATOM      2  N   UNL     1       2.401  -0.348  -3.160  0.00  0.00    -0.128 NA
ATOM      3  N   UNL     1       1.641   0.067  -2.211  0.00  0.00    -0.121 NA
ATOM      4  C   UNL     1       2.307   0.888  -1.432  0.00  0.00    +0.209 A 
ATOM      5  N   UNL     1       3.568   0.989  -1.944  0.00  0.00    -0.225 N 
ENDROOT
BRANCH   5   6
ATOM      6  N   UNL     1       4.599   1.742  -1.456  0.00  0.00    -0.295 N 
ATOM      7  H   UNL     1       5.147   1.216  -0.792  0.00  0.00    +0.163 HD
ATOM      8  H   UNL     1       5.177   2.092  -2.205  0.00  0.00    +0.163 HD
ENDBRANCH   5   6
BRANCH   1   9
ATOM      9  C   UNL     1       4.761  -0.057  -3.961  0.00  0.00    +0.306 C 
BRANCH   9  10
ATOM     10  O   UNL     1       4.744   0.908  -5.015  0.00  0.00    -0.484 OA
BRANCH  10  15
ATOM     11  C   UNL     1       8.880   0.603  -8.826  0.00  0.00    +0.044 C 
ATOM     12  C   UNL     1       7.774   0.684  -7.806  0.00  0.00    -0.050 A 
ATOM     13  C   UNL     1       7.731  -0.219  -6.760  0.00  0.00    +0.007 A 
ATOM     14  C   UNL     1       6.718  -0.146  -5.824  0.00  0.00    +0.046 A 
ATOM     15  C   UNL     1       5.742   0.834  -5.934  0.00  0.00    +0.124 A 
ATOM     16  C   UNL     1       5.784   1.736  -6.988  0.00  0.00    -0.009 A 
ATOM     17  C   UNL     1       6.803   1.662  -7.918  0.00  0.00    +0.010 A 
ATOM     18  C   UNL     1       4.723   2.798  -7.114  0.00  0.00    +0.047 C 
ENDBRANCH  10  15
ENDBRANCH   9  10
ENDBRANCH   1   9
BRANCH   4  19
ATOM     19  S   UNL     1       1.688   1.709  -0.002  0.00  0.00    -0.072 S 
BRANCH  19  20
ATOM     20  C   UNL     1      -0.011   1.084   0.010  0.00  0.00    +0.137 C 
ATOM     21  C   UNL     1      -0.749   1.590  -1.231  0.00  0.00    +0.029 C 
BRANCH  20  22
ATOM     22  C   UNL     1      -0.717   1.571   1.249  0.00  0.00    +0.231 C 
ATOM     23  O   UNL     1      -0.346   2.587   1.798  0.00  0.00    -0.274 OA
ATOM     24  N   UNL     1      -1.761   0.878   1.746  0.00  0.00    -0.269 N 
ATOM     25  C   UNL     1      -2.347   1.268   2.949  0.00  0.00    +0.125 A 
ATOM     26  C   UNL     1      -3.353   0.489   3.510  0.00  0.00    +0.045 A 
ATOM     27  C   UNL     1      -3.927   0.887   4.704  0.00  0.00    +0.025 A 
ATOM     28  C   UNL     1      -3.472   2.057   5.300  0.00  0.00    +0.059 A 
ATOM     29  C   UNL     1      -2.469   2.782   4.686  0.00  0.00    +0.132 A 
ATOM     30  N   UNL     1      -1.937   2.374   3.550  0.00  0.00    -0.239 NA
ATOM     31 CL   UNL     1      -4.158   2.602   6.798  0.00  0.00    -0.082 Cl
ATOM     32  H   UNL     1      -2.104   0.108   1.266  0.00  0.00    +0.156 HD
ENDBRANCH  20  22
ENDBRANCH  19  20
ENDBRANCH   4  19
TORSDOF 7
