REMARK  Name = ZINC10218411
REMARK  11 active torsions:
REMARK  status: ('A' for Active; 'I' for Inactive)
REMARK    1  A    between atoms: C_1  and  C_2
REMARK    2  A    between atoms: C_2  and  C_4
REMARK    3  A    between atoms: C_2  and  N_26
REMARK    4  A    between atoms: N_6  and  N_7
REMARK    5  A    between atoms: C_8  and  C_10
REMARK    6  A    between atoms: C_10  and  O_11
REMARK    7  A    between atoms: O_11  and  C_12
REMARK    8  A    between atoms: C_15  and  C_18
REMARK    9  A    between atoms: C_21  and  C_24
REMARK   10  A    between atoms: N_26  and  S_27
REMARK   11  A    between atoms: S_27  and  C_30
REMARK                            x       y       z     vdW  Elec       q    Type
REMARK                         _______ _______ _______ _____ _____    ______ ____
ROOT
ATOM      1  N   UNL     1      -3.595  -1.526   0.636  0.00  0.00    -0.232 N 
ATOM      2  C   UNL     1      -4.510  -1.402   1.617  0.00  0.00    +0.267 C 
ATOM      3  O   UNL     1      -4.271  -0.713   2.586  0.00  0.00    -0.271 OA
ATOM      4  H   UNL     1      -3.787  -2.077  -0.139  0.00  0.00    +0.173 HD
ENDROOT
BRANCH   1   7
ATOM      5  C   UNL     1      -1.451  -0.985  -0.246  0.00  0.00    +0.247 C 
ATOM      6  O   UNL     1      -1.691  -1.674  -1.215  0.00  0.00    -0.273 OA
ATOM      7  N   UNL     1      -2.366  -0.860   0.735  0.00  0.00    -0.233 N 
ATOM      8  H   UNL     1      -2.175  -0.309   1.510  0.00  0.00    +0.173 HD
BRANCH   5  10
ATOM      9  C   UNL     1      -0.373   1.240  -0.050  0.00  0.00    +0.035 C 
ATOM     10  C   UNL     1      -0.129  -0.268  -0.139  0.00  0.00    +0.160 C 
BRANCH  10  11
ATOM     11  N   UNL     1       0.683  -0.563  -1.323  0.00  0.00    -0.178 NA
ATOM     12  H   UNL     1       0.259  -0.659  -2.190  0.00  0.00    +0.149 HD
BRANCH  11  13
ATOM     13  S   UNL     1       2.324  -0.731  -1.179  0.00  0.00    +0.062 S 
ATOM     14  O   UNL     1       2.814  -1.048  -2.475  0.00  0.00    -0.153 OA
ATOM     15  O   UNL     1       2.785   0.396  -0.445  0.00  0.00    -0.153 OA
BRANCH  13  16
ATOM     16  C   UNL     1       2.617  -2.144  -0.169  0.00  0.00    +0.140 A 
ATOM     17  C   UNL     1       3.224  -1.999   1.064  0.00  0.00    +0.031 A 
ATOM     18  C   UNL     1       3.449  -3.107   1.859  0.00  0.00    +0.002 A 
ATOM     19  C   UNL     1       3.077  -4.363   1.417  0.00  0.00    +0.003 A 
ATOM     20  C   UNL     1       2.475  -4.512   0.182  0.00  0.00    +0.040 A 
ATOM     21  C   UNL     1       2.244  -3.401  -0.613  0.00  0.00    +0.150 A 
ATOM     22  F   UNL     1       1.656  -3.545  -1.820  0.00  0.00    -0.203 F 
ENDBRANCH  13  16
ENDBRANCH  11  13
ENDBRANCH  10  11
ENDBRANCH   5  10
ENDBRANCH   1   7
BRANCH   2  23
ATOM     23  C   UNL     1      -5.832  -2.118   1.510  0.00  0.00    +0.326 C 
BRANCH  23  24
ATOM     24  O   UNL     1      -6.624  -1.831   2.664  0.00  0.00    -0.483 OA
BRANCH  24  25
ATOM     25  C   UNL     1      -7.854  -2.404   2.726  0.00  0.00    +0.121 A 
ATOM     26  C   UNL     1      -8.291  -3.221   1.691  0.00  0.00    +0.046 A 
ATOM     27  C   UNL     1      -9.537  -3.807   1.753  0.00  0.00    +0.012 A 
ATOM     28  C   UNL     1     -10.364  -3.570   2.850  0.00  0.00    -0.018 A 
ATOM     29  C   UNL     1      -9.925  -2.744   3.885  0.00  0.00    +0.012 A 
ATOM     30  C   UNL     1      -8.675  -2.166   3.820  0.00  0.00    +0.046 A 
BRANCH  28  31
ATOM     31  C   UNL     1     -11.707  -4.193   2.917  0.00  0.00    -0.018 A 
ATOM     32  C   UNL     1     -12.531  -3.959   4.018  0.00  0.00    +0.010 A 
ATOM     33  C   UNL     1     -13.780  -4.532   4.078  0.00  0.00    +0.019 A 
ATOM     34  C   UNL     1     -14.220  -5.360   3.041  0.00  0.00    +0.052 A 
ATOM     35  C   UNL     1     -13.391  -5.599   1.940  0.00  0.00    +0.019 A 
ATOM     36  C   UNL     1     -12.144  -5.019   1.880  0.00  0.00    +0.010 A 
BRANCH  34  37
ATOM     37  C   UNL     1     -15.517  -5.963   3.105  0.00  0.00    +0.099 C 
ATOM     38  N   UNL     1     -16.546  -6.442   3.156  0.00  0.00    -0.191 NA
ENDBRANCH  34  37
ENDBRANCH  28  31
ENDBRANCH  24  25
ENDBRANCH  23  24
ENDBRANCH   2  23
TORSDOF 10
