REMARK  Name = ZINC14943915
REMARK  14 active torsions:
REMARK  status: ('A' for Active; 'I' for Inactive)
REMARK    1  A    between atoms: C_1  and  C_2
REMARK    2  A    between atoms: C_2  and  C_3
REMARK    3  A    between atoms: C_6  and  C_9
REMARK    4  A    between atoms: C_11  and  C_32
REMARK    5  A    between atoms: N_14  and  O_15
REMARK    6  A    between atoms: C_17  and  C_30
REMARK    7  A    between atoms: C_17  and  O_31
REMARK    8  A    between atoms: C_18  and  C_20
REMARK    9  A    between atoms: C_20  and  O_22
REMARK   10  A    between atoms: O_22  and  C_23
REMARK   11  A    between atoms: C_23  and  C_24
REMARK   12  A    between atoms: C_32  and  O_34
REMARK   13  A    between atoms: O_34  and  C_35
REMARK   14  A    between atoms: C_35  and  C_36
REMARK                            x       y       z     vdW  Elec       q    Type
REMARK                         _______ _______ _______ _____ _____    ______ ____
ROOT
ATOM      1  C   UNL     1       2.509  -0.083  -5.094  0.00  0.00    +0.055 C 
ATOM      2  C   UNL     1       1.847  -0.705  -3.860  0.00  0.00    +0.154 C 
ATOM      3  C   UNL     1       1.751  -2.200  -4.069  0.00  0.00    +0.074 C 
ATOM      4  N   UNL     1       0.640  -2.815  -3.908  0.00  0.00    -0.096 NA
ATOM      5  C   UNL     1       3.001  -2.950  -4.474  0.00  0.00    +0.090 C 
ATOM      6  C   UNL     1       3.620  -2.246  -5.685  0.00  0.00    +0.082 C 
ATOM      7  C   UNL     1       3.850  -0.770  -5.354  0.00  0.00    +0.138 C 
ATOM      8  C   UNL     1       4.957  -2.905  -6.030  0.00  0.00    +0.042 C 
ENDROOT
BRANCH   1  12
ATOM      9  C   UNL     1       3.155   4.085  -4.416  0.00  0.00    -0.048 A 
ATOM     10  C   UNL     1       3.606   3.157  -3.496  0.00  0.00    +0.004 A 
ATOM     11  C   UNL     1       3.397   1.808  -3.716  0.00  0.00    +0.004 A 
ATOM     12  C   UNL     1       2.736   1.388  -4.854  0.00  0.00    -0.042 A 
ATOM     13  C   UNL     1       2.283   2.316  -5.773  0.00  0.00    +0.004 A 
ATOM     14  C   UNL     1       2.489   3.665  -5.552  0.00  0.00    +0.004 A 
BRANCH   9  16
ATOM     15  C   UNL     1       2.204   6.133  -3.389  0.00  0.00    +0.009 C 
ATOM     16  C   UNL     1       3.382   5.556  -4.176  0.00  0.00    +0.032 C 
ENDBRANCH   9  16
ENDBRANCH   1  12
BRANCH   4  17
ATOM     17  O   UNL     1      -0.506  -2.105  -3.478  0.00  0.00    -0.409 OA
ATOM     18  H   UNL     1      -1.297  -2.653  -3.385  0.00  0.00    +0.328 HD
ENDBRANCH   4  17
BRANCH   7  19
ATOM     19  C   UNL     1       4.714  -0.662  -4.124  0.00  0.00    +0.314 C 
ATOM     20  O   UNL     1       4.392  -1.230  -3.107  0.00  0.00    -0.250 OA
BRANCH  19  21
ATOM     21  O   UNL     1       5.842   0.065  -4.158  0.00  0.00    -0.460 OA
BRANCH  21  22
ATOM     22  C   UNL     1       6.613   0.123  -2.957  0.00  0.00    +0.267 C 
BRANCH  22  23
ATOM     23  C   UNL     1       7.833   0.978  -3.184  0.00  0.00    -0.010 A 
ATOM     24  C   UNL     1       9.005   0.402  -3.639  0.00  0.00    +0.007 A 
ATOM     25  C   UNL     1      10.124   1.186  -3.848  0.00  0.00    +0.000 A 
ATOM     26  C   UNL     1      10.072   2.545  -3.601  0.00  0.00    +0.000 A 
ATOM     27  C   UNL     1       8.901   3.121  -3.146  0.00  0.00    +0.000 A 
ATOM     28  C   UNL     1       7.780   2.338  -2.942  0.00  0.00    +0.007 A 
ENDBRANCH  22  23
ENDBRANCH  21  22
ENDBRANCH  19  21
ENDBRANCH   7  19
BRANCH   6  29
ATOM     29  O   UNL     1       2.735  -2.351  -6.802  0.00  0.00    -0.388 OA
ATOM     30  H   UNL     1       2.543  -3.261  -7.068  0.00  0.00    +0.210 HD
ENDBRANCH   6  29
BRANCH   2  31
ATOM     31  C   UNL     1       0.468  -0.126  -3.679  0.00  0.00    +0.317 C 
ATOM     32  O   UNL     1      -0.206   0.144  -4.644  0.00  0.00    -0.250 OA
BRANCH  31  33
ATOM     33  O   UNL     1      -0.012   0.091  -2.444  0.00  0.00    -0.459 OA
BRANCH  33  34
ATOM     34  C   UNL     1      -1.327   0.642  -2.346  0.00  0.00    +0.267 C 
BRANCH  34  35
ATOM     35  C   UNL     1      -1.693   0.814  -0.894  0.00  0.00    -0.010 A 
ATOM     36  C   UNL     1      -2.318  -0.214  -0.213  0.00  0.00    +0.007 A 
ATOM     37  C   UNL     1      -2.653  -0.057   1.119  0.00  0.00    +0.000 A 
ATOM     38  C   UNL     1      -2.364   1.128   1.770  0.00  0.00    +0.000 A 
ATOM     39  C   UNL     1      -1.738   2.155   1.088  0.00  0.00    +0.000 A 
ATOM     40  C   UNL     1      -1.398   1.996  -0.242  0.00  0.00    +0.007 A 
ENDBRANCH  34  35
ENDBRANCH  33  34
ENDBRANCH  31  33
ENDBRANCH   2  31
TORSDOF 12
