REMARK  Name = ZINC64735128
REMARK  7 active torsions:
REMARK  status: ('A' for Active; 'I' for Inactive)
REMARK    1  A    between atoms: C_1  and  N_2
REMARK    2  A    between atoms: N_7  and  C_10
REMARK    3  A    between atoms: C_10  and  C_11
REMARK    4  A    between atoms: N_13  and  C_14
REMARK    5  A    between atoms: C_14  and  C_15
REMARK    6  A    between atoms: C_15  and  C_17
REMARK    7  A    between atoms: C_15  and  C_23
REMARK                            x       y       z     vdW  Elec       q    Type
REMARK                         _______ _______ _______ _____ _____    ______ ____
ROOT
ATOM      1  C   UNL     1      -5.812  -5.298   3.049  0.00  0.00    +0.116 C 
ENDROOT
BRANCH   1   4
ATOM      2  C   UNL     1      -4.492  -4.054   1.423  0.00  0.00    +0.233 C 
ATOM      3  O   UNL     1      -3.909  -3.524   2.345  0.00  0.00    -0.274 OA
ATOM      4  N   UNL     1      -5.461  -4.957   1.668  0.00  0.00    -0.313 N 
ATOM      5  H   UNL     1      -5.927  -5.382   0.931  0.00  0.00    +0.149 HD
BRANCH   2   6
ATOM      6  C   UNL     1      -4.131  -3.704   0.002  0.00  0.00    +0.221 C 
BRANCH   6  13
ATOM      7  C   UNL     1      -0.018   1.461   0.010  0.00  0.00    +0.151 C 
ATOM      8  N   UNL     1       0.002  -0.004   0.002  0.00  0.00    -0.253 N 
ATOM      9  C   UNL     1      -1.127  -0.789   0.003  0.00  0.00    +0.146 A 
ATOM     10  C   UNL     1      -0.771  -2.127  -0.007  0.00  0.00    +0.073 A 
ATOM     11  C   UNL     1      -1.766  -3.104  -0.007  0.00  0.00    +0.261 A 
ATOM     12  O   UNL     1      -1.476  -4.290  -0.015  0.00  0.00    -0.267 OA
ATOM     13  N   UNL     1      -3.058  -2.707   0.002  0.00  0.00    -0.290 N 
ATOM     14  C   UNL     1      -3.357  -1.393   0.012  0.00  0.00    +0.204 A 
ATOM     15  N   UNL     1      -2.436  -0.471   0.012  0.00  0.00    -0.221 NA
ATOM     16  C   UNL     1       0.736  -2.170  -0.015  0.00  0.00    +0.146 C 
ATOM     17  N   UNL     1       1.142  -0.751  -0.013  0.00  0.00    -0.235 NA
ATOM     18  H   UNL     1       1.721  -0.543   0.786  0.00  0.00    +0.145 HD
ENDBRANCH   6  13
ENDBRANCH   2   6
ENDBRANCH   1   4
BRANCH   1  19
ATOM     19  C   UNL     1      -6.933  -6.339   3.049  0.00  0.00    +0.064 C 
BRANCH  19  20
ATOM     20  C   UNL     1      -7.378  -6.599   4.465  0.00  0.00    -0.033 C 
ATOM     21  C   UNL     1      -8.618  -6.418   4.974  0.00  0.00    -0.000 A 
ATOM     22  C   UNL     1      -9.875  -5.942   4.385  0.00  0.00    +0.010 A 
ATOM     23  C   UNL     1     -10.978  -5.866   5.164  0.00  0.00    +0.001 A 
ATOM     24  C   UNL     1     -10.950  -6.229   6.518  0.00  0.00    +0.002 A 
ATOM     25  C   UNL     1      -9.833  -6.676   7.130  0.00  0.00    +0.026 A 
ATOM     26  C   UNL     1      -8.615  -6.796   6.405  0.00  0.00    +0.043 A 
ATOM     27  N   UNL     1      -7.420  -7.196   6.767  0.00  0.00    -0.380 N 
ATOM     28  C   UNL     1      -6.530  -7.122   5.603  0.00  0.00    +0.145 C 
ATOM     29  H   UNL     1      -7.168  -7.494   7.655  0.00  0.00    +0.160 HD
ENDBRANCH  19  20
BRANCH  19  30
ATOM     30  C   UNL     1      -6.428  -7.621   2.438  0.00  0.00    -0.039 A 
ATOM     31  C   UNL     1      -5.361  -8.287   3.011  0.00  0.00    +0.004 A 
ATOM     32  C   UNL     1      -4.898  -9.463   2.450  0.00  0.00    +0.000 A 
ATOM     33  C   UNL     1      -5.503  -9.973   1.317  0.00  0.00    +0.000 A 
ATOM     34  C   UNL     1      -6.570  -9.307   0.744  0.00  0.00    +0.000 A 
ATOM     35  C   UNL     1      -7.036  -8.134   1.307  0.00  0.00    +0.004 A 
ENDBRANCH  19  30
ENDBRANCH   1  19
TORSDOF 6
