REMARK  Name = ZINC13065277
REMARK  12 active torsions:
REMARK  status: ('A' for Active; 'I' for Inactive)
REMARK    1  A    between atoms: C_1  and  C_2
REMARK    2  A    between atoms: C_2  and  C_3
REMARK    3  A    between atoms: C_3  and  C_5
REMARK    4  A    between atoms: C_3  and  N_69
REMARK    5  A    between atoms: N_9  and  C_10
REMARK    6  A    between atoms: C_10  and  C_11
REMARK    7  A    between atoms: C_16  and  C_17
REMARK    8  A    between atoms: C_16  and  N_69
REMARK    9  A    between atoms: C_26  and  C_27
REMARK   10  A    between atoms: C_26  and  N_69
REMARK   11  A    between atoms: C_30  and  C_40
REMARK   12  A    between atoms: C_33  and  C_39
REMARK                            x       y       z     vdW  Elec       q    Type
REMARK                         _______ _______ _______ _____ _____    ______ ____
ROOT
ATOM      1  N   UNL     1       1.235   3.217  -1.077  0.00  0.00    +0.392 N 
ATOM      2  H   UNL     1       1.728   2.900  -1.920  0.00  0.00    -0.080 HD
ENDROOT
BRANCH   1   3
ATOM      3  C   UNL     1       1.419   2.213  -0.007  0.00  0.00    +0.003 C 
BRANCH   3   4
ATOM      4  C   UNL     1       1.147   0.844  -0.575  0.00  0.00    +0.139 A 
ATOM      5  N   UNL     1       0.138   0.499  -1.337  0.00  0.00    -0.115 NA
ATOM      6  N   UNL     1       0.259  -0.753  -1.615  0.00  0.00    -0.023 NA
ATOM      7  N   UNL     1       1.319  -1.216  -1.050  0.00  0.00    -0.044 NA
ATOM      8  N   UNL     1       1.894  -0.262  -0.400  0.00  0.00    -0.223 N 
BRANCH   8   9
ATOM      9  C   UNL     1       3.129  -0.362   0.383  0.00  0.00    +0.221 C 
BRANCH   9  10
ATOM     10  C   UNL     1       4.311  -0.067  -0.504  0.00  0.00    +0.126 A 
ATOM     11  C   UNL     1       4.851   1.146  -0.718  0.00  0.00    +0.046 A 
ATOM     12  C   UNL     1       5.934   0.962  -1.608  0.00  0.00    +0.041 A 
ATOM     13  C   UNL     1       5.986  -0.352  -1.891  0.00  0.00    +0.195 A 
ATOM     14  O   UNL     1       5.001  -0.970  -1.220  0.00  0.00    -0.466 OA
ENDBRANCH   9  10
ENDBRANCH   8   9
ENDBRANCH   3   4
BRANCH   3  16
ATOM     15  C   UNL     1       0.867   3.775   1.863  0.00  0.00    +0.002 C 
ATOM     16  C   UNL     1       0.458   2.484   1.152  0.00  0.00    -0.011 C 
ENDBRANCH   3  16
ENDBRANCH   1   3
BRANCH   1  17
ATOM     17  C   UNL     1      -0.202   3.365  -1.389  0.00  0.00    -0.041 C 
BRANCH  17  18
ATOM     18  C   UNL     1      -0.338   4.011  -2.744  0.00  0.00    -0.060 A 
ATOM     19  C   UNL     1      -0.450   5.385  -2.845  0.00  0.00    +0.005 A 
ATOM     20  C   UNL     1      -0.569   5.982  -4.086  0.00  0.00    +0.050 A 
ATOM     21  C   UNL     1      -0.588   5.203  -5.231  0.00  0.00    +0.166 A 
ATOM     22  C   UNL     1      -0.480   3.818  -5.129  0.00  0.00    +0.166 A 
ATOM     23  C   UNL     1      -0.355   3.227  -3.882  0.00  0.00    +0.051 A 
ATOM     24  O   UNL     1      -0.524   3.283  -6.384  0.00  0.00    -0.453 OA
ATOM     25  C   UNL     1      -1.070   4.317  -7.224  0.00  0.00    +0.466 C 
ATOM     26  O   UNL     1      -0.700   5.535  -6.551  0.00  0.00    -0.453 OA
ENDBRANCH  17  18
ENDBRANCH   1  17
BRANCH   1  27
ATOM     27  C   UNL     1       1.797   4.516  -0.652  0.00  0.00    -0.036 C 
BRANCH  27  28
ATOM     28  C   UNL     1       3.287   4.494  -0.879  0.00  0.00    +0.001 A 
ATOM     29  C   UNL     1       3.795   4.906  -2.067  0.00  0.00    +0.017 A 
ATOM     30  C   UNL     1       5.247   4.877  -2.254  0.00  0.00    +0.002 A 
ATOM     31  C   UNL     1       5.830   5.296  -3.455  0.00  0.00    -0.041 A 
ATOM     32  C   UNL     1       7.188   5.252  -3.599  0.00  0.00    +0.004 A 
ATOM     33  C   UNL     1       7.994   4.796  -2.565  0.00  0.00    +0.005 A 
ATOM     34  C   UNL     1       7.441   4.378  -1.374  0.00  0.00    -0.026 A 
ATOM     35  C   UNL     1       6.061   4.414  -1.203  0.00  0.00    +0.052 A 
ATOM     36  N   UNL     1       5.481   4.004  -0.022  0.00  0.00    -0.322 N 
ATOM     37  H   UNL     1       6.044   3.685   0.701  0.00  0.00    +0.169 HD
ATOM     38  C   UNL     1       4.147   4.039   0.142  0.00  0.00    +0.251 A 
ATOM     39  O   UNL     1       3.669   3.667   1.200  0.00  0.00    -0.268 OA
ATOM     40  C   UNL     1       8.328   3.886  -0.260  0.00  0.00    +0.046 C 
ATOM     41  C   UNL     1       4.965   5.793  -4.584  0.00  0.00    +0.044 C 
ENDBRANCH  27  28
ENDBRANCH   1  27
TORSDOF 9
