REMARK  Name = ZINC39540261
REMARK  14 active torsions:
REMARK  status: ('A' for Active; 'I' for Inactive)
REMARK    1  A    between atoms: C_1  and  C_2
REMARK    2  A    between atoms: C_2  and  C_3
REMARK    3  A    between atoms: C_2  and  S_4
REMARK    4  A    between atoms: S_4  and  C_7
REMARK    5  A    between atoms: C_10  and  C_13
REMARK    6  A    between atoms: C_13  and  C_15
REMARK    7  A    between atoms: C_13  and  N_24
REMARK    8  A    between atoms: C_15  and  N_16
REMARK    9  A    between atoms: N_16  and  C_17
REMARK   10  A    between atoms: C_22  and  O_23
REMARK   11  A    between atoms: C_28  and  S_31
REMARK   12  A    between atoms: S_31  and  C_34
REMARK   13  A    between atoms: C_34  and  C_35
REMARK   14  A    between atoms: C_34  and  C_36
REMARK                            x       y       z     vdW  Elec       q    Type
REMARK                         _______ _______ _______ _____ _____    ______ ____
ROOT
ATOM      1  C   UNL     1      -4.212   1.593  -4.999  0.00  0.00    +0.104 C 
ENDROOT
BRANCH   1   2
ATOM      2  N   UNL     1      -3.288   1.423  -6.128  0.00  0.00    -0.290 NA
ATOM      3  C   UNL     1      -3.049  -0.001  -6.403  0.00  0.00    +0.100 C 
ATOM      4  C   UNL     1      -2.147  -0.136  -7.632  0.00  0.00    +0.098 C 
ATOM      5  N   UNL     1      -0.881   0.569  -7.387  0.00  0.00    -0.293 NA
ATOM      6  C   UNL     1      -1.120   1.993  -7.112  0.00  0.00    +0.212 C 
ATOM      7  C   UNL     1      -2.022   2.128  -5.883  0.00  0.00    +0.127 C 
ATOM      8  H   UNL     1      -0.366   0.137  -6.635  0.00  0.00    +0.124 HD
BRANCH   6   9
ATOM      9  S   UNL     1       0.463   2.821  -6.796  0.00  0.00    -0.012 S 
ATOM     10  O   UNL     1       0.221   4.215  -6.656  0.00  0.00    -0.173 OA
ATOM     11  O   UNL     1       1.133   2.128  -5.752  0.00  0.00    -0.173 OA
BRANCH   9  12
ATOM     12  C   UNL     1       1.373   2.550  -8.341  0.00  0.00    +0.126 C 
ATOM     13  C   UNL     1       0.601   3.175  -9.505  0.00  0.00    +0.031 C 
ATOM     14  C   UNL     1       2.756   3.198  -8.239  0.00  0.00    +0.031 C 
ENDBRANCH   9  12
ENDBRANCH   6   9
ENDBRANCH   1   2
BRANCH   1  18
ATOM     15  C   UNL     1      -2.604  -0.324  -1.537  0.00  0.00    +0.088 A 
ATOM     16  C   UNL     1      -2.653   1.056  -1.603  0.00  0.00    +0.027 A 
ATOM     17  C   UNL     1      -3.173   1.676  -2.724  0.00  0.00    +0.007 A 
ATOM     18  C   UNL     1      -3.644   0.917  -3.778  0.00  0.00    -0.029 A 
ATOM     19  C   UNL     1      -3.595  -0.463  -3.713  0.00  0.00    +0.007 A 
ATOM     20  C   UNL     1      -3.071  -1.084  -2.594  0.00  0.00    +0.027 A 
BRANCH  15  21
ATOM     21  S   UNL     1      -1.942  -1.115  -0.109  0.00  0.00    -0.001 S 
ATOM     22  O   UNL     1      -2.567  -2.391  -0.078  0.00  0.00    -0.169 OA
ATOM     23  O   UNL     1      -2.141  -0.185   0.946  0.00  0.00    -0.169 OA
BRANCH  21  25
ATOM     24  C   UNL     1       0.450   0.085  -0.677  0.00  0.00    +0.032 C 
ATOM     25  C   UNL     1      -0.170  -1.296  -0.456  0.00  0.00    +0.130 C 
ATOM     26  C   UNL     1       0.515  -1.979   0.729  0.00  0.00    +0.032 C 
ENDBRANCH  21  25
ENDBRANCH  15  21
ENDBRANCH   1  18
BRANCH   1  27
ATOM     27  C   UNL     1      -5.564   0.966  -5.348  0.00  0.00    +0.125 C 
BRANCH  27  28
ATOM     28  N   UNL     1      -6.060   1.540  -6.601  0.00  0.00    -0.339 N 
ATOM     29  H   UNL     1      -5.537   2.212  -7.067  0.00  0.00    +0.146 HD
BRANCH  28  30
ATOM     30  C   UNL     1      -7.287   1.120  -7.126  0.00  0.00    +0.069 A 
ATOM     31  C   UNL     1      -8.038   0.164  -6.458  0.00  0.00    +0.026 A 
ATOM     32  C   UNL     1      -9.250  -0.250  -6.978  0.00  0.00    +0.002 A 
ATOM     33  C   UNL     1      -9.717   0.287  -8.163  0.00  0.00    +0.004 A 
ATOM     34  C   UNL     1      -8.974   1.241  -8.834  0.00  0.00    +0.047 A 
ATOM     35  C   UNL     1      -7.761   1.665  -8.317  0.00  0.00    +0.138 A 
BRANCH  35  36
ATOM     36  O   UNL     1      -7.031   2.606  -8.974  0.00  0.00    -0.505 OA
ATOM     37  H   UNL     1      -6.408   2.242  -9.618  0.00  0.00    +0.292 HD
ENDBRANCH  35  36
ENDBRANCH  28  30
ENDBRANCH  27  28
ENDBRANCH   1  27
TORSDOF 10
