REMARK  Name = ZINC42406090
REMARK  3 active torsions:
REMARK  status: ('A' for Active; 'I' for Inactive)
REMARK    1  A    between atoms: C_5  and  N_17
REMARK    2  A    between atoms: C_6  and  N_7
REMARK    3  A    between atoms: C_12  and  C_14
REMARK                            x       y       z     vdW  Elec       q    Type
REMARK                         _______ _______ _______ _____ _____    ______ ____
ROOT
ATOM      1  C   UNL     1      -1.136   2.028  -0.338  0.00  0.00    +0.030 A 
ATOM      2  C   UNL     1      -0.237   3.079  -0.339  0.00  0.00    -0.024 A 
ATOM      3  C   UNL     1       1.098   2.855  -0.031  0.00  0.00    +0.038 A 
ATOM      4  C   UNL     1       1.534   1.573   0.279  0.00  0.00    +0.048 A 
ATOM      5  C   UNL     1       0.635   0.518   0.281  0.00  0.00    +0.048 A 
ATOM      6  C   UNL     1      -0.705   0.747  -0.029  0.00  0.00    +0.052 A 
ATOM      7  N   UNL     1       2.004   3.923  -0.034  0.00  0.00    -0.285 N 
ATOM      8  C   UNL     1       1.562   5.192   0.041  0.00  0.00    +0.218 C 
ATOM      9  O   UNL     1       2.358   6.106   0.024  0.00  0.00    -0.275 OA
ATOM     10  C   UNL     1       0.090   5.489   0.144  0.00  0.00    +0.101 C 
ATOM     11  C   UNL     1      -0.705   4.471  -0.675  0.00  0.00    +0.046 C 
ATOM     12  H   UNL     1       2.956   3.747  -0.089  0.00  0.00    +0.155 HD
ENDROOT
BRANCH   6  13
ATOM     13  N   UNL     1      -1.617  -0.319  -0.029  0.00  0.00    -0.317 N 
ATOM     14  C   UNL     1      -2.355  -0.672   1.191  0.00  0.00    +0.106 C 
ATOM     15  C   UNL     1      -3.853  -0.695   0.872  0.00  0.00    +0.019 C 
ATOM     16  C   UNL     1      -4.105  -1.636  -0.309  0.00  0.00    +0.004 C 
ATOM     17  C   UNL     1      -3.356  -1.121  -1.541  0.00  0.00    +0.032 C 
ATOM     18  C   UNL     1      -1.857  -1.099  -1.251  0.00  0.00    +0.159 C 
BRANCH  18  19
ATOM     19  C   UNL     1      -1.130  -0.463  -2.408  0.00  0.00    +0.231 C 
ATOM     20  O   UNL     1      -1.116   0.744  -2.525  0.00  0.00    -0.274 OA
ATOM     21  N   UNL     1      -0.496  -1.235  -3.312  0.00  0.00    -0.328 N 
ATOM     22  H   UNL     1      -0.507  -2.200  -3.218  0.00  0.00    +0.145 HD
ATOM     23  H   UNL     1      -0.028  -0.826  -4.056  0.00  0.00    +0.145 HD
ENDBRANCH  18  19
ENDBRANCH   6  13
BRANCH   5  24
ATOM     24  N   UNL     1       1.072  -0.774   0.593  0.00  0.00    -0.356 N 
ATOM     25  H   UNL     1       2.005  -0.932   0.808  0.00  0.00    +0.142 HD
ATOM     26  H   UNL     1       0.443  -1.512   0.595  0.00  0.00    +0.142 HD
ENDBRANCH   5  24
TORSDOF 3
