REMARK  Name = ZINC39379906
REMARK  9 active torsions:
REMARK  status: ('A' for Active; 'I' for Inactive)
REMARK    1  A    between atoms: C_1  and  C_2
REMARK    2  A    between atoms: C_6  and  C_12
REMARK    3  A    between atoms: C_10  and  C_11
REMARK    4  A    between atoms: C_12  and  N_13
REMARK    5  A    between atoms: N_13  and  C_14
REMARK    6  A    between atoms: N_13  and  C_15
REMARK    7  A    between atoms: C_15  and  C_16
REMARK    8  A    between atoms: C_18  and  C_34
REMARK    9  A    between atoms: C_21  and  C_24
REMARK                            x       y       z     vdW  Elec       q    Type
REMARK                         _______ _______ _______ _____ _____    ______ ____
ROOT
ATOM      1  C   UNL     1      -0.980   5.299  -8.352  0.00  0.00    -0.057 C 
ENDROOT
BRANCH   1   2
ATOM      2  C   UNL     1      -0.607   6.781  -8.424  0.00  0.00    +0.068 C 
ATOM      3  C   UNL     1      -0.608   7.265  -9.887  0.00  0.00    +0.133 C 
ATOM      4  O   UNL     1       0.743   7.683 -10.165  0.00  0.00    -0.353 OA
ATOM      5  C   UNL     1       1.312   8.027  -8.883  0.00  0.00    +0.220 C 
ATOM      6  N   UNL     1       0.787   6.988  -7.957  0.00  0.00    -0.284 NA
ATOM      7  C   UNL     1      -1.010   6.121 -10.821  0.00  0.00    +0.039 C 
ATOM      8  H   UNL     1       0.804   7.310  -7.002  0.00  0.00    +0.125 HD
BRANCH   5   9
ATOM      9  C   UNL     1       2.817   7.973  -8.943  0.00  0.00    +0.018 A 
ATOM     10  C   UNL     1       3.491   6.899  -8.392  0.00  0.00    +0.058 A 
ATOM     11  C   UNL     1       4.874   6.846  -8.445  0.00  0.00    +0.167 A 
ATOM     12  C   UNL     1       5.583   7.878  -9.056  0.00  0.00    +0.168 A 
ATOM     13  C   UNL     1       4.902   8.951  -9.607  0.00  0.00    +0.070 A 
ATOM     14  C   UNL     1       3.521   8.995  -9.554  0.00  0.00    +0.052 A 
ATOM     15 CL   UNL     1       2.669  10.337 -10.251  0.00  0.00    -0.083 Cl
ATOM     16  O   UNL     1       6.917   7.595  -8.980  0.00  0.00    -0.453 OA
ATOM     17  C   UNL     1       7.038   6.586  -7.959  0.00  0.00    +0.466 C 
ATOM     18  O   UNL     1       5.763   5.918  -7.987  0.00  0.00    -0.453 OA
ENDBRANCH   5   9
ENDBRANCH   1   2
BRANCH   1  19
ATOM     19  N   UNL     1      -0.789   4.812  -6.980  0.00  0.00    +0.384 N 
ATOM     20  C   UNL     1      -1.029   3.363  -6.936  0.00  0.00    -0.096 C 
ATOM     21  H   UNL     1       0.156   5.005  -6.682  0.00  0.00    -0.082 HD
BRANCH  19  22
ATOM     22  C   UNL     1      -1.734   5.492  -6.083  0.00  0.00    -0.004 C 
BRANCH  22  28
ATOM     23  C   UNL     1      -1.287   2.275   0.571  0.00  0.00    +0.044 C 
ATOM     24  C   UNL     1      -1.076   3.260  -0.550  0.00  0.00    -0.045 A 
ATOM     25  C   UNL     1      -1.675   3.045  -1.760  0.00  0.00    +0.033 A 
ATOM     26  C   UNL     1      -1.483   3.954  -2.803  0.00  0.00    +0.089 A 
ATOM     27  N   UNL     1      -1.929   4.017  -4.084  0.00  0.00    -0.234 NA
ATOM     28  C   UNL     1      -1.457   5.085  -4.659  0.00  0.00    +0.091 A 
ATOM     29  N   UNL     1      -0.677   5.779  -3.788  0.00  0.00    -0.343 N 
ATOM     30  C   UNL     1      -0.674   5.084  -2.595  0.00  0.00    +0.066 A 
ATOM     31  C   UNL     1      -0.075   5.286  -1.359  0.00  0.00    +0.031 A 
ATOM     32  C   UNL     1      -0.281   4.377  -0.343  0.00  0.00    -0.045 A 
ATOM     33  C   UNL     1       0.365   4.597   1.001  0.00  0.00    +0.044 C 
ATOM     34  H   UNL     1      -0.209   6.609  -3.970  0.00  0.00    +0.167 HD
ENDBRANCH  22  28
ENDBRANCH  19  22
ENDBRANCH   1  19
TORSDOF 5
