REMARK  Name = ZINC02420816
REMARK  6 active torsions:
REMARK  status: ('A' for Active; 'I' for Inactive)
REMARK    1  A    between atoms: C_1  and  C_2
REMARK    2  A    between atoms: C_21  and  N_25
REMARK    3  A    between atoms: C_22  and  C_23
REMARK    4  A    between atoms: C_29  and  C_34
REMARK    5  A    between atoms: C_29  and  C_35
REMARK    6  A    between atoms: C_31  and  C_33
REMARK                            x       y       z     vdW  Elec       q    Type
REMARK                         _______ _______ _______ _____ _____    ______ ____
ROOT
ATOM      1  C   UNL     1       3.398   0.170   3.820  0.00  0.00    +0.044 C 
ATOM      2  C   UNL     1       1.910   0.400   3.762  0.00  0.00    -0.050 A 
ATOM      3  C   UNL     1       1.351   0.859   2.578  0.00  0.00    +0.009 A 
ATOM      4  C   UNL     1      -0.001   1.083   2.482  0.00  0.00    -0.022 A 
ATOM      5  C   UNL     1      -0.765   0.826   3.620  0.00  0.00    +0.045 A 
ATOM      6  C   UNL     1      -0.210   0.367   4.807  0.00  0.00    -0.001 A 
ATOM      7  C   UNL     1       1.147   0.144   4.900  0.00  0.00    +0.010 A 
ATOM      8  C   UNL     1      -1.361   0.229   5.751  0.00  0.00    +0.148 C 
ATOM      9  C   UNL     1      -1.531  -1.198   6.189  0.00  0.00    +0.104 A 
ATOM     10  C   UNL     1      -1.199  -1.575   7.458  0.00  0.00    +0.152 A 
ATOM     11  C   UNL     1      -1.387  -2.987   7.826  0.00  0.00    +0.060 A 
ATOM     12  C   UNL     1      -1.064  -3.446   9.104  0.00  0.00    +0.015 A 
ATOM     13  C   UNL     1      -1.251  -4.773   9.419  0.00  0.00    +0.001 A 
ATOM     14  C   UNL     1      -1.757  -5.651   8.472  0.00  0.00    +0.004 A 
ATOM     15  C   UNL     1      -2.078  -5.211   7.206  0.00  0.00    +0.047 A 
ATOM     16  C   UNL     1      -1.897  -3.875   6.866  0.00  0.00    +0.143 A 
ATOM     17  O   UNL     1      -2.210  -3.440   5.629  0.00  0.00    -0.422 OA
ATOM     18  C   UNL     1      -2.035  -2.157   5.296  0.00  0.00    +0.346 A 
ATOM     19  O   UNL     1      -2.327  -1.804   4.167  0.00  0.00    -0.245 OA
ATOM     20  O   UNL     1      -0.715  -0.693   8.351  0.00  0.00    -0.440 OA
ATOM     21  C   UNL     1      -0.887   0.627   8.159  0.00  0.00    +0.199 C 
ATOM     22  C   UNL     1      -1.197   1.132   6.939  0.00  0.00    +0.110 C 
ATOM     23  C   UNL     1      -2.574   0.661   4.942  0.00  0.00    +0.241 C 
ATOM     24  O   UNL     1      -3.721   0.703   5.335  0.00  0.00    -0.273 OA
ATOM     25  N   UNL     1      -2.145   0.987   3.713  0.00  0.00    -0.264 N 
ATOM     26  C   UNL     1      -2.916   1.457   2.549  0.00  0.00    +0.037 C 
ATOM     27  C   UNL     1      -2.167   1.050   1.276  0.00  0.00    +0.033 C 
ATOM     28  C   UNL     1      -0.729   1.579   1.267  0.00  0.00    +0.020 C 
ATOM     29  C   UNL     1      -0.013   1.086   0.008  0.00  0.00    +0.012 C 
ATOM     30  C   UNL     1      -4.305   0.815   2.558  0.00  0.00    +0.032 C 
ATOM     31  C   UNL     1      -3.052   2.981   2.602  0.00  0.00    +0.032 C 
ENDROOT
BRANCH  21  32
ATOM     32  N   UNL     1      -0.746   1.484   9.222  0.00  0.00    -0.328 N 
ATOM     33  H   UNL     1      -0.524   1.135  10.100  0.00  0.00    +0.145 HD
ATOM     34  H   UNL     1      -0.868   2.438   9.096  0.00  0.00    +0.145 HD
ENDBRANCH  21  32
BRANCH  22  35
ATOM     35  C   UNL     1      -1.370   2.545   6.781  0.00  0.00    +0.102 C 
ATOM     36  N   UNL     1      -1.508   3.666   6.656  0.00  0.00    -0.191 NA
ENDBRANCH  22  35
TORSDOF 2
