REMARK  Name = ZINC59432454
REMARK  4 active torsions:
REMARK  status: ('A' for Active; 'I' for Inactive)
REMARK    1  A    between atoms: C_4  and  C_7
REMARK    2  A    between atoms: C_13  and  C_15
REMARK    3  A    between atoms: C_15  and  S_16
REMARK    4  A    between atoms: S_16  and  C_17
REMARK                            x       y       z     vdW  Elec       q    Type
REMARK                         _______ _______ _______ _____ _____    ______ ____
ROOT
ATOM      1  C   UNL     1       3.698  -0.688  -0.038  0.00  0.00    +0.080 A 
ATOM      2  C   UNL     1       3.727  -2.055  -0.051  0.00  0.00    +0.076 A 
ATOM      3  S   UNL     1       5.491  -2.349  -0.068  0.00  0.00    -0.060 S 
ATOM      4  C   UNL     1       6.003  -0.636  -0.057  0.00  0.00    +0.165 A 
ATOM      5  N   UNL     1       4.838  -0.014  -0.047  0.00  0.00    -0.225 NA
ATOM      6  N   UNL     1       7.285  -0.102  -0.062  0.00  0.00    -0.264 N 
ATOM      7  C   UNL     1       8.356  -0.920  -0.079  0.00  0.00    +0.229 C 
ATOM      8  O   UNL     1       8.200  -2.123  -0.089  0.00  0.00    -0.275 OA
ATOM      9  H   UNL     1       7.410   0.860  -0.054  0.00  0.00    +0.157 HD
ENDROOT
BRANCH   1  13
ATOM     10  C   UNL     1      -0.017   1.379   0.010  0.00  0.00    +0.000 A 
ATOM     11  C   UNL     1       1.169   2.092   0.002  0.00  0.00    +0.001 A 
ATOM     12  C   UNL     1       2.377   1.427  -0.013  0.00  0.00    +0.010 A 
ATOM     13  C   UNL     1       2.402   0.033  -0.021  0.00  0.00    +0.001 A 
ATOM     14  C   UNL     1       1.205  -0.680  -0.013  0.00  0.00    +0.010 A 
ATOM     15  C   UNL     1       0.002  -0.004   0.002  0.00  0.00    +0.001 A 
ENDBRANCH   1  13
BRANCH   7  16
ATOM     16  C   UNL     1       9.747  -0.340  -0.085  0.00  0.00    +0.173 C 
BRANCH  16  17
ATOM     17  S   UNL     1      10.963  -1.686  -0.108  0.00  0.00    -0.078 S 
BRANCH  17  18
ATOM     18  C   UNL     1      12.517  -0.856  -0.113  0.00  0.00    +0.173 A 
ATOM     19  N   UNL     1      12.546   0.461  -0.095  0.00  0.00    -0.185 NA
ATOM     20  C   UNL     1      13.704   1.128  -0.098  0.00  0.00    +0.278 A 
ATOM     21  C   UNL     1      14.900   0.431  -0.120  0.00  0.00    +0.142 A 
ATOM     22  C   UNL     1      14.864  -0.969  -0.139  0.00  0.00    +0.256 A 
ATOM     23  N   UNL     1      13.665  -1.589  -0.130  0.00  0.00    -0.302 N 
ATOM     24  O   UNL     1      15.898  -1.617  -0.159  0.00  0.00    -0.268 OA
ATOM     25  O   UNL     1      13.707   2.481  -0.080  0.00  0.00    -0.266 OA
ATOM     26  H   UNL     1      13.621  -2.558  -0.139  0.00  0.00    +0.171 HD
ENDBRANCH  17  18
ENDBRANCH  16  17
ENDBRANCH   7  16
TORSDOF 4
