REMARK  Name = ZINC51928708
REMARK  7 active torsions:
REMARK  status: ('A' for Active; 'I' for Inactive)
REMARK    1  A    between atoms: C_1  and  C_2
REMARK    2  A    between atoms: C_5  and  C_7
REMARK    3  A    between atoms: C_7  and  C_9
REMARK    4  A    between atoms: C_7  and  N_22
REMARK    5  A    between atoms: N_16  and  C_21
REMARK    6  A    between atoms: N_19  and  C_20
REMARK    7  A    between atoms: N_22  and  C_23
REMARK                            x       y       z     vdW  Elec       q    Type
REMARK                         _______ _______ _______ _____ _____    ______ ____
ROOT
ATOM      1  C   UNL     1       1.912  -0.841   3.470  0.00  0.00    -0.045 A 
ATOM      2  C   UNL     1       3.288  -0.849   3.600  0.00  0.00    +0.031 A 
ATOM      3  C   UNL     1       3.884  -1.635   4.573  0.00  0.00    +0.070 A 
ATOM      4  C   UNL     1       3.093  -2.416   5.418  0.00  0.00    +0.071 A 
ATOM      5  C   UNL     1       1.714  -2.402   5.281  0.00  0.00    +0.043 A 
ATOM      6  C   UNL     1       1.127  -1.611   4.312  0.00  0.00    +0.022 A 
ATOM      7 BR   UNL     1      -0.755  -1.585   4.129  0.00  0.00    -0.050 Br
ATOM      8  N   UNL     1       3.962  -3.085   6.277  0.00  0.00    -0.295 N 
ATOM      9  C   UNL     1       5.223  -2.728   5.969  0.00  0.00    +0.330 A 
ATOM     10  O   UNL     1       6.223  -3.134   6.531  0.00  0.00    -0.246 OA
ATOM     11  N   UNL     1       5.209  -1.854   4.945  0.00  0.00    -0.295 N 
ATOM     12  C   UNL     1       6.386  -1.239   4.327  0.00  0.00    +0.154 C 
ATOM     13  C   UNL     1       3.570  -4.019   7.337  0.00  0.00    +0.154 C 
ENDROOT
BRANCH   1  14
ATOM     14  C   UNL     1       1.263   0.014   2.412  0.00  0.00    -0.037 C 
BRANCH  14  18
ATOM     15  C   UNL     1       3.213  -1.838   1.218  0.00  0.00    +0.008 C 
ATOM     16  C   UNL     1       1.796  -1.837   0.642  0.00  0.00    -0.012 C 
ATOM     17  C   UNL     1       0.673  -2.378   1.529  0.00  0.00    +0.006 C 
ATOM     18  C   UNL     1       0.782  -0.874   1.263  0.00  0.00    -0.018 C 
ENDBRANCH  14  18
BRANCH  14  19
ATOM     19  N   UNL     1       2.239   0.988   1.903  0.00  0.00    +0.382 N 
ATOM     20  C   UNL     1       1.569   1.916   0.982  0.00  0.00    -0.100 C 
ATOM     21  H   UNL     1       2.632   1.505   2.675  0.00  0.00    -0.085 HD
ATOM     22  H   UNL     1       2.975   0.502   1.414  0.00  0.00    -0.085 HD
ENDBRANCH  14  19
ENDBRANCH   1  14
TORSDOF 3
