REMARK  Name = ZINC64502785
REMARK  9 active torsions:
REMARK  status: ('A' for Active; 'I' for Inactive)
REMARK    1  A    between atoms: C_1  and  C_2
REMARK    2  A    between atoms: C_7  and  C_12
REMARK    3  A    between atoms: C_12  and  N_13
REMARK    4  A    between atoms: C_14  and  C_16
REMARK    5  A    between atoms: C_19  and  N_22
REMARK    6  A    between atoms: C_23  and  N_37
REMARK    7  A    between atoms: C_25  and  C_31
REMARK    8  A    between atoms: C_27  and  C_30
REMARK    9  A    between atoms: C_38  and  C_40
REMARK                            x       y       z     vdW  Elec       q    Type
REMARK                         _______ _______ _______ _____ _____    ______ ____
ROOT
ATOM      1  C   UNL     1      -4.091  -3.707   0.323  0.00  0.00    +0.037 A 
ATOM      2  C   UNL     1      -4.346  -2.795  -0.706  0.00  0.00    +0.015 A 
ATOM      3  C   UNL     1      -5.596  -2.233  -0.832  0.00  0.00    +0.025 A 
ATOM      4  C   UNL     1      -6.607  -2.573   0.064  0.00  0.00    +0.047 A 
ATOM      5  C   UNL     1      -6.356  -3.480   1.090  0.00  0.00    +0.025 A 
ATOM      6  C   UNL     1      -5.110  -4.049   1.217  0.00  0.00    +0.015 A 
ENDROOT
BRANCH   4   7
ATOM      7  N   UNL     1      -7.869  -2.003  -0.066  0.00  0.00    -0.246 N 
ATOM      8  C   UNL     1      -9.127  -2.627   0.374  0.00  0.00    +0.185 C 
ATOM      9  C   UNL     1     -10.245  -1.647  -0.057  0.00  0.00    +0.077 C 
ATOM     10  C   UNL     1      -9.514  -0.821  -1.151  0.00  0.00    +0.081 C 
ATOM     11  N   UNL     1      -8.126  -0.775  -0.617  0.00  0.00    -0.235 NA
ATOM     12  C   UNL     1      -9.563  -1.537  -2.502  0.00  0.00    +0.026 C 
ATOM     13  H   UNL     1      -8.024  -0.042   0.069  0.00  0.00    +0.145 HD
BRANCH   9  14
ATOM     14  C   UNL     1     -11.423  -2.389  -0.634  0.00  0.00    -0.039 A 
ATOM     15  C   UNL     1     -11.776  -3.626  -0.128  0.00  0.00    +0.004 A 
ATOM     16  C   UNL     1     -12.857  -4.306  -0.656  0.00  0.00    +0.000 A 
ATOM     17  C   UNL     1     -13.585  -3.749  -1.691  0.00  0.00    +0.000 A 
ATOM     18  C   UNL     1     -13.233  -2.512  -2.196  0.00  0.00    +0.000 A 
ATOM     19  C   UNL     1     -12.155  -1.830  -1.665  0.00  0.00    +0.004 A 
ENDBRANCH   9  14
BRANCH   8  20
ATOM     20  N   UNL     1      -9.307  -3.925  -0.282  0.00  0.00    -0.295 N 
ATOM     21  C   UNL     1      -9.088  -5.063   0.405  0.00  0.00    +0.211 C 
ATOM     22  O   UNL     1      -8.844  -5.018   1.592  0.00  0.00    -0.276 OA
ATOM     23  C   UNL     1      -9.145  -6.393  -0.302  0.00  0.00    +0.109 C 
ATOM     24  H   UNL     1      -9.583  -3.964  -1.211  0.00  0.00    +0.151 HD
ENDBRANCH   8  20
ENDBRANCH   4   7
BRANCH   1  26
ATOM     25  N   UNL     1      -1.772  -3.979  -0.403  0.00  0.00    -0.308 N 
ATOM     26  C   UNL     1      -2.752  -4.310   0.460  0.00  0.00    +0.244 C 
ATOM     27  O   UNL     1      -2.534  -5.107   1.352  0.00  0.00    -0.270 OA
ATOM     28  H   UNL     1      -1.946  -3.343  -1.114  0.00  0.00    +0.149 HD
BRANCH  25  29
ATOM     29  C   UNL     1      -0.442  -4.579  -0.266  0.00  0.00    +0.151 C 
BRANCH  29  36
ATOM     30  C   UNL     1      -0.718   0.908  -4.612  0.00  0.00    +0.044 C 
ATOM     31  C   UNL     1      -0.559  -0.508  -4.121  0.00  0.00    -0.048 A 
ATOM     32  C   UNL     1      -0.947  -1.563  -4.967  0.00  0.00    +0.005 A 
ATOM     33  C   UNL     1      -0.840  -2.858  -4.609  0.00  0.00    +0.027 A 
ATOM     34  C   UNL     1      -0.299  -3.203  -3.286  0.00  0.00    +0.060 A 
ATOM     35  N   UNL     1      -0.085  -4.337  -2.686  0.00  0.00    -0.362 N 
ATOM     36  C   UNL     1       0.477  -4.037  -1.363  0.00  0.00    +0.191 C 
ATOM     37  N   UNL     1       0.563  -2.574  -1.272  0.00  0.00    -0.362 N 
ATOM     38  C   UNL     1       0.112  -2.086  -2.392  0.00  0.00    +0.060 A 
ATOM     39  C   UNL     1      -0.046  -0.713  -2.892  0.00  0.00    +0.030 A 
ATOM     40  H   UNL     1      -0.265  -5.220  -3.046  0.00  0.00    +0.162 HD
ATOM     41  H   UNL     1       0.895  -2.064  -0.517  0.00  0.00    +0.162 HD
ENDBRANCH  29  36
ENDBRANCH  25  29
ENDBRANCH   1  26
TORSDOF 6
