REMARK  Name = ZINC56206651
REMARK  11 active torsions:
REMARK  status: ('A' for Active; 'I' for Inactive)
REMARK    1  A    between atoms: C_1  and  C_2
REMARK    2  A    between atoms: C_2  and  C_3
REMARK    3  A    between atoms: C_8  and  N_9
REMARK    4  A    between atoms: C_10  and  C_12
REMARK    5  A    between atoms: C_12  and  C_14
REMARK    6  A    between atoms: C_12  and  N_15
REMARK    7  A    between atoms: N_15  and  C_16
REMARK    8  A    between atoms: C_19  and  O_23
REMARK    9  A    between atoms: C_21  and  C_22
REMARK   10  A    between atoms: O_23  and  C_24
REMARK   11  A    between atoms: C_24  and  C_25
REMARK                            x       y       z     vdW  Elec       q    Type
REMARK                         _______ _______ _______ _____ _____    ______ ____
ROOT
ATOM      1  N   UNL     1       6.362  -0.515   0.938  0.00  0.00    -0.333 N 
ATOM      2  H   UNL     1       6.726  -0.468   0.040  0.00  0.00    +0.147 HD
ENDROOT
BRANCH   1   3
ATOM      3  C   UNL     1       7.190  -0.865   2.010  0.00  0.00    +0.031 A 
ATOM      4  C   UNL     1       6.669  -0.938   3.296  0.00  0.00    +0.027 A 
ATOM      5  C   UNL     1       7.486  -1.284   4.353  0.00  0.00    +0.047 A 
ATOM      6  C   UNL     1       8.828  -1.558   4.132  0.00  0.00    +0.122 A 
ATOM      7  C   UNL     1       9.349  -1.486   2.849  0.00  0.00    +0.050 A 
ATOM      8  C   UNL     1       8.532  -1.146   1.789  0.00  0.00    -0.026 A 
ATOM      9  C   UNL     1       9.097  -1.074   0.394  0.00  0.00    +0.046 C 
BRANCH   6  10
ATOM     10  O   UNL     1       9.633  -1.899   5.175  0.00  0.00    -0.483 OA
BRANCH  10  11
ATOM     11  C   UNL     1       9.029  -1.954   6.469  0.00  0.00    +0.324 C 
BRANCH  11  12
ATOM     12  C   UNL     1      10.066  -2.344   7.490  0.00  0.00    +0.248 C 
ATOM     13  O   UNL     1      11.209  -2.555   7.144  0.00  0.00    -0.272 OA
ATOM     14  N   UNL     1       9.723  -2.459   8.789  0.00  0.00    -0.327 N 
ATOM     15  H   UNL     1       8.809  -2.291   9.066  0.00  0.00    +0.145 HD
ATOM     16  H   UNL     1      10.391  -2.711   9.446  0.00  0.00    +0.145 HD
ENDBRANCH  11  12
ENDBRANCH  10  11
ENDBRANCH   6  10
ENDBRANCH   1   3
BRANCH   1  17
ATOM     17  C   UNL     1       4.947  -0.219   1.171  0.00  0.00    +0.154 C 
ATOM     18  C   UNL     1       4.793   1.248   1.578  0.00  0.00    +0.038 C 
BRANCH  17  20
ATOM     19  N   UNL     1       2.833  -0.268  -0.113  0.00  0.00    -0.284 N 
ATOM     20  C   UNL     1       4.165  -0.474  -0.091  0.00  0.00    +0.237 C 
ATOM     21  O   UNL     1       4.734  -0.865  -1.088  0.00  0.00    -0.273 OA
ATOM     22  H   UNL     1       2.388   0.106   0.663  0.00  0.00    +0.155 HD
BRANCH  19  28
ATOM     23  C   UNL     1       0.800  -1.084  -1.129  0.00  0.00    -0.026 A 
ATOM     24  C   UNL     1       0.070  -1.399  -2.259  0.00  0.00    +0.005 A 
ATOM     25  C   UNL     1       0.627  -1.233  -3.513  0.00  0.00    +0.000 A 
ATOM     26  C   UNL     1       1.917  -0.751  -3.641  0.00  0.00    +0.002 A 
ATOM     27  C   UNL     1       2.652  -0.433  -2.516  0.00  0.00    +0.023 A 
ATOM     28  C   UNL     1       2.093  -0.594  -1.255  0.00  0.00    +0.037 A 
BRANCH  23  30
ATOM     29  C   UNL     1      -0.422   0.057   0.702  0.00  0.00    +0.009 C 
ATOM     30  C   UNL     1       0.191  -1.265   0.237  0.00  0.00    +0.033 C 
ENDBRANCH  23  30
ENDBRANCH  19  28
ENDBRANCH  17  20
ENDBRANCH   1  17
TORSDOF 8
