REMARK  Name = ZINC39360335
REMARK  6 active torsions:
REMARK  status: ('A' for Active; 'I' for Inactive)
REMARK    1  A    between atoms: C_1  and  C_2
REMARK    2  A    between atoms: C_7  and  C_12
REMARK    3  A    between atoms: N_17  and  C_18
REMARK    4  A    between atoms: C_18  and  C_19
REMARK    5  A    between atoms: C_21  and  C_24
REMARK    6  A    between atoms: C_24  and  C_25
REMARK                            x       y       z     vdW  Elec       q    Type
REMARK                         _______ _______ _______ _____ _____    ______ ____
ROOT
ATOM      1  C   UNL     1      -5.492   3.377  -4.414  0.00  0.00    -0.000 C 
ATOM      2  C   UNL     1      -5.671   4.905  -4.289  0.00  0.00    -0.010 C 
ATOM      3  C   UNL     1      -7.191   5.058  -4.017  0.00  0.00    -0.020 C 
ATOM      4  C   UNL     1      -7.480   3.811  -3.146  0.00  0.00    -0.077 C 
ATOM      5  N   UNL     1      -6.627   2.743  -3.717  0.00  0.00    +0.392 N 
ATOM      6  H   UNL     1      -6.282   2.150  -2.977  0.00  0.00    -0.080 HD
ENDROOT
BRANCH   1  13
ATOM      7  C   UNL     1      -0.013   1.086   0.008  0.00  0.00    +0.044 C 
ATOM      8  C   UNL     1      -0.742   1.585  -1.213  0.00  0.00    -0.048 A 
ATOM      9  C   UNL     1      -0.036   1.825  -2.384  0.00  0.00    +0.005 A 
ATOM     10  C   UNL     1      -0.687   2.281  -3.510  0.00  0.00    +0.028 A 
ATOM     11  C   UNL     1      -2.057   2.502  -3.471  0.00  0.00    +0.066 A 
ATOM     12  N   UNL     1      -2.986   2.943  -4.392  0.00  0.00    -0.343 N 
ATOM     13  C   UNL     1      -4.196   2.958  -3.770  0.00  0.00    +0.095 A 
ATOM     14  H   UNL     1      -2.809   3.195  -5.311  0.00  0.00    +0.167 HD
ATOM     15  N   UNL     1      -4.071   2.558  -2.538  0.00  0.00    -0.234 NA
ATOM     16  C   UNL     1      -2.770   2.259  -2.285  0.00  0.00    +0.089 A 
ATOM     17  C   UNL     1      -2.091   1.792  -1.157  0.00  0.00    +0.033 A 
ENDBRANCH   1  13
BRANCH   5  18
ATOM     18  C   UNL     1      -7.405   1.940  -4.669  0.00  0.00    +0.023 C 
BRANCH  18  19
ATOM     19  C   UNL     1      -8.489   1.196  -3.931  0.00  0.00    +0.211 A 
ATOM     20  N   UNL     1      -9.698   1.631  -3.709  0.00  0.00    -0.197 NA
ATOM     21  C   UNL     1     -10.396   0.716  -3.027  0.00  0.00    +0.176 A 
ATOM     22  N   UNL     1      -9.635  -0.317  -2.805  0.00  0.00    -0.061 NA
ATOM     23  O   UNL     1      -8.377  -0.026  -3.396  0.00  0.00    -0.340 OA
BRANCH  21  24
ATOM     24  C   UNL     1     -11.830   0.858  -2.586  0.00  0.00    +0.117 C 
BRANCH  24  25
ATOM     25  C   UNL     1     -12.742   0.324  -3.660  0.00  0.00    -0.005 A 
ATOM     26  C   UNL     1     -13.284   1.184  -4.597  0.00  0.00    +0.007 A 
ATOM     27  C   UNL     1     -14.120   0.695  -5.583  0.00  0.00    +0.000 A 
ATOM     28  C   UNL     1     -14.415  -0.655  -5.634  0.00  0.00    +0.003 A 
ATOM     29  C   UNL     1     -13.873  -1.517  -4.699  0.00  0.00    +0.038 A 
ATOM     30  C   UNL     1     -13.031  -1.028  -3.714  0.00  0.00    +0.127 A 
ATOM     31  F   UNL     1     -12.498  -1.870  -2.802  0.00  0.00    -0.205 F 
ENDBRANCH  24  25
ENDBRANCH  21  24
ENDBRANCH  18  19
ENDBRANCH   5  18
TORSDOF 5
