REMARK  Name = ZINC02765199
REMARK  8 active torsions:
REMARK  status: ('A' for Active; 'I' for Inactive)
REMARK    1  A    between atoms: C_1  and  C_2
REMARK    2  A    between atoms: C_7  and  C_12
REMARK    3  A    between atoms: N_14  and  N_15
REMARK    4  A    between atoms: N_15  and  C_16
REMARK    5  A    between atoms: C_16  and  N_18
REMARK    6  A    between atoms: N_18  and  C_19
REMARK    7  A    between atoms: C_19  and  C_21
REMARK    8  A    between atoms: C_19  and  C_22
REMARK                            x       y       z     vdW  Elec       q    Type
REMARK                         _______ _______ _______ _____ _____    ______ ____
ROOT
ATOM      1  C   UNL     1      -1.288   2.189   0.020  0.00  0.00    +0.261 C 
ATOM      2  O   UNL     1      -2.345   1.587   0.022  0.00  0.00    -0.269 OA
ATOM      3  N   UNL     1      -1.281   3.537   0.027  0.00  0.00    -0.231 N 
ATOM      4  H   UNL     1      -0.439   4.017   0.026  0.00  0.00    +0.173 HD
ENDROOT
BRANCH   1  10
ATOM      5  C   UNL     1       0.510  -4.291  -0.117  0.00  0.00    +0.008 C 
ATOM      6  C   UNL     1       0.296  -2.802  -0.394  0.00  0.00    -0.009 C 
ATOM      7  C   UNL     1      -0.867  -2.284   0.457  0.00  0.00    +0.008 C 
ATOM      8  C   UNL     1      -1.250  -0.872   0.011  0.00  0.00    +0.037 C 
ATOM      9  C   UNL     1       0.002  -0.004   0.002  0.00  0.00    -0.025 A 
ATOM     10  C   UNL     1      -0.018   1.446   0.010  0.00  0.00    +0.049 A 
ATOM     11  C   UNL     1       1.192   2.106   0.002  0.00  0.00    +0.058 A 
ATOM     12  S   UNL     1       2.348   0.815  -0.016  0.00  0.00    -0.101 S 
ATOM     13  C   UNL     1       1.235  -0.561  -0.013  0.00  0.00    -0.006 A 
ATOM     14  C   UNL     1       1.566  -2.021  -0.025  0.00  0.00    +0.046 C 
ENDBRANCH   1  10
BRANCH   3  15
ATOM     15  N   UNL     1      -2.491   4.244   0.037  0.00  0.00    -0.246 N 
ATOM     16  H   UNL     1      -3.333   3.763   0.038  0.00  0.00    +0.172 HD
BRANCH  15  17
ATOM     17  C   UNL     1      -2.483   5.591   0.044  0.00  0.00    +0.147 C 
ATOM     18  S   UNL     1      -3.962   6.455   0.056  0.00  0.00    -0.017 S 
BRANCH  17  19
ATOM     19  N   UNL     1      -1.313   6.259   0.042  0.00  0.00    -0.319 N 
ATOM     20  H   UNL     1      -0.475   5.770   0.036  0.00  0.00    +0.148 HD
BRANCH  19  21
ATOM     21  C   UNL     1      -1.305   7.724   0.050  0.00  0.00    +0.099 C 
ATOM     22  C   UNL     1      -1.421   8.227   1.491  0.00  0.00    +0.033 C 
BRANCH  21  23
ATOM     23  C   UNL     1      -0.018   8.223  -0.554  0.00  0.00    -0.028 A 
ATOM     24  C   UNL     1       1.174   7.584  -0.266  0.00  0.00    +0.005 A 
ATOM     25  C   UNL     1       2.354   8.039  -0.823  0.00  0.00    +0.000 A 
ATOM     26  C   UNL     1       2.345   9.138  -1.661  0.00  0.00    +0.000 A 
ATOM     27  C   UNL     1       1.154   9.780  -1.945  0.00  0.00    +0.000 A 
ATOM     28  C   UNL     1      -0.027   9.322  -1.391  0.00  0.00    +0.005 A 
ENDBRANCH  21  23
ENDBRANCH  19  21
ENDBRANCH  17  19
ENDBRANCH  15  17
ENDBRANCH   3  15
TORSDOF 6
