REMARK  Name = ZINC09970540
REMARK  13 active torsions:
REMARK  status: ('A' for Active; 'I' for Inactive)
REMARK    1  A    between atoms: C_1  and  C_2
REMARK    2  A    between atoms: C_11  and  O_13
REMARK    3  A    between atoms: O_13  and  C_14
REMARK    4  A    between atoms: C_14  and  C_29
REMARK    5  A    between atoms: C_15  and  C_27
REMARK    6  A    between atoms: C_15  and  O_28
REMARK    7  A    between atoms: C_16  and  C_25
REMARK    8  A    between atoms: C_16  and  O_26
REMARK    9  A    between atoms: C_17  and  C_23
REMARK   10  A    between atoms: C_17  and  O_24
REMARK   11  A    between atoms: C_18  and  C_20
REMARK   12  A    between atoms: C_18  and  C_21
REMARK   13  A    between atoms: C_21  and  O_22
REMARK                            x       y       z     vdW  Elec       q    Type
REMARK                         _______ _______ _______ _____ _____    ______ ____
ROOT
ATOM      1  C   UNL     1       0.559   3.458   1.246  0.00  0.00    +0.242 C 
ATOM      2  C   UNL     1       1.406   3.120   2.475  0.00  0.00    +0.159 C 
ATOM      3  C   UNL     1       1.361   1.608   2.717  0.00  0.00    +0.129 C 
ATOM      4  C   UNL     1      -0.098   1.171   2.879  0.00  0.00    +0.125 C 
ATOM      5  C   UNL     1      -0.887   1.584   1.634  0.00  0.00    +0.125 C 
ATOM      6  O   UNL     1      -0.779   2.997   1.449  0.00  0.00    -0.326 OA
ATOM      7  C   UNL     1      -0.320   0.864   0.408  0.00  0.00    +0.047 C 
ATOM      8  C   UNL     1      -0.163  -0.348   3.045  0.00  0.00    +0.047 C 
ATOM      9  C   UNL     1       2.140   1.270   3.990  0.00  0.00    +0.047 C 
ATOM     10  C   UNL     1       0.846   3.850   3.698  0.00  0.00    +0.051 C 
ATOM     11  C   UNL     1       0.549   4.973   1.032  0.00  0.00    +0.092 C 
ENDROOT
BRANCH   4  12
ATOM     12  O   UNL     1      -0.661   1.802   4.031  0.00  0.00    -0.383 OA
ATOM     13  H   UNL     1      -1.587   1.573   4.192  0.00  0.00    +0.210 HD
ENDBRANCH   4  12
BRANCH   3  14
ATOM     14  O   UNL     1       1.943   0.928   1.603  0.00  0.00    -0.383 OA
ATOM     15  H   UNL     1       2.868   1.158   1.442  0.00  0.00    +0.210 HD
ENDBRANCH   3  14
BRANCH   2  16
ATOM     16  O   UNL     1       2.757   3.528   2.252  0.00  0.00    -0.379 OA
ATOM     17  H   UNL     1       2.860   4.476   2.092  0.00  0.00    +0.211 HD
ENDBRANCH   2  16
BRANCH   1  18
ATOM     18  O   UNL     1       1.113   2.817   0.095  0.00  0.00    -0.458 OA
BRANCH  18  29
ATOM     19  C   UNL     1      -2.871   4.309  -4.823  0.00  0.00    +0.045 C 
ATOM     20  C   UNL     1      -1.552   3.584  -4.756  0.00  0.00    -0.033 A 
ATOM     21  C   UNL     1      -0.968   3.093  -5.880  0.00  0.00    +0.096 A 
ATOM     22  C   UNL     1       0.267   2.418  -5.791  0.00  0.00    +0.337 A 
ATOM     23  O   UNL     1       0.779   1.982  -6.807  0.00  0.00    -0.245 OA
ATOM     24  O   UNL     1       0.892   2.243  -4.616  0.00  0.00    -0.422 OA
ATOM     25  C   UNL     1       0.366   2.707  -3.462  0.00  0.00    +0.143 A 
ATOM     26  C   UNL     1      -0.864   3.390  -3.478  0.00  0.00    +0.021 A 
ATOM     27  C   UNL     1      -1.413   3.873  -2.285  0.00  0.00    +0.015 A 
ATOM     28  C   UNL     1      -0.754   3.673  -1.106  0.00  0.00    +0.046 A 
ATOM     29  C   UNL     1       0.467   3.003  -1.085  0.00  0.00    +0.128 A 
ATOM     30  C   UNL     1       1.025   2.518  -2.257  0.00  0.00    +0.092 A 
ENDBRANCH  18  29
ENDBRANCH   1  18
BRANCH   5  31
ATOM     31  C   UNL     1      -2.359   1.204   1.813  0.00  0.00    +0.193 C 
BRANCH  31  32
ATOM     32  O   UNL     1      -3.073   1.483   0.607  0.00  0.00    -0.392 OA
ATOM     33  H   UNL     1      -4.014   1.266   0.648  0.00  0.00    +0.210 HD
ENDBRANCH  31  32
ENDBRANCH   5  31
TORSDOF 7
