REMARK  Name = ZINC20206313
REMARK  9 active torsions:
REMARK  status: ('A' for Active; 'I' for Inactive)
REMARK    1  A    between atoms: C_1  and  S_2
REMARK    2  A    between atoms: S_2  and  C_5
REMARK    3  A    between atoms: C_13  and  C_14
REMARK    4  A    between atoms: C_17  and  O_21
REMARK    5  A    between atoms: O_21  and  C_22
REMARK    6  A    between atoms: C_22  and  C_23
REMARK    7  A    between atoms: C_23  and  C_24
REMARK    8  A    between atoms: C_24  and  O_25
REMARK    9  A    between atoms: O_25  and  C_26
REMARK                            x       y       z     vdW  Elec       q    Type
REMARK                         _______ _______ _______ _____ _____    ______ ____
ROOT
ATOM      1  C   UNL     1      -2.442   1.420  -5.895  0.00  0.00    -0.023 A 
ATOM      2  C   UNL     1      -1.598   0.873  -6.872  0.00  0.00    +0.011 A 
ATOM      3  C   UNL     1      -1.721   1.259  -8.175  0.00  0.00    +0.048 A 
ATOM      4  C   UNL     1      -2.682   2.196  -8.541  0.00  0.00    +0.139 A 
ATOM      5  C   UNL     1      -3.526   2.747  -7.581  0.00  0.00    +0.083 A 
ATOM      6  C   UNL     1      -3.415   2.360  -6.264  0.00  0.00    +0.031 A 
ATOM      7 CL   UNL     1      -4.723   3.916  -8.045  0.00  0.00    -0.080 Cl
ENDROOT
BRANCH   1  16
ATOM      8  C   UNL     1      -3.949   2.048  -0.089  0.00  0.00    +0.257 C 
ATOM      9  N   UNL     1      -4.621   2.970   0.528  0.00  0.00    -0.174 NA
ATOM     10  S   UNL     1      -4.516   4.303  -0.482  0.00  0.00    +0.049 S 
ATOM     11  C   UNL     1      -3.639   3.630  -1.729  0.00  0.00    +0.183 C 
ATOM     12  N   UNL     1      -3.261   4.149  -2.876  0.00  0.00    -0.152 NA
ATOM     13  C   UNL     1      -2.606   3.381  -3.767  0.00  0.00    +0.273 C 
ATOM     14  O   UNL     1      -2.128   3.867  -4.779  0.00  0.00    -0.268 OA
ATOM     15  C   UNL     1      -2.479   1.929  -3.487  0.00  0.00    +0.079 C 
ATOM     16  C   UNL     1      -2.312   1.006  -4.496  0.00  0.00    +0.024 C 
ATOM     17  C   UNL     1      -2.541   1.525  -2.053  0.00  0.00    +0.138 C 
ATOM     18  N   UNL     1      -1.886   0.507  -1.564  0.00  0.00    -0.284 NA
ATOM     19  N   UNL     1      -3.374   2.355  -1.276  0.00  0.00    -0.201 N 
ATOM     20  H   UNL     1      -1.323  -0.030  -2.143  0.00  0.00    +0.188 HD
BRANCH   8  22
ATOM     21  C   UNL     1      -2.172   0.452   1.438  0.00  0.00    +0.203 C 
ATOM     22  S   UNL     1      -3.783   0.436   0.604  0.00  0.00    +0.026 S 
ATOM     23  O   UNL     1      -3.745  -0.437  -0.516  0.00  0.00    -0.167 OA
ATOM     24  O   UNL     1      -4.829   0.343   1.560  0.00  0.00    -0.167 OA
ENDBRANCH   8  22
ENDBRANCH   1  16
BRANCH   4  25
ATOM     25  O   UNL     1      -2.797   2.574  -9.839  0.00  0.00    -0.490 OA
BRANCH  25  26
ATOM     26  C   UNL     1      -1.899   1.970 -10.773  0.00  0.00    +0.232 C 
BRANCH  26  27
ATOM     27  C   UNL     1      -2.178   2.517 -12.175  0.00  0.00    +0.082 C 
BRANCH  27  28
ATOM     28  C   UNL     1      -1.217   1.871 -13.175  0.00  0.00    +0.232 C 
BRANCH  28  29
ATOM     29  O   UNL     1      -1.477   2.381 -14.484  0.00  0.00    -0.492 OA
BRANCH  29  30
ATOM     30  C   UNL     1      -0.705   1.906 -15.496  0.00  0.00    +0.121 A 
ATOM     31  C   UNL     1       0.279   0.964 -15.236  0.00  0.00    +0.045 A 
ATOM     32  C   UNL     1       1.062   0.482 -16.267  0.00  0.00    +0.004 A 
ATOM     33  C   UNL     1       0.867   0.939 -17.557  0.00  0.00    +0.000 A 
ATOM     34  C   UNL     1      -0.113   1.879 -17.819  0.00  0.00    +0.004 A 
ATOM     35  C   UNL     1      -0.903   2.359 -16.793  0.00  0.00    +0.045 A 
ENDBRANCH  29  30
ENDBRANCH  28  29
ENDBRANCH  27  28
ENDBRANCH  26  27
ENDBRANCH  25  26
ENDBRANCH   4  25
TORSDOF 8
