REMARK  Name = ZINC52839197
REMARK  6 active torsions:
REMARK  status: ('A' for Active; 'I' for Inactive)
REMARK    1  A    between atoms: C_1  and  C_2
REMARK    2  A    between atoms: C_2  and  C_4
REMARK    3  A    between atoms: C_2  and  C_10
REMARK    4  A    between atoms: C_11  and  N_22
REMARK    5  A    between atoms: N_12  and  N_21
REMARK    6  A    between atoms: C_13  and  C_15
REMARK                            x       y       z     vdW  Elec       q    Type
REMARK                         _______ _______ _______ _____ _____    ______ ____
ROOT
ATOM      1  C   UNL     1       0.765  -0.626  -1.166  0.00  0.00    +0.065 A 
ATOM      2  C   UNL     1       0.221  -1.394  -2.144  0.00  0.00    +0.135 A 
ATOM      3  N   UNL     1       1.114  -1.411  -3.182  0.00  0.00    -0.237 N 
ATOM      4  C   UNL     1       2.184  -0.645  -2.800  0.00  0.00    +0.137 A 
ATOM      5  N   UNL     1       1.953  -0.181  -1.593  0.00  0.00    -0.340 N 
ATOM      6  H   UNL     1       2.551   0.393  -1.089  0.00  0.00    +0.167 HD
ENDROOT
BRANCH   4   7
ATOM      7  C   UNL     1       3.392  -0.382  -3.610  0.00  0.00    +0.017 A 
ATOM      8  C   UNL     1       3.287  -0.226  -4.994  0.00  0.00    +0.011 A 
ATOM      9  C   UNL     1       4.418   0.019  -5.744  0.00  0.00    +0.001 A 
ATOM     10  C   UNL     1       5.654   0.111  -5.129  0.00  0.00    +0.000 A 
ATOM     11  C   UNL     1       5.765  -0.042  -3.758  0.00  0.00    +0.001 A 
ATOM     12  C   UNL     1       4.641  -0.281  -2.995  0.00  0.00    +0.011 A 
ENDBRANCH   4   7
BRANCH   3  13
ATOM     13  N   UNL     1       0.967  -2.066  -4.371  0.00  0.00    -0.295 N 
ATOM     14  H   UNL     1       0.592  -1.452  -5.079  0.00  0.00    +0.163 HD
ATOM     15  H   UNL     1       1.840  -2.473  -4.671  0.00  0.00    +0.163 HD
ENDBRANCH   3  13
BRANCH   2  16
ATOM     16  N   UNL     1      -1.012  -2.043  -2.099  0.00  0.00    -0.342 N 
ATOM     17  H   UNL     1      -1.572  -1.967  -1.311  0.00  0.00    +0.144 HD
ATOM     18  H   UNL     1      -1.310  -2.571  -2.857  0.00  0.00    +0.144 HD
ENDBRANCH   2  16
BRANCH   1  20
ATOM     19  C   UNL     1      -0.056   1.191   0.308  0.00  0.00    +0.019 C 
ATOM     20  C   UNL     1       0.137  -0.321   0.169  0.00  0.00    +0.066 C 
BRANCH  20  21
ATOM     21  C   UNL     1       1.036  -0.816   1.272  0.00  0.00    -0.039 A 
ATOM     22  C   UNL     1       2.321  -0.320   1.392  0.00  0.00    +0.004 A 
ATOM     23  C   UNL     1       3.146  -0.775   2.404  0.00  0.00    +0.000 A 
ATOM     24  C   UNL     1       2.686  -1.725   3.297  0.00  0.00    +0.000 A 
ATOM     25  C   UNL     1       1.401  -2.220   3.178  0.00  0.00    +0.000 A 
ATOM     26  C   UNL     1       0.574  -1.762   2.168  0.00  0.00    +0.004 A 
ENDBRANCH  20  21
ENDBRANCH   1  20
TORSDOF 5
