REMARK  Name = ZINC39677968
REMARK  10 active torsions:
REMARK  status: ('A' for Active; 'I' for Inactive)
REMARK    1  A    between atoms: C_1  and  O_2
REMARK    2  A    between atoms: O_2  and  C_3
REMARK    3  A    between atoms: C_6  and  C_9
REMARK    4  A    between atoms: C_9  and  C_10
REMARK    5  A    between atoms: C_10  and  C_11
REMARK    6  A    between atoms: C_15  and  C_24
REMARK    7  A    between atoms: N_26  and  C_27
REMARK    8  A    between atoms: C_27  and  C_28
REMARK    9  A    between atoms: N_31  and  C_35
REMARK   10  A    between atoms: C_35  and  C_36
REMARK                            x       y       z     vdW  Elec       q    Type
REMARK                         _______ _______ _______ _____ _____    ______ ____
ROOT
ATOM      1  C   UNL     1       4.702  -3.430  -5.392  0.00  0.00    +0.216 C 
ATOM      2  O   UNL     1       4.072  -3.764  -6.373  0.00  0.00    -0.276 OA
ATOM      3  N   UNL     1       6.010  -3.741  -5.293  0.00  0.00    -0.300 N 
ATOM      4  C   UNL     1       6.936  -3.427  -4.180  0.00  0.00    +0.121 C 
ATOM      5  C   UNL     1       7.814  -4.691  -4.035  0.00  0.00    +0.100 C 
ATOM      6  C   UNL     1       7.752  -5.371  -5.412  0.00  0.00    -0.004 C 
ATOM      7  C   UNL     1       6.845  -4.478  -6.271  0.00  0.00    +0.115 C 
ATOM      8  C   UNL     1       7.144  -6.765  -5.287  0.00  0.00    -0.010 C 
ATOM      9  C   UNL     1       7.147  -7.443  -6.659  0.00  0.00    -0.082 C 
ATOM     10  N   UNL     1       8.523  -7.531  -7.161  0.00  0.00    +0.379 N 
ATOM     11  C   UNL     1       9.069  -6.184  -7.367  0.00  0.00    -0.082 C 
ATOM     12  C   UNL     1       9.147  -5.452  -6.025  0.00  0.00    -0.010 C 
ATOM     13  H   UNL     1       9.094  -8.025  -6.491  0.00  0.00    -0.086 HD
ATOM     14  H   UNL     1       8.529  -8.033  -8.037  0.00  0.00    -0.086 HD
ENDROOT
BRANCH   5  15
ATOM     15  C   UNL     1       9.232  -4.308  -3.698  0.00  0.00    +0.218 C 
ATOM     16  O   UNL     1       9.689  -3.259  -4.100  0.00  0.00    -0.275 OA
ATOM     17  N   UNL     1       9.993  -5.132  -2.951  0.00  0.00    -0.313 N 
ATOM     18  H   UNL     1       9.628  -5.972  -2.630  0.00  0.00    +0.149 HD
BRANCH  17  19
ATOM     19  C   UNL     1      11.372  -4.761  -2.624  0.00  0.00    +0.137 C 
BRANCH  19  20
ATOM     20  C   UNL     1      12.008  -5.861  -1.773  0.00  0.00    +0.149 C 
ATOM     21  C   UNL     1      13.405  -5.420  -1.328  0.00  0.00    +0.118 C 
ATOM     22  N   UNL     1      14.042  -6.511  -0.576  0.00  0.00    -0.293 NA
ATOM     23  C   UNL     1      14.135  -7.726  -1.399  0.00  0.00    +0.113 C 
ATOM     24  C   UNL     1      12.731  -8.144  -1.843  0.00  0.00    +0.175 C 
ATOM     25  O   UNL     1      12.115  -7.061  -2.545  0.00  0.00    -0.372 OA
BRANCH  22  26
ATOM     26  C   UNL     1      15.365  -6.107  -0.082  0.00  0.00    +0.119 C 
BRANCH  26  27
ATOM     27  C   UNL     1      15.880  -7.146   0.881  0.00  0.00    -0.033 A 
ATOM     28  C   UNL     1      15.593  -7.041   2.230  0.00  0.00    +0.005 A 
ATOM     29  C   UNL     1      16.065  -7.993   3.113  0.00  0.00    +0.000 A 
ATOM     30  C   UNL     1      16.823  -9.052   2.648  0.00  0.00    +0.000 A 
ATOM     31  C   UNL     1      17.109  -9.158   1.300  0.00  0.00    +0.000 A 
ATOM     32  C   UNL     1      16.633  -8.207   0.416  0.00  0.00    +0.005 A 
ENDBRANCH  26  27
ENDBRANCH  22  26
ENDBRANCH  19  20
ENDBRANCH  17  19
ENDBRANCH   5  15
BRANCH   1  33
ATOM     33  C   UNL     1       4.022  -2.668  -4.284  0.00  0.00    +0.100 C 
BRANCH  33  34
ATOM     34  C   UNL     1       2.552  -2.447  -4.644  0.00  0.00    +0.044 C 
BRANCH  34  38
ATOM     35  C   UNL     1       0.625  -0.285  -1.501  0.00  0.00    +0.120 A 
ATOM     36  C   UNL     1       1.224   0.398  -2.549  0.00  0.00    +0.046 A 
ATOM     37  C   UNL     1       1.847  -0.303  -3.563  0.00  0.00    +0.007 A 
ATOM     38  C   UNL     1       1.872  -1.685  -3.535  0.00  0.00    -0.047 A 
ATOM     39  C   UNL     1       1.275  -2.369  -2.493  0.00  0.00    +0.007 A 
ATOM     40  C   UNL     1       0.657  -1.672  -1.473  0.00  0.00    +0.046 A 
BRANCH  35  42
ATOM     41  C   UNL     1       0.018   1.828  -0.597  0.00  0.00    +0.277 C 
ATOM     42  O   UNL     1       0.012   0.402  -0.502  0.00  0.00    -0.495 OA
ENDBRANCH  35  42
ENDBRANCH  34  38
ENDBRANCH  33  34
ENDBRANCH   1  33
TORSDOF 9
