REMARK  Name = ZINC20686330
REMARK  10 active torsions:
REMARK  status: ('A' for Active; 'I' for Inactive)
REMARK    1  A    between atoms: C_1  and  C_2
REMARK    2  A    between atoms: C_2  and  C_3
REMARK    3  A    between atoms: C_2  and  C_4
REMARK    4  A    between atoms: C_2  and  N_5
REMARK    5  A    between atoms: N_5  and  S_6
REMARK    6  A    between atoms: S_6  and  C_9
REMARK    7  A    between atoms: C_22  and  C_25
REMARK    8  A    between atoms: C_28  and  N_31
REMARK    9  A    between atoms: N_31  and  C_32
REMARK   10  A    between atoms: N_31  and  C_33
REMARK                            x       y       z     vdW  Elec       q    Type
REMARK                         _______ _______ _______ _____ _____    ______ ____
ROOT
ATOM      1  C   UNL     1       1.629  -4.071   0.352  0.00  0.00    +0.106 A 
ATOM      2  C   UNL     1       0.684  -3.203  -0.164  0.00  0.00    +0.030 A 
ATOM      3  C   UNL     1       0.978  -1.862  -0.306  0.00  0.00    +0.025 A 
ATOM      4  C   UNL     1       2.225  -1.375   0.066  0.00  0.00    +0.031 A 
ATOM      5  C   UNL     1       3.181  -2.261   0.574  0.00  0.00    -0.018 A 
ATOM      6  C   UNL     1       2.874  -3.597   0.720  0.00  0.00    +0.034 A 
ATOM      7  C   UNL     1       4.509  -1.709   0.918  0.00  0.00    +0.049 C 
ATOM      8  C   UNL     1       5.381  -2.342   1.942  0.00  0.00    -0.023 C 
ATOM      9  C   UNL     1       6.102  -1.395   2.529  0.00  0.00    -0.030 C 
ATOM     10  C   UNL     1       5.735  -0.025   1.954  0.00  0.00    +0.033 C 
ATOM     11  C   UNL     1       4.298  -0.268   1.472  0.00  0.00    +0.029 C 
ATOM     12  C   UNL     1       3.816   0.553   0.290  0.00  0.00    +0.105 C 
ATOM     13  N   UNL     1       2.495  -0.008  -0.072  0.00  0.00    -0.336 N 
ATOM     14  H   UNL     1       1.704   0.653  -0.458  0.00  0.00    +0.147 HD
ENDROOT
BRANCH  12  15
ATOM     15  C   UNL     1       4.774   0.415  -0.865  0.00  0.00    -0.027 A 
ATOM     16  C   UNL     1       5.924   1.181  -0.902  0.00  0.00    +0.007 A 
ATOM     17  C   UNL     1       6.807   1.054  -1.956  0.00  0.00    +0.023 A 
ATOM     18  C   UNL     1       6.533   0.163  -2.986  0.00  0.00    +0.029 A 
ATOM     19  C   UNL     1       5.373  -0.601  -2.949  0.00  0.00    +0.023 A 
ATOM     20  C   UNL     1       4.497  -0.473  -1.889  0.00  0.00    +0.007 A 
BRANCH  18  21
ATOM     21  N   UNL     1       7.421   0.036  -4.057  0.00  0.00    -0.336 N 
ATOM     22  C   UNL     1       7.077  -0.818  -5.196  0.00  0.00    +0.129 C 
ATOM     23  C   UNL     1       8.696   0.757  -4.040  0.00  0.00    +0.129 C 
ENDBRANCH  18  21
ENDBRANCH  12  15
BRANCH   1  24
ATOM     24  S   UNL     1       1.245  -5.780   0.540  0.00  0.00    +0.059 S 
ATOM     25  O   UNL     1       2.257  -6.335   1.370  0.00  0.00    -0.153 OA
ATOM     26  O   UNL     1      -0.135  -5.853   0.869  0.00  0.00    -0.153 OA
BRANCH  24  27
ATOM     27  N   UNL     1       1.415  -6.487  -0.948  0.00  0.00    -0.185 NA
ATOM     28  H   UNL     1       0.516  -6.718  -1.539  0.00  0.00    +0.149 HD
BRANCH  27  30
ATOM     29  C   UNL     1       3.601  -7.563  -0.738  0.00  0.00    +0.029 C 
ATOM     30  C   UNL     1       2.741  -6.599  -1.559  0.00  0.00    +0.032 C 
ATOM     31  C   UNL     1       2.602  -7.130  -2.987  0.00  0.00    +0.029 C 
ATOM     32  C   UNL     1       3.407  -5.222  -1.590  0.00  0.00    +0.029 C 
ENDBRANCH  27  30
ENDBRANCH  24  27
ENDBRANCH   1  24
TORSDOF 5
