REMARK  Name = ZINC63588635
REMARK  7 active torsions:
REMARK  status: ('A' for Active; 'I' for Inactive)
REMARK    1  A    between atoms: C_1  and  C_2
REMARK    2  A    between atoms: C_7  and  N_8
REMARK    3  A    between atoms: N_10  and  C_11
REMARK    4  A    between atoms: C_11  and  C_12
REMARK    5  A    between atoms: C_12  and  C_13
REMARK    6  A    between atoms: N_22  and  C_23
REMARK    7  A    between atoms: C_23  and  C_25
REMARK                            x       y       z     vdW  Elec       q    Type
REMARK                         _______ _______ _______ _____ _____    ______ ____
ROOT
ATOM      1  N   UNL     1      -1.071  -0.747   3.239  0.00  0.00    -0.328 N 
ATOM      2  C   UNL     1      -0.193  -0.967   4.262  0.00  0.00    +0.194 C 
ATOM      3  N   UNL     1       0.247   0.078   5.020  0.00  0.00    -0.357 N 
ATOM      4  N   UNL     1       0.231  -2.195   4.517  0.00  0.00    -0.143 NA
ATOM      5  H   UNL     1       0.900  -0.073   5.721  0.00  0.00    +0.162 HD
ATOM      6  H   UNL     1      -1.999  -1.012   3.332  0.00  0.00    +0.169 HD
ENDROOT
BRANCH   1  13
ATOM      7  C   UNL     1      -3.016  -0.039   1.288  0.00  0.00    +0.046 C 
ATOM      8  C   UNL     1      -1.547   0.223   1.080  0.00  0.00    -0.026 A 
ATOM      9  C   UNL     1      -1.111   0.829  -0.083  0.00  0.00    +0.025 A 
ATOM     10  C   UNL     1       0.238   1.069  -0.275  0.00  0.00    +0.041 A 
ATOM     11  C   UNL     1       1.154   0.705   0.697  0.00  0.00    +0.022 A 
ATOM     12  C   UNL     1       0.723   0.099   1.861  0.00  0.00    +0.027 A 
ATOM     13  C   UNL     1      -0.631  -0.139   2.058  0.00  0.00    +0.045 A 
ATOM     14 CL   UNL     1       0.783   1.830  -1.737  0.00  0.00    -0.084 Cl
ENDBRANCH   1  13
BRANCH   4  15
ATOM     15  C   UNL     1      -0.050  -3.192   3.666  0.00  0.00    +0.270 C 
ATOM     16  O   UNL     1      -0.589  -2.949   2.601  0.00  0.00    -0.268 OA
BRANCH  15  17
ATOM     17  C   UNL     1       0.293  -4.586   4.021  0.00  0.00    +0.043 A 
ATOM     18  C   UNL     1       0.801  -4.881   5.287  0.00  0.00    +0.017 A 
ATOM     19  C   UNL     1       1.121  -6.181   5.616  0.00  0.00    +0.050 A 
ATOM     20  C   UNL     1       0.940  -7.200   4.691  0.00  0.00    +0.166 A 
ATOM     21  C   UNL     1       0.432  -6.911   3.424  0.00  0.00    +0.167 A 
ATOM     22  C   UNL     1       0.105  -5.611   3.091  0.00  0.00    +0.062 A 
ATOM     23  O   UNL     1       0.352  -8.074   2.712  0.00  0.00    -0.453 OA
ATOM     24  C   UNL     1       1.195  -9.010   3.410  0.00  0.00    +0.466 C 
ATOM     25  O   UNL     1       1.175  -8.541   4.771  0.00  0.00    -0.453 OA
ENDBRANCH  15  17
ENDBRANCH   4  15
BRANCH   3  26
ATOM     26  C   UNL     1      -0.266   1.428   4.775  0.00  0.00    +0.120 C 
BRANCH  26  27
ATOM     27  C   UNL     1       0.419   2.414   5.723  0.00  0.00    +0.054 C 
BRANCH  27  28
ATOM     28  C   UNL     1      -0.191   3.781   5.554  0.00  0.00    -0.040 C 
ATOM     29  C   UNL     1      -1.318   4.247   6.139  0.00  0.00    -0.001 A 
ATOM     30  C   UNL     1      -2.277   3.642   7.072  0.00  0.00    +0.010 A 
ATOM     31  C   UNL     1      -3.334   4.373   7.492  0.00  0.00    +0.001 A 
ATOM     32  C   UNL     1      -3.537   5.691   7.059  0.00  0.00    +0.002 A 
ATOM     33  C   UNL     1      -2.701   6.314   6.203  0.00  0.00    +0.026 A 
ATOM     34  C   UNL     1      -1.556   5.639   5.697  0.00  0.00    +0.043 A 
ATOM     35  N   UNL     1      -0.612   6.020   4.871  0.00  0.00    -0.380 N 
ATOM     36  C   UNL     1       0.335   4.913   4.700  0.00  0.00    +0.144 C 
ATOM     37  H   UNL     1      -0.548   6.890   4.447  0.00  0.00    +0.160 HD
ENDBRANCH  27  28
ENDBRANCH  26  27
ENDBRANCH   3  26
TORSDOF 6
