REMARK  Name = ZINC01070186
REMARK  6 active torsions:
REMARK  status: ('A' for Active; 'I' for Inactive)
REMARK    1  A    between atoms: C_1  and  C_2
REMARK    2  A    between atoms: C_2  and  O_3
REMARK    3  A    between atoms: O_3  and  C_4
REMARK    4  A    between atoms: C_7  and  C_10
REMARK    5  A    between atoms: C_24  and  N_28
REMARK    6  A    between atoms: C_25  and  C_26
REMARK                            x       y       z     vdW  Elec       q    Type
REMARK                         _______ _______ _______ _____ _____    ______ ____
ROOT
ATOM      1  C   UNL     1       1.109  -6.040  -1.847  0.00  0.00    +0.105 C 
ATOM      2  C   UNL     1       0.421  -6.443  -3.124  0.00  0.00    +0.092 A 
ATOM      3  C   UNL     1       1.147  -6.750  -4.236  0.00  0.00    +0.152 A 
ATOM      4  C   UNL     1       0.421  -7.139  -5.455  0.00  0.00    +0.060 A 
ATOM      5  C   UNL     1       1.105  -7.468  -6.627  0.00  0.00    +0.015 A 
ATOM      6  C   UNL     1       0.394  -7.827  -7.751  0.00  0.00    +0.001 A 
ATOM      7  C   UNL     1      -0.993  -7.862  -7.722  0.00  0.00    +0.004 A 
ATOM      8  C   UNL     1      -1.680  -7.540  -6.570  0.00  0.00    +0.047 A 
ATOM      9  C   UNL     1      -0.982  -7.175  -5.426  0.00  0.00    +0.143 A 
ATOM     10  O   UNL     1      -1.638  -6.857  -4.289  0.00  0.00    -0.422 OA
ATOM     11  C   UNL     1      -0.982  -6.505  -3.171  0.00  0.00    +0.345 A 
ATOM     12  O   UNL     1      -1.622  -6.233  -2.171  0.00  0.00    -0.245 OA
ATOM     13  O   UNL     1       2.493  -6.702  -4.235  0.00  0.00    -0.440 OA
ATOM     14  C   UNL     1       3.165  -6.728  -3.071  0.00  0.00    +0.199 C 
ATOM     15  C   UNL     1       2.562  -6.422  -1.900  0.00  0.00    +0.098 C 
ENDROOT
BRANCH   1  19
ATOM     16  C   UNL     1       0.777  -1.810  -1.336  0.00  0.00    +0.121 A 
ATOM     17  C   UNL     1       0.243  -2.669  -0.386  0.00  0.00    +0.046 A 
ATOM     18  C   UNL     1       0.351  -4.036  -0.554  0.00  0.00    +0.008 A 
ATOM     19  C   UNL     1       0.992  -4.548  -1.667  0.00  0.00    -0.034 A 
ATOM     20  C   UNL     1       1.525  -3.694  -2.615  0.00  0.00    +0.008 A 
ATOM     21  C   UNL     1       1.414  -2.327  -2.455  0.00  0.00    +0.046 A 
BRANCH  16  22
ATOM     22  O   UNL     1       0.671  -0.465  -1.174  0.00  0.00    -0.492 OA
BRANCH  22  24
ATOM     23  C   UNL     1      -0.019   1.526   0.010  0.00  0.00    +0.048 C 
ATOM     24  C   UNL     1       0.002  -0.004   0.002  0.00  0.00    +0.225 C 
ENDBRANCH  22  24
ENDBRANCH  16  22
ENDBRANCH   1  19
BRANCH  14  25
ATOM     25  N   UNL     1       4.494  -7.071  -3.071  0.00  0.00    -0.328 N 
ATOM     26  H   UNL     1       4.937  -7.292  -3.905  0.00  0.00    +0.145 HD
ATOM     27  H   UNL     1       4.990  -7.093  -2.238  0.00  0.00    +0.145 HD
ENDBRANCH  14  25
BRANCH  15  28
ATOM     28  C   UNL     1       3.324  -6.464  -0.688  0.00  0.00    +0.101 C 
ATOM     29  N   UNL     1       3.928  -6.498   0.273  0.00  0.00    -0.191 NA
ENDBRANCH  15  28
TORSDOF 5
