REMARK  Name = ZINC19336306
REMARK  5 active torsions:
REMARK  status: ('A' for Active; 'I' for Inactive)
REMARK    1  A    between atoms: C_6  and  C_7
REMARK    2  A    between atoms: N_10  and  C_19
REMARK    3  A    between atoms: C_12  and  C_14
REMARK    4  A    between atoms: C_19  and  C_20
REMARK    5  A    between atoms: C_26  and  C_29
REMARK                            x       y       z     vdW  Elec       q    Type
REMARK                         _______ _______ _______ _____ _____    ______ ____
ROOT
ATOM      1  C   UNL     1      -3.750  -0.786  -5.796  0.00  0.00    +0.010 C 
ATOM      2  C   UNL     1      -3.120   0.546  -5.318  0.00  0.00    -0.069 C 
ATOM      3  N   UNL     1      -2.194   0.116  -4.239  0.00  0.00    +0.386 N 
ATOM      4  C   UNL     1      -2.901  -0.955  -3.503  0.00  0.00    -0.068 C 
ATOM      5  C   UNL     1      -3.910  -1.585  -4.482  0.00  0.00    +0.029 C 
ATOM      6  H   UNL     1      -1.233  -0.238  -4.641  0.00  0.00    -0.081 HD
ENDROOT
BRANCH   1  12
ATOM      7  C   UNL     1      -6.101   0.067  -5.718  0.00  0.00    +0.005 A 
ATOM      8  C   UNL     1      -7.330   0.297  -6.308  0.00  0.00    +0.020 A 
ATOM      9  C   UNL     1      -7.552  -0.093  -7.617  0.00  0.00    +0.041 A 
ATOM     10  C   UNL     1      -6.542  -0.707  -8.336  0.00  0.00    +0.020 A 
ATOM     11  C   UNL     1      -5.312  -0.931  -7.746  0.00  0.00    +0.005 A 
ATOM     12  C   UNL     1      -5.091  -0.542  -6.439  0.00  0.00    -0.045 A 
ATOM     13 CL   UNL     1      -9.096   0.189  -8.357  0.00  0.00    -0.084 Cl
ENDBRANCH   1  12
BRANCH   5  14
ATOM     14  C   UNL     1      -3.580  -3.038  -4.710  0.00  0.00    +0.074 A 
ATOM     15  C   UNL     1      -2.311  -3.526  -4.659  0.00  0.00    +0.092 A 
ATOM     16  S   UNL     1      -2.587  -5.204  -4.993  0.00  0.00    +0.028 S 
ATOM     17  N   UNL     1      -4.156  -5.173  -5.160  0.00  0.00    -0.110 NA
ATOM     18  N   UNL     1      -4.496  -3.948  -4.969  0.00  0.00    -0.146 NA
ENDBRANCH   5  14
BRANCH   3  19
ATOM     19  C   UNL     1      -1.866   1.237  -3.349  0.00  0.00    +0.019 C 
BRANCH  19  20
ATOM     20  C   UNL     1      -1.132   0.720  -2.138  0.00  0.00    +0.199 C 
ATOM     21  O   UNL     1      -0.905  -0.467  -2.028  0.00  0.00    -0.278 OA
ATOM     22  N   UNL     1      -0.729   1.575  -1.178  0.00  0.00    -0.302 N 
ATOM     23  C   UNL     1      -0.997   3.015  -1.297  0.00  0.00    +0.108 C 
ATOM     24  C   UNL     1      -1.712   3.490  -0.028  0.00  0.00    +0.020 C 
ATOM     25  C   UNL     1      -0.878   3.105   1.196  0.00  0.00    +0.016 C 
ATOM     26  C   UNL     1      -0.736   1.583   1.264  0.00  0.00    +0.092 C 
ATOM     27  C   UNL     1      -0.013   1.086   0.008  0.00  0.00    +0.120 C 
BRANCH  26  28
ATOM     28  C   UNL     1       0.061   1.203   2.486  0.00  0.00    +0.215 C 
ATOM     29  O   UNL     1       0.473   2.065   3.233  0.00  0.00    -0.276 OA
ATOM     30  N   UNL     1       0.315  -0.094   2.748  0.00  0.00    -0.329 N 
ATOM     31  H   UNL     1       0.896  -0.371   3.640  0.00  0.00    +0.145 HD
ATOM     32  H   UNL     1      -0.059  -0.876   2.071  0.00  0.00    +0.145 HD
ENDBRANCH  26  28
ENDBRANCH  19  20
ENDBRANCH   3  19
TORSDOF 5
