REMARK  Name = ZINC12599633
REMARK  9 active torsions:
REMARK  status: ('A' for Active; 'I' for Inactive)
REMARK    1  A    between atoms: N_9  and  S_29
REMARK    2  A    between atoms: C_10  and  C_12
REMARK    3  A    between atoms: C_12  and  C_13
REMARK    4  A    between atoms: C_13  and  O_15
REMARK    5  A    between atoms: O_15  and  C_16
REMARK    6  A    between atoms: C_16  and  C_17
REMARK    7  A    between atoms: N_19  and  C_20
REMARK    8  A    between atoms: C_23  and  N_26
REMARK    9  A    between atoms: S_29  and  C_32
REMARK                            x       y       z     vdW  Elec       q    Type
REMARK                         _______ _______ _______ _____ _____    ______ ____
ROOT
ATOM      1  C   UNL     1      -2.169   2.650   6.255  0.00  0.00    +0.000 A 
ATOM      2  C   UNL     1      -2.944   3.621   5.648  0.00  0.00    +0.000 A 
ATOM      3  C   UNL     1      -3.470   3.391   4.394  0.00  0.00    +0.005 A 
ATOM      4  C   UNL     1      -3.226   2.193   3.736  0.00  0.00    -0.025 A 
ATOM      5  C   UNL     1      -2.449   1.228   4.335  0.00  0.00    -0.041 A 
ATOM      6  C   UNL     1      -1.924   1.460   5.601  0.00  0.00    +0.004 A 
ATOM      7  C   UNL     1      -2.127  -0.088   3.677  0.00  0.00    +0.052 C 
ATOM      8  C   UNL     1      -3.131  -0.398   2.561  0.00  0.00    +0.115 C 
ATOM      9  N   UNL     1      -3.266   0.812   1.734  0.00  0.00    -0.168 NA
ATOM     10  C   UNL     1      -3.839   2.002   2.371  0.00  0.00    +0.121 C 
ENDROOT
BRANCH   9  11
ATOM     11  S   UNL     1      -2.796   0.827   0.146  0.00  0.00    +0.068 S 
ATOM     12  O   UNL     1      -3.162   2.098  -0.374  0.00  0.00    -0.152 OA
ATOM     13  O   UNL     1      -3.255  -0.391  -0.425  0.00  0.00    -0.152 OA
BRANCH  11  14
ATOM     14  C   UNL     1      -1.035   0.761   0.123  0.00  0.00    +0.143 A 
ATOM     15  C   UNL     1      -0.222  -0.323   0.090  0.00  0.00    +0.036 A 
ATOM     16  C   UNL     1       1.147  -0.133   0.071  0.00  0.00    +0.010 A 
ATOM     17  C   UNL     1       1.636   1.131   0.091  0.00  0.00    +0.047 A 
ATOM     18  S   UNL     1       0.140   2.105   0.139  0.00  0.00    -0.077 S 
ENDBRANCH  11  14
ENDBRANCH   9  11
BRANCH  10  19
ATOM     19  C   UNL     1      -5.352   1.825   2.512  0.00  0.00    +0.146 C 
BRANCH  19  20
ATOM     20  C   UNL     1      -5.985   1.800   1.145  0.00  0.00    +0.309 C 
ATOM     21  O   UNL     1      -5.290   1.833   0.157  0.00  0.00    -0.251 OA
BRANCH  20  22
ATOM     22  O   UNL     1      -7.321   1.740   1.024  0.00  0.00    -0.455 OA
BRANCH  22  23
ATOM     23  C   UNL     1      -7.860   1.719  -0.323  0.00  0.00    +0.328 C 
BRANCH  23  24
ATOM     24  C   UNL     1      -9.365   1.652  -0.261  0.00  0.00    +0.255 C 
ATOM     25  O   UNL     1      -9.926   1.624   0.814  0.00  0.00    -0.272 OA
ATOM     26  N   UNL     1     -10.086   1.622  -1.399  0.00  0.00    -0.283 N 
ATOM     27  H   UNL     1      -9.642   1.715  -2.257  0.00  0.00    +0.155 HD
BRANCH  26  28
ATOM     28  C   UNL     1     -11.474   1.457  -1.343  0.00  0.00    +0.034 A 
ATOM     29  C   UNL     1     -12.129   0.731  -2.330  0.00  0.00    +0.025 A 
ATOM     30  C   UNL     1     -13.499   0.566  -2.270  0.00  0.00    +0.034 A 
ATOM     31  C   UNL     1     -14.220   1.132  -1.234  0.00  0.00    +0.126 A 
ATOM     32  C   UNL     1     -13.572   1.860  -0.253  0.00  0.00    +0.034 A 
ATOM     33  C   UNL     1     -12.201   2.024  -0.305  0.00  0.00    +0.025 A 
BRANCH  31  34
ATOM     34  N   UNL     1     -15.688   0.959  -1.176  0.00  0.00    +0.056 N 
ATOM     35  O   UNL     1     -16.325   1.456  -0.265  0.00  0.00    -0.126 OA
ATOM     36  O   UNL     1     -16.261   0.318  -2.039  0.00  0.00    -0.126 OA
ENDBRANCH  31  34
ENDBRANCH  26  28
ENDBRANCH  23  24
ENDBRANCH  22  23
ENDBRANCH  20  22
ENDBRANCH  19  20
ENDBRANCH  10  19
TORSDOF 9
