REMARK  Name = ZINC02298711
REMARK  7 active torsions:
REMARK  status: ('A' for Active; 'I' for Inactive)
REMARK    1  A    between atoms: C_1  and  N_2
REMARK    2  A    between atoms: N_2  and  C_3
REMARK    3  A    between atoms: C_3  and  N_5
REMARK    4  A    between atoms: N_5  and  N_6
REMARK    5  A    between atoms: N_13  and  C_14
REMARK    6  A    between atoms: C_19  and  O_20
REMARK    7  A    between atoms: O_20  and  C_21
REMARK                            x       y       z     vdW  Elec       q    Type
REMARK                         _______ _______ _______ _____ _____    ______ ____
ROOT
ATOM      1  N   UNL     1      -2.408   1.053   2.377  0.00  0.00    -0.234 N 
ATOM      2  C   UNL     1      -3.008   0.685   1.201  0.00  0.00    +0.220 A 
ATOM      3  N   UNL     1      -4.130  -0.003   1.238  0.00  0.00    -0.214 NA
ATOM      4  C   UNL     1      -4.743  -0.383   0.112  0.00  0.00    +0.084 A 
ATOM      5  C   UNL     1      -4.211  -0.025  -1.118  0.00  0.00    +0.050 A 
ATOM      6  C   UNL     1      -3.016   0.706  -1.151  0.00  0.00    +0.264 A 
ATOM      7  O   UNL     1      -2.515   1.032  -2.215  0.00  0.00    -0.267 OA
ATOM      8  N   UNL     1      -2.429   1.038   0.019  0.00  0.00    -0.244 N 
ATOM      9  C   UNL     1      -4.912  -0.406  -2.393  0.00  0.00    +0.007 C 
ATOM     10  C   UNL     1      -3.892  -0.451  -3.535  0.00  0.00    +0.012 C 
ATOM     11  C   UNL     1      -4.601  -0.832  -4.836  0.00  0.00    +0.001 C 
ATOM     12  C   UNL     1      -5.673   0.211  -5.157  0.00  0.00    +0.000 C 
ATOM     13  C   UNL     1      -6.691   0.263  -4.016  0.00  0.00    +0.001 C 
ATOM     14  C   UNL     1      -5.981   0.643  -2.716  0.00  0.00    +0.012 C 
ATOM     15  C   UNL     1      -5.573  -1.776  -2.253  0.00  0.00    +0.047 C 
ATOM     16  C   UNL     1      -6.411  -1.837  -1.004  0.00  0.00    -0.037 A 
ATOM     17  C   UNL     1      -5.995  -1.170   0.147  0.00  0.00    +0.004 A 
ATOM     18  C   UNL     1      -6.757  -1.246   1.311  0.00  0.00    +0.010 A 
ATOM     19  C   UNL     1      -7.930  -1.974   1.313  0.00  0.00    +0.001 A 
ATOM     20  C   UNL     1      -8.347  -2.622   0.164  0.00  0.00    +0.000 A 
ATOM     21  C   UNL     1      -7.590  -2.555  -0.991  0.00  0.00    +0.004 A 
ATOM     22  H   UNL     1      -1.581   1.559   2.362  0.00  0.00    +0.173 HD
ENDROOT
BRANCH   8  23
ATOM     23  C   UNL     1      -1.223   1.753   0.017  0.00  0.00    +0.094 A 
ATOM     24  C   UNL     1      -0.013   1.076   0.008  0.00  0.00    +0.030 A 
ATOM     25  C   UNL     1       1.174   1.783   0.000  0.00  0.00    +0.002 A 
ATOM     26  C   UNL     1       1.160   3.166   0.007  0.00  0.00    +0.004 A 
ATOM     27  C   UNL     1      -0.043   3.848   0.023  0.00  0.00    +0.048 A 
ATOM     28  C   UNL     1      -1.238   3.146   0.030  0.00  0.00    +0.144 A 
BRANCH  28  29
ATOM     29  O   UNL     1      -2.421   3.815   0.045  0.00  0.00    -0.493 OA
ATOM     30  C   UNL     1      -2.359   5.243   0.052  0.00  0.00    +0.277 C 
ENDBRANCH  28  29
ENDBRANCH   8  23
BRANCH   1  31
ATOM     31  N   UNL     1      -2.990   0.698   3.601  0.00  0.00    -0.246 N 
ATOM     32  H   UNL     1      -3.817   0.192   3.616  0.00  0.00    +0.172 HD
BRANCH  31  33
ATOM     33  C   UNL     1      -2.400   1.060   4.758  0.00  0.00    +0.147 C 
ATOM     34  S   UNL     1      -3.111   0.626   6.253  0.00  0.00    -0.017 S 
BRANCH  33  36
ATOM     35  C   UNL     1      -0.610   2.156   5.994  0.00  0.00    +0.127 C 
ATOM     36  N   UNL     1      -1.251   1.763   4.737  0.00  0.00    -0.329 N 
ATOM     37  H   UNL     1      -0.848   2.009   3.889  0.00  0.00    +0.147 HD
ENDBRANCH  33  36
ENDBRANCH  31  33
ENDBRANCH   1  31
TORSDOF 5
