REMARK  Name = ZINC13037825
REMARK  7 active torsions:
REMARK  status: ('A' for Active; 'I' for Inactive)
REMARK    1  A    between atoms: C_1  and  N_2
REMARK    2  A    between atoms: N_2  and  C_3
REMARK    3  A    between atoms: C_4  and  N_19
REMARK    4  A    between atoms: N_5  and  C_12
REMARK    5  A    between atoms: C_12  and  C_13
REMARK    6  A    between atoms: C_20  and  C_22
REMARK    7  A    between atoms: C_29  and  C_34
REMARK                            x       y       z     vdW  Elec       q    Type
REMARK                         _______ _______ _______ _____ _____    ______ ____
ROOT
ATOM      1  C   UNL     1      -0.777  12.247  -2.476  0.00  0.00    +0.139 C 
ATOM      2  N   UNL     1      -0.520  11.578  -3.753  0.00  0.00    -0.263 N 
ATOM      3  C   UNL     1      -0.364  10.240  -3.794  0.00  0.00    +0.251 C 
ATOM      4  O   UNL     1      -0.535   9.577  -2.789  0.00  0.00    -0.270 OA
ENDROOT
BRANCH   3   5
ATOM      5  C   UNL     1       0.016   9.577  -5.062  0.00  0.00    +0.038 A 
ATOM      6  C   UNL     1       0.651  10.309  -6.067  0.00  0.00    +0.014 A 
ATOM      7  C   UNL     1       1.003   9.692  -7.248  0.00  0.00    +0.016 A 
ATOM      8  C   UNL     1       0.723   8.339  -7.435  0.00  0.00    +0.062 A 
ATOM      9  C   UNL     1       0.090   7.604  -6.431  0.00  0.00    -0.029 A 
ATOM     10  C   UNL     1      -0.263   8.223  -5.250  0.00  0.00    +0.017 A 
ATOM     11  C   UNL     1      -0.210   6.141  -6.627  0.00  0.00    +0.085 C 
ATOM     12  C   UNL     1      -0.232   5.797  -8.117  0.00  0.00    +0.211 C 
ATOM     13  O   UNL     1       0.975   6.316  -8.748  0.00  0.00    -0.453 OA
ATOM     14  C   UNL     1       1.094   7.667  -8.705  0.00  0.00    +0.340 C 
ATOM     15  O   UNL     1       1.486   8.300  -9.665  0.00  0.00    -0.245 OA
BRANCH  12  16
ATOM     16  C   UNL     1      -0.284   4.301  -8.287  0.00  0.00    -0.007 A 
ATOM     17  C   UNL     1      -1.488   3.679  -8.565  0.00  0.00    +0.007 A 
ATOM     18  C   UNL     1      -1.536   2.306  -8.721  0.00  0.00    +0.000 A 
ATOM     19  C   UNL     1      -0.382   1.555  -8.601  0.00  0.00    +0.000 A 
ATOM     20  C   UNL     1       0.821   2.177  -8.319  0.00  0.00    +0.000 A 
ATOM     21  C   UNL     1       0.870   3.550  -8.166  0.00  0.00    +0.007 A 
ENDBRANCH  12  16
ENDBRANCH   3   5
BRANCH   2  22
ATOM     22  C   UNL     1      -0.436  12.334  -4.940  0.00  0.00    +0.140 A 
ATOM     23  C   UNL     1      -1.262  12.054  -6.011  0.00  0.00    +0.128 A 
ATOM     24  N   UNL     1      -1.156  12.810  -7.155  0.00  0.00    -0.276 N 
ATOM     25  C   UNL     1      -0.259  13.809  -7.231  0.00  0.00    +0.331 A 
ATOM     26  O   UNL     1      -0.180  14.464  -8.252  0.00  0.00    -0.246 OA
ATOM     27  N   UNL     1       0.554  14.095  -6.199  0.00  0.00    -0.273 N 
ATOM     28  H   UNL     1       1.217  14.840  -6.284  0.00  0.00    +0.173 HD
ATOM     29  C   UNL     1       0.487  13.390  -5.053  0.00  0.00    +0.277 A 
ATOM     30  O   UNL     1       1.225  13.662  -4.121  0.00  0.00    -0.266 OA
BRANCH  23  31
ATOM     31  N   UNL     1      -2.179  11.033  -5.934  0.00  0.00    -0.343 N 
ATOM     32  H   UNL     1      -2.332  10.582  -5.089  0.00  0.00    +0.144 HD
ATOM     33  H   UNL     1      -2.672  10.764  -6.724  0.00  0.00    +0.144 HD
ENDBRANCH  23  31
BRANCH  24  34
ATOM     34  C   UNL     1      -2.026  12.524  -8.299  0.00  0.00    +0.163 C 
BRANCH  34  35
ATOM     35  C   UNL     1      -3.292  13.334  -8.181  0.00  0.00    -0.028 A 
ATOM     36  C   UNL     1      -4.388  12.812  -7.519  0.00  0.00    +0.005 A 
ATOM     37  C   UNL     1      -5.547  13.556  -7.408  0.00  0.00    +0.000 A 
ATOM     38  C   UNL     1      -5.614  14.819  -7.967  0.00  0.00    +0.000 A 
ATOM     39  C   UNL     1      -4.521  15.339  -8.633  0.00  0.00    +0.000 A 
ATOM     40  C   UNL     1      -3.359  14.596  -8.741  0.00  0.00    +0.005 A 
ENDBRANCH  34  35
ENDBRANCH  24  34
ENDBRANCH   2  22
TORSDOF 6
