REMARK  Name = ZINC32092255
REMARK  4 active torsions:
REMARK  status: ('A' for Active; 'I' for Inactive)
REMARK    1  A    between atoms: C_11  and  C_12
REMARK    2  A    between atoms: C_12  and  C_14
REMARK    3  A    between atoms: C_12  and  N_17
REMARK    4  A    between atoms: C_27  and  C_30
REMARK                            x       y       z     vdW  Elec       q    Type
REMARK                         _______ _______ _______ _____ _____    ______ ____
ROOT
ATOM      1  N   UNL     1      -4.419   2.706   7.372  0.00  0.00    +0.393 N 
ATOM      2  C   UNL     1      -5.189   3.453   6.351  0.00  0.00    -0.076 C 
ATOM      3  C   UNL     1      -4.370   4.510   5.655  0.00  0.00    +0.000 C 
ATOM      4  C   UNL     1      -3.753   3.905   4.375  0.00  0.00    +0.104 C 
ATOM      5  N   UNL     1      -2.667   3.072   4.672  0.00  0.00    -0.317 N 
ATOM      6  C   UNL     1      -3.000   1.904   5.512  0.00  0.00    +0.088 C 
ATOM      7  C   UNL     1      -3.047   2.359   6.949  0.00  0.00    -0.058 C 
ATOM      8  C   UNL     1      -2.008   2.680   3.512  0.00  0.00    +0.121 A 
ATOM      9  C   UNL     1      -1.522   3.646   2.635  0.00  0.00    +0.044 A 
ATOM     10  C   UNL     1      -0.864   3.242   1.488  0.00  0.00    +0.017 A 
ATOM     11  C   UNL     1      -0.722   1.881   1.250  0.00  0.00    +0.073 A 
ATOM     12  C   UNL     1      -1.229   0.978   2.163  0.00  0.00    +0.125 A 
ATOM     13  N   UNL     1      -1.848   1.392   3.252  0.00  0.00    -0.240 NA
ATOM     14  H   UNL     1      -4.944   1.749   7.512  0.00  0.00    -0.080 HD
ENDROOT
BRANCH  11  15
ATOM     15  C   UNL     1      -0.017   1.395   0.010  0.00  0.00    +0.419 C 
ATOM     16  F   UNL     1       0.002  -0.004   0.002  0.00  0.00    -0.166 F 
ATOM     17  F   UNL     1       1.296   1.879  -0.000  0.00  0.00    -0.166 F 
ATOM     18  F   UNL     1      -0.694   1.858  -1.124  0.00  0.00    -0.166 F 
ENDBRANCH  11  15
BRANCH   1  19
ATOM     19  C   UNL     1      -4.409   3.425   8.653  0.00  0.00    +0.080 C 
BRANCH  19  30
ATOM     20  C   UNL     1      -2.324   4.571  12.692  0.00  0.00    +0.021 A 
ATOM     21  C   UNL     1      -2.981   4.410  11.505  0.00  0.00    +0.011 A 
ATOM     22  C   UNL     1      -3.023   3.153  10.900  0.00  0.00    +0.002 A 
ATOM     23  C   UNL     1      -2.390   2.057  11.514  0.00  0.00    +0.048 A 
ATOM     24  C   UNL     1      -1.727   2.242  12.723  0.00  0.00    +0.046 A 
ATOM     25  C   UNL     1      -1.697   3.493  13.303  0.00  0.00    +0.043 A 
ATOM     26 CL   UNL     1      -0.869   3.721  14.812  0.00  0.00    -0.083 Cl
ATOM     27  N   UNL     1      -2.594   0.963  10.703  0.00  0.00    -0.360 N 
ATOM     28  H   UNL     1      -2.180  -0.016  10.986  0.00  0.00    +0.165 HD
ATOM     29  C   UNL     1      -3.332   1.326   9.609  0.00  0.00    +0.086 A 
ATOM     30  C   UNL     1      -3.618   2.636   9.665  0.00  0.00    -0.025 A 
ENDBRANCH  19  30
BRANCH  19  31
ATOM     31  C   UNL     1      -5.823   3.597   9.144  0.00  0.00    +0.347 C 
ATOM     32  O   UNL     1      -6.745   3.166   8.494  0.00  0.00    -0.248 OA
ATOM     33  O   UNL     1      -6.059   4.230  10.304  0.00  0.00    -0.248 OA
ENDBRANCH  19  31
ENDBRANCH   1  19
TORSDOF 4
