REMARK  Name = ZINC12516665
REMARK  4 active torsions:
REMARK  status: ('A' for Active; 'I' for Inactive)
REMARK    1  A    between atoms: C_4  and  N_7
REMARK    2  A    between atoms: C_10  and  C_15
REMARK    3  A    between atoms: C_15  and  N_16
REMARK    4  A    between atoms: N_16  and  C_17
REMARK                            x       y       z     vdW  Elec       q    Type
REMARK                         _______ _______ _______ _____ _____    ______ ____
ROOT
ATOM      1  N   UNL     1       1.114   3.382   0.009  0.00  0.00    -0.284 N 
ATOM      2  C   UNL     1       1.120   2.010   0.172  0.00  0.00    +0.224 A 
ATOM      3  N   UNL     1       2.271   1.341   0.148  0.00  0.00    -0.198 NA
ATOM      4  C   UNL     1       2.278   0.029   0.302  0.00  0.00    +0.153 A 
ATOM      5  N   UNL     1       1.143  -0.625   0.482  0.00  0.00    -0.198 NA
ATOM      6  C   UNL     1      -0.011   0.037   0.507  0.00  0.00    +0.217 A 
ATOM      7  N   UNL     1      -0.022   1.357   0.351  0.00  0.00    -0.181 NA
ATOM      8  N   UNL     1      -1.195  -0.646   0.694  0.00  0.00    -0.327 N 
ATOM      9  H   UNL     1       1.952   3.868  -0.042  0.00  0.00    +0.155 HD
ATOM     10  H   UNL     1      -2.037  -0.163   0.713  0.00  0.00    +0.145 HD
ATOM     11  H   UNL     1      -1.187  -1.610   0.807  0.00  0.00    +0.145 HD
ENDROOT
BRANCH   1  15
ATOM     12  C   UNL     1      -2.502   5.431  -0.262  0.00  0.00    +0.000 A 
ATOM     13  C   UNL     1      -1.411   6.035   0.335  0.00  0.00    +0.002 A 
ATOM     14  C   UNL     1      -0.210   5.358   0.427  0.00  0.00    +0.023 A 
ATOM     15  C   UNL     1      -0.100   4.070  -0.082  0.00  0.00    +0.034 A 
ATOM     16  C   UNL     1      -1.197   3.469  -0.686  0.00  0.00    +0.023 A 
ATOM     17  C   UNL     1      -2.396   4.149  -0.770  0.00  0.00    +0.002 A 
ENDBRANCH   1  15
BRANCH   4  18
ATOM     18  C   UNL     1       3.583  -0.724   0.275  0.00  0.00    +0.178 C 
BRANCH  18  19
ATOM     19  N   UNL     1       3.883  -1.130  -1.100  0.00  0.00    -0.337 N 
ATOM     20  H   UNL     1       3.272  -0.901  -1.818  0.00  0.00    +0.147 HD
BRANCH  19  21
ATOM     21  C   UNL     1       5.050  -1.846  -1.378  0.00  0.00    +0.028 A 
ATOM     22  C   UNL     1       5.929  -2.169  -0.352  0.00  0.00    +0.024 A 
ATOM     23  C   UNL     1       7.080  -2.882  -0.629  0.00  0.00    +0.017 A 
ATOM     24  C   UNL     1       7.362  -3.264  -1.928  0.00  0.00    +0.018 A 
ATOM     25  C   UNL     1       6.491  -2.939  -2.953  0.00  0.00    +0.017 A 
ATOM     26  C   UNL     1       5.337  -2.232  -2.682  0.00  0.00    +0.024 A 
ATOM     27 BR   UNL     1       8.941  -4.234  -2.304  0.00  0.00    -0.050 Br
ENDBRANCH  19  21
ENDBRANCH  18  19
ENDBRANCH   4  18
TORSDOF 4
