REMARK  Name = ZINC23116868
REMARK  7 active torsions:
REMARK  status: ('A' for Active; 'I' for Inactive)
REMARK    1  A    between atoms: C_1  and  C_2
REMARK    2  A    between atoms: N_4  and  C_5
REMARK    3  A    between atoms: C_8  and  C_11
REMARK    4  A    between atoms: C_17  and  C_19
REMARK    5  A    between atoms: C_19  and  C_20
REMARK    6  A    between atoms: C_20  and  N_21
REMARK    7  A    between atoms: C_22  and  C_24
REMARK                            x       y       z     vdW  Elec       q    Type
REMARK                         _______ _______ _______ _____ _____    ______ ____
ROOT
ATOM      1  C   UNL     1      -0.003   0.004   0.024  0.00  0.00    +0.080 A 
ATOM      2  C   UNL     1       1.190  -0.635  -0.164  0.00  0.00    +0.076 A 
ATOM      3  S   UNL     1       2.324   0.744  -0.072  0.00  0.00    -0.060 S 
ATOM      4  C   UNL     1       1.102   2.019   0.205  0.00  0.00    +0.165 A 
ATOM      5  N   UNL     1      -0.016   1.317   0.203  0.00  0.00    -0.225 NA
ATOM      6  N   UNL     1       1.281   3.386   0.376  0.00  0.00    -0.265 N 
ATOM      7  C   UNL     1       2.521   3.913   0.343  0.00  0.00    +0.220 C 
ATOM      8  O   UNL     1       3.481   3.194   0.164  0.00  0.00    -0.275 OA
ATOM      9  H   UNL     1       0.410   4.039   0.538  0.00  0.00    +0.157 HD
ENDROOT
BRANCH   1  13
ATOM     10  C   UNL     1      -3.642  -2.199   0.029  0.00  0.00    +0.033 A 
ATOM     11  C   UNL     1      -3.664  -0.822   0.219  0.00  0.00    +0.024 A 
ATOM     12  C   UNL     1      -2.486  -0.106   0.217  0.00  0.00    +0.012 A 
ATOM     13  C   UNL     1      -1.272  -0.764   0.025  0.00  0.00    +0.001 A 
ATOM     14  C   UNL     1      -1.253  -2.144  -0.170  0.00  0.00    +0.012 A 
ATOM     15  C   UNL     1      -2.433  -2.856  -0.163  0.00  0.00    +0.024 A 
BRANCH  10  19
ATOM     16  C   UNL     1      -7.279  -3.096  -0.340  0.00  0.00    +0.109 C 
ATOM     17  C   UNL     1      -5.967  -2.362  -0.450  0.00  0.00    +0.214 C 
ATOM     18  O   UNL     1      -5.926  -1.267  -0.969  0.00  0.00    -0.276 OA
ATOM     19  N   UNL     1      -4.839  -2.923   0.030  0.00  0.00    -0.286 N 
ATOM     20  H   UNL     1      -4.860  -3.950   0.422  0.00  0.00    +0.155 HD
ENDBRANCH  10  19
ENDBRANCH   1  13
BRANCH   7  21
ATOM     21  C   UNL     1       2.715   5.396   0.528  0.00  0.00    +0.115 C 
BRANCH  21  22
ATOM     22  C   UNL     1       4.206   5.729   0.448  0.00  0.00    +0.113 C 
BRANCH  22  23
ATOM     23  N   UNL     1       4.394   7.171   0.628  0.00  0.00    -0.314 N 
ATOM     24  C   UNL     1       5.635   7.698   0.595  0.00  0.00    +0.219 C 
ATOM     25  O   UNL     1       6.595   6.978   0.417  0.00  0.00    -0.275 OA
ATOM     26  H   UNL     1       3.524   7.824   0.790  0.00  0.00    +0.149 HD
BRANCH  24  27
ATOM     27  C   UNL     1       5.829   9.181   0.781  0.00  0.00    +0.048 C 
ATOM     28  C   UNL     1       5.077   9.935  -0.318  0.00  0.00    +0.019 C 
ATOM     29  C   UNL     1       5.274  11.440  -0.130  0.00  0.00    -0.009 C 
ATOM     30  C   UNL     1       6.766  11.773  -0.210  0.00  0.00    +0.007 C 
ATOM     31  C   UNL     1       7.517  11.019   0.889  0.00  0.00    -0.009 C 
ATOM     32  C   UNL     1       7.320   9.514   0.701  0.00  0.00    +0.019 C 
ATOM     33  C   UNL     1       6.973  11.438   2.257  0.00  0.00    +0.007 C 
ATOM     34  C   UNL     1       5.482  11.104   2.337  0.00  0.00    -0.009 C 
ATOM     35  C   UNL     1       4.731  11.858   1.238  0.00  0.00    +0.007 C 
ATOM     36  C   UNL     1       5.285   9.599   2.149  0.00  0.00    +0.019 C 
ENDBRANCH  24  27
ENDBRANCH  22  23
ENDBRANCH  21  22
ENDBRANCH   7  21
TORSDOF 6
