REMARK  Name = ZINC40002620
REMARK  9 active torsions:
REMARK  status: ('A' for Active; 'I' for Inactive)
REMARK    1  A    between atoms: C_1  and  C_2
REMARK    2  A    between atoms: C_2  and  C_4
REMARK    3  A    between atoms: C_2  and  N_15
REMARK    4  A    between atoms: N_6  and  C_7
REMARK    5  A    between atoms: N_15  and  C_16
REMARK    6  A    between atoms: C_16  and  C_18
REMARK    7  A    between atoms: C_16  and  C_28
REMARK    8  A    between atoms: C_28  and  C_29
REMARK    9  A    between atoms: C_28  and  C_30
REMARK                            x       y       z     vdW  Elec       q    Type
REMARK                         _______ _______ _______ _____ _____    ______ ____
ROOT
ATOM      1  N   UNL     1       0.879  -0.400   1.240  0.00  0.00    +0.391 N 
ATOM      2  H   UNL     1       0.658  -1.351   1.495  0.00  0.00    -0.084 HD
ATOM      3  H   UNL     1       0.531  -0.211   0.312  0.00  0.00    -0.084 HD
ENDROOT
BRANCH   1   5
ATOM      4  C   UNL     1       0.613   0.103   3.622  0.00  0.00    -0.004 C 
ATOM      5  C   UNL     1       0.251   0.522   2.196  0.00  0.00    +0.014 C 
BRANCH   5   6
ATOM      6  C   UNL     1      -1.245   0.481   2.025  0.00  0.00    +0.203 C 
ATOM      7  O   UNL     1      -1.740  -0.245   1.189  0.00  0.00    -0.277 OA
ATOM      8  N   UNL     1      -2.034   1.251   2.801  0.00  0.00    -0.285 N 
ATOM      9  H   UNL     1      -1.637   1.889   3.414  0.00  0.00    +0.155 HD
BRANCH   8  10
ATOM     10  C   UNL     1      -3.427   1.129   2.721  0.00  0.00    +0.069 A 
ATOM     11  C   UNL     1      -3.996  -0.013   2.175  0.00  0.00    +0.027 A 
ATOM     12  C   UNL     1      -5.370  -0.130   2.098  0.00  0.00    +0.017 A 
ATOM     13  C   UNL     1      -6.181   0.890   2.564  0.00  0.00    +0.021 A 
ATOM     14  C   UNL     1      -5.619   2.030   3.110  0.00  0.00    +0.055 A 
ATOM     15  C   UNL     1      -4.243   2.151   3.195  0.00  0.00    +0.146 A 
ATOM     16  F   UNL     1      -3.694   3.262   3.733  0.00  0.00    -0.204 F 
ATOM     17 BR   UNL     1      -8.062   0.725   2.455  0.00  0.00    -0.050 Br
ENDBRANCH   8  10
ENDBRANCH   5   6
ENDBRANCH   1   5
BRANCH   1  18
ATOM     18  C   UNL     1       2.336  -0.213   1.264  0.00  0.00    -0.037 C 
BRANCH  18  19
ATOM     19  C   UNL     1       2.892  -0.767   2.551  0.00  0.00    -0.057 A 
ATOM     20  C   UNL     1       2.399  -1.953   3.062  0.00  0.00    +0.006 A 
ATOM     21  C   UNL     1       2.906  -2.464   4.242  0.00  0.00    +0.049 A 
ATOM     22  C   UNL     1       3.911  -1.787   4.917  0.00  0.00    +0.162 A 
ATOM     23  C   UNL     1       4.409  -0.596   4.402  0.00  0.00    +0.162 A 
ATOM     24  C   UNL     1       3.899  -0.091   3.215  0.00  0.00    +0.051 A 
ATOM     25  O   UNL     1       5.400   0.080   5.044  0.00  0.00    -0.485 OA
ATOM     26  C   UNL     1       5.630  -0.263   6.415  0.00  0.00    +0.270 C 
ATOM     27  C   UNL     1       5.659  -1.794   6.529  0.00  0.00    +0.270 C 
ATOM     28  O   UNL     1       4.397  -2.300   6.080  0.00  0.00    -0.485 OA
ENDBRANCH  18  19
BRANCH  18  29
ATOM     29  C   UNL     1       2.964  -0.948   0.079  0.00  0.00    -0.027 C 
ATOM     30  C   UNL     1       2.494  -0.305  -1.227  0.00  0.00    +0.006 C 
ATOM     31  C   UNL     1       4.489  -0.856   0.172  0.00  0.00    +0.006 C 
ENDBRANCH  18  29
ENDBRANCH   1  18
TORSDOF 6
