REMARK  Name = ZINC00222105
REMARK  2 active torsions:
REMARK  status: ('A' for Active; 'I' for Inactive)
REMARK    1  A    between atoms: C_5  and  C_7
REMARK    2  A    between atoms: C_10  and  C_18
REMARK                            x       y       z     vdW  Elec       q    Type
REMARK                         _______ _______ _______ _____ _____    ______ ____
ROOT
ATOM      1  C   UNL     1       1.228  -2.186  -0.022  0.00  0.00    +0.145 C 
ATOM      2  C   UNL     1       0.494  -2.703  -1.266  0.00  0.00    +0.059 C 
ATOM      3  C   UNL     1       0.271  -4.214  -1.145  0.00  0.00    +0.106 C 
ATOM      4  N   UNL     1      -0.592  -4.470   0.025  0.00  0.00    -0.307 N 
ATOM      5  C   UNL     1      -0.295  -3.752   1.176  0.00  0.00    +0.215 A 
ATOM      6  N   UNL     1       0.552  -2.692   1.172  0.00  0.00    -0.226 N 
ATOM      7  N   UNL     1       0.617  -2.228   2.486  0.00  0.00    -0.156 NA
ATOM      8  C   UNL     1      -0.164  -3.001   3.199  0.00  0.00    +0.247 A 
ATOM      9  N   UNL     1      -0.720  -3.924   2.399  0.00  0.00    -0.202 NA
ATOM     10  H   UNL     1      -1.326  -5.104  -0.008  0.00  0.00    +0.149 HD
ENDROOT
BRANCH   1  15
ATOM     11  C   UNL     1      -0.017   1.378   0.010  0.00  0.00    +0.001 A 
ATOM     12  C   UNL     1       1.171   2.087   0.002  0.00  0.00    +0.003 A 
ATOM     13  C   UNL     1       2.377   1.414  -0.013  0.00  0.00    +0.039 A 
ATOM     14  C   UNL     1       2.397   0.029  -0.021  0.00  0.00    +0.129 A 
ATOM     15  C   UNL     1       1.208  -0.679  -0.013  0.00  0.00    +0.012 A 
ATOM     16  C   UNL     1       0.002  -0.004   0.002  0.00  0.00    +0.008 A 
ATOM     17  F   UNL     1       3.577  -0.630  -0.036  0.00  0.00    -0.205 F 
ENDBRANCH   1  15
BRANCH   3  18
ATOM     18  C   UNL     1       1.595  -4.909  -0.962  0.00  0.00    -0.027 A 
ATOM     19  C   UNL     1       2.193  -4.939   0.284  0.00  0.00    +0.008 A 
ATOM     20  C   UNL     1       3.408  -5.577   0.453  0.00  0.00    +0.038 A 
ATOM     21  C   UNL     1       4.026  -6.184  -0.626  0.00  0.00    +0.123 A 
ATOM     22  C   UNL     1       3.426  -6.153  -1.874  0.00  0.00    +0.038 A 
ATOM     23  C   UNL     1       2.209  -5.520  -2.039  0.00  0.00    +0.008 A 
ATOM     24  F   UNL     1       5.214  -6.807  -0.463  0.00  0.00    -0.205 F 
ENDBRANCH   3  18
TORSDOF 2
