REMARK  Name = ZINC63985900
REMARK  13 active torsions:
REMARK  status: ('A' for Active; 'I' for Inactive)
REMARK    1  A    between atoms: C_1  and  C_2
REMARK    2  A    between atoms: C_2  and  N_3
REMARK    3  A    between atoms: N_3  and  C_4
REMARK    4  A    between atoms: C_4  and  C_5
REMARK    5  A    between atoms: C_6  and  C_8
REMARK    6  A    between atoms: C_8  and  O_9
REMARK    7  A    between atoms: O_9  and  C_10
REMARK    8  A    between atoms: N_17  and  C_19
REMARK    9  A    between atoms: C_19  and  C_20
REMARK   10  A    between atoms: C_20  and  C_21
REMARK   11  A    between atoms: C_27  and  C_29
REMARK   12  A    between atoms: C_29  and  C_30
REMARK   13  A    between atoms: C_30  and  C_31
REMARK                            x       y       z     vdW  Elec       q    Type
REMARK                         _______ _______ _______ _____ _____    ______ ____
ROOT
ATOM      1  C   UNL     1      -1.546  -0.618   4.862  0.00  0.00    +0.153 C 
ATOM      2  C   UNL     1      -1.829   0.806   5.326  0.00  0.00    +0.141 C 
ATOM      3  N   UNL     1      -1.190   1.089   6.608  0.00  0.00    -0.290 N 
ATOM      4  C   UNL     1      -1.573   0.341   7.810  0.00  0.00    +0.203 C 
ATOM      5  C   UNL     1      -0.833  -0.979   7.815  0.00  0.00    +0.233 C 
ATOM      6  O   UNL     1       0.027  -1.196   8.643  0.00  0.00    -0.274 OA
ATOM      7  N   UNL     1      -1.138  -1.908   6.895  0.00  0.00    -0.297 N 
ATOM      8  C   UNL     1      -2.136  -1.621   5.857  0.00  0.00    +0.141 C 
ATOM      9  C   UNL     1      -0.242   2.044   6.688  0.00  0.00    +0.216 C 
ATOM     10  O   UNL     1       0.077   2.666   5.696  0.00  0.00    -0.276 OA
ENDROOT
BRANCH   1  11
ATOM     11  O   UNL     1      -2.135  -0.824   3.577  0.00  0.00    -0.364 OA
BRANCH  11  12
ATOM     12  C   UNL     1      -1.274  -0.497   2.484  0.00  0.00    +0.256 C 
BRANCH  12  14
ATOM     13  N   UNL     1      -1.372  -0.511   0.012  0.00  0.00    -0.300 N 
ATOM     14  C   UNL     1      -1.993  -0.751   1.184  0.00  0.00    +0.241 C 
ATOM     15  O   UNL     1      -3.131  -1.171   1.193  0.00  0.00    -0.273 OA
BRANCH  13  17
ATOM     16  C   UNL     1      -0.019   1.526   0.010  0.00  0.00    +0.024 C 
ATOM     17  C   UNL     1       0.002  -0.004   0.002  0.00  0.00    +0.104 C 
ENDBRANCH  13  17
BRANCH  13  18
ATOM     18  C   UNL     1      -2.072  -0.758  -1.251  0.00  0.00    +0.104 C 
ATOM     19  C   UNL     1      -1.816  -2.197  -1.703  0.00  0.00    +0.024 C 
ENDBRANCH  13  18
ENDBRANCH  12  14
ENDBRANCH  11  12
ENDBRANCH   1  11
BRANCH   7  20
ATOM     20  C   UNL     1      -0.473  -3.213   6.929  0.00  0.00    +0.112 C 
BRANCH  20  21
ATOM     21  C   UNL     1      -1.282  -4.176   7.799  0.00  0.00    +0.054 C 
BRANCH  21  22
ATOM     22  C   UNL     1      -0.598  -5.518   7.834  0.00  0.00    -0.046 A 
ATOM     23  C   UNL     1      -0.905  -6.475   6.885  0.00  0.00    +0.004 A 
ATOM     24  C   UNL     1      -0.278  -7.706   6.916  0.00  0.00    +0.000 A 
ATOM     25  C   UNL     1       0.657  -7.980   7.897  0.00  0.00    +0.000 A 
ATOM     26  C   UNL     1       0.965  -7.023   8.846  0.00  0.00    +0.000 A 
ATOM     27  C   UNL     1       0.340  -5.790   8.811  0.00  0.00    +0.004 A 
ENDBRANCH  21  22
ENDBRANCH  20  21
ENDBRANCH   7  20
BRANCH   9  28
ATOM     28  C   UNL     1       0.420   2.340   8.009  0.00  0.00    +0.100 C 
BRANCH  28  29
ATOM     29  C   UNL     1       1.450   3.457   7.824  0.00  0.00    +0.042 C 
BRANCH  29  30
ATOM     30  C   UNL     1       2.112   3.753   9.145  0.00  0.00    -0.041 C 
ATOM     31  C   UNL     1       3.282   3.249   9.599  0.00  0.00    -0.001 A 
ATOM     32  C   UNL     1       4.251   2.310   9.021  0.00  0.00    +0.010 A 
ATOM     33  C   UNL     1       5.356   1.988   9.731  0.00  0.00    +0.001 A 
ATOM     34  C   UNL     1       5.598   2.526  11.002  0.00  0.00    +0.002 A 
ATOM     35  C   UNL     1       4.755   3.395  11.599  0.00  0.00    +0.026 A 
ATOM     36  C   UNL     1       3.561   3.804  10.942  0.00  0.00    +0.043 A 
ATOM     37  N   UNL     1       2.601   4.619  11.305  0.00  0.00    -0.380 N 
ATOM     38  C   UNL     1       1.606   4.678  10.229  0.00  0.00    +0.144 C 
ATOM     39  H   UNL     1       2.558   5.106  12.144  0.00  0.00    +0.160 HD
ENDBRANCH  29  30
ENDBRANCH  28  29
ENDBRANCH   9  28
TORSDOF 11
