REMARK  Name = ZINC09181956
REMARK  11 active torsions:
REMARK  status: ('A' for Active; 'I' for Inactive)
REMARK    1  A    between atoms: C_1  and  C_2
REMARK    2  A    between atoms: C_2  and  C_3
REMARK    3  A    between atoms: C_4  and  C_32
REMARK    4  A    between atoms: N_10  and  C_25
REMARK    5  A    between atoms: C_11  and  S_13
REMARK    6  A    between atoms: S_13  and  C_14
REMARK    7  A    between atoms: C_14  and  C_16
REMARK    8  A    between atoms: C_14  and  C_19
REMARK    9  A    between atoms: C_16  and  C_17
REMARK   10  A    between atoms: C_16  and  C_18
REMARK   11  A    between atoms: C_25  and  C_26
REMARK                            x       y       z     vdW  Elec       q    Type
REMARK                         _______ _______ _______ _____ _____    ______ ____
ROOT
ATOM      1  C   UNL     1       4.527   5.005   1.474  0.00  0.00    -0.023 A 
ATOM      2  C   UNL     1       4.344   5.604   0.288  0.00  0.00    -0.007 A 
ATOM      3  S   UNL     1       2.809   4.910  -0.295  0.00  0.00    -0.073 S 
ATOM      4  C   UNL     1       2.457   3.834   1.071  0.00  0.00    +0.117 A 
ATOM      5  C   UNL     1       3.542   4.045   1.942  0.00  0.00    +0.076 A 
ATOM      6  C   UNL     1       3.521   3.289   3.157  0.00  0.00    +0.263 A 
ATOM      7  O   UNL     1       4.419   3.406   3.972  0.00  0.00    -0.267 OA
ATOM      8  N   UNL     1       2.496   2.447   3.387  0.00  0.00    -0.285 N 
ATOM      9  C   UNL     1       1.482   2.303   2.485  0.00  0.00    +0.173 A 
ATOM     10  N   UNL     1       1.479   2.983   1.357  0.00  0.00    -0.216 NA
ATOM     11  C   UNL     1       5.226   6.621  -0.390  0.00  0.00    +0.052 C 
ENDROOT
BRANCH   1  13
ATOM     12  C   UNL     1       6.877   4.369   1.945  0.00  0.00    +0.009 C 
ATOM     13  C   UNL     1       5.739   5.324   2.310  0.00  0.00    +0.033 C 
ENDBRANCH   1  13
BRANCH   9  14
ATOM     14  S   UNL     1       0.163   1.188   2.832  0.00  0.00    -0.075 S 
BRANCH  14  15
ATOM     15  C   UNL     1      -0.886   1.482   1.387  0.00  0.00    +0.143 C 
BRANCH  15  16
ATOM     16  C   UNL     1      -2.232   0.840   1.603  0.00  0.00    +0.234 C 
ATOM     17  O   UNL     1      -2.358  -0.041   2.426  0.00  0.00    -0.274 OA
ATOM     18  N   UNL     1      -3.296   1.245   0.881  0.00  0.00    -0.239 N 
ATOM     19  C   UNL     1      -4.500   0.670   1.075  0.00  0.00    +0.303 C 
ATOM     20  O   UNL     1      -4.625  -0.213   1.901  0.00  0.00    -0.253 OA
ATOM     21  N   UNL     1      -5.563   1.075   0.354  0.00  0.00    -0.313 N 
ATOM     22  H   UNL     1      -3.195   1.950   0.223  0.00  0.00    +0.159 HD
ATOM     23  H   UNL     1      -5.463   1.780  -0.305  0.00  0.00    +0.146 HD
ATOM     24  H   UNL     1      -6.430   0.661   0.493  0.00  0.00    +0.146 HD
ENDBRANCH  15  16
BRANCH  15  25
ATOM     25  C   UNL     1      -0.226   0.878   0.145  0.00  0.00    +0.005 C 
ATOM     26  C   UNL     1      -1.041   1.247  -1.096  0.00  0.00    +0.009 C 
ATOM     27  C   UNL     1      -0.173  -0.644   0.287  0.00  0.00    +0.009 C 
ENDBRANCH  15  25
ENDBRANCH  14  15
ENDBRANCH   9  14
BRANCH   8  28
ATOM     28  C   UNL     1       2.470   1.671   4.629  0.00  0.00    +0.159 C 
BRANCH  28  29
ATOM     29  C   UNL     1       3.188   0.337   4.412  0.00  0.00    +0.138 C 
ATOM     30  C   UNL     1       3.065  -0.536   5.680  0.00  0.00    +0.035 C 
ATOM     31  C   UNL     1       4.470  -1.192   5.766  0.00  0.00    +0.031 C 
ATOM     32  C   UNL     1       5.362  -0.050   5.215  0.00  0.00    +0.160 C 
ATOM     33  O   UNL     1       4.582   0.569   4.180  0.00  0.00    -0.375 OA
ENDBRANCH  28  29
ENDBRANCH   8  28
TORSDOF 7
