REMARK  Name = ZINC60383854
REMARK  9 active torsions:
REMARK  status: ('A' for Active; 'I' for Inactive)
REMARK    1  A    between atoms: C_4  and  C_7
REMARK    2  A    between atoms: C_7  and  C_8
REMARK    3  A    between atoms: C_7  and  C_14
REMARK    4  A    between atoms: C_7  and  O_35
REMARK    5  A    between atoms: C_14  and  O_16
REMARK    6  A    between atoms: O_16  and  C_17
REMARK    7  A    between atoms: C_17  and  C_18
REMARK    8  A    between atoms: N_20  and  N_21
REMARK    9  A    between atoms: C_22  and  C_24
REMARK                            x       y       z     vdW  Elec       q    Type
REMARK                         _______ _______ _______ _____ _____    ______ ____
ROOT
ATOM      1  C   UNL     1       6.380  -1.296  -2.628  0.00  0.00    +0.329 C 
ENDROOT
BRANCH   1   2
ATOM      2  C   UNL     1       7.879  -1.253  -2.480  0.00  0.00    +0.267 C 
ATOM      3  O   UNL     1       8.375  -0.998  -1.403  0.00  0.00    -0.271 OA
ATOM      4  N   UNL     1       8.669  -1.497  -3.544  0.00  0.00    -0.231 N 
ATOM      5  H   UNL     1       8.272  -1.700  -4.406  0.00  0.00    +0.173 HD
BRANCH   4   6
ATOM      6  N   UNL     1      10.062  -1.456  -3.407  0.00  0.00    -0.231 N 
ATOM      7  C   UNL     1      10.852  -1.700  -4.471  0.00  0.00    +0.273 C 
ATOM      8  O   UNL     1      10.356  -1.955  -5.548  0.00  0.00    -0.270 OA
ATOM      9  H   UNL     1      10.459  -1.253  -2.545  0.00  0.00    +0.173 HD
BRANCH   7  10
ATOM     10  C   UNL     1      12.351  -1.657  -4.323  0.00  0.00    +0.297 C 
ATOM     11  C   UNL     1      12.797  -0.226  -3.993  0.00  0.00    +0.283 C 
ATOM     12  O   UNL     1      14.224  -0.217  -3.873  0.00  0.00    -0.484 OA
ATOM     13  C   UNL     1      14.923  -0.862  -4.847  0.00  0.00    +0.162 A 
ATOM     14  C   UNL     1      16.276  -0.597  -5.003  0.00  0.00    +0.049 A 
ATOM     15  C   UNL     1      17.000  -1.245  -5.985  0.00  0.00    +0.004 A 
ATOM     16  C   UNL     1      16.378  -2.160  -6.815  0.00  0.00    +0.004 A 
ATOM     17  C   UNL     1      15.031  -2.427  -6.666  0.00  0.00    +0.049 A 
ATOM     18  C   UNL     1      14.298  -1.779  -5.683  0.00  0.00    +0.163 A 
ATOM     19  O   UNL     1      12.970  -2.047  -5.554  0.00  0.00    -0.472 OA
ENDBRANCH   7  10
ENDBRANCH   4   6
ENDBRANCH   1   2
BRANCH   1  20
ATOM     20  O   UNL     1       5.768  -1.006  -1.370  0.00  0.00    -0.453 OA
BRANCH  20  21
ATOM     21  C   UNL     1       4.427  -1.005  -1.330  0.00  0.00    +0.349 C 
ATOM     22  O   UNL     1       3.792  -1.242  -2.331  0.00  0.00    -0.247 OA
BRANCH  21  23
ATOM     23  C   UNL     1       3.711  -0.707  -0.038  0.00  0.00    +0.213 C 
BRANCH  23  27
ATOM     24  C   UNL     1      -0.186   0.820  -0.889  0.00  0.00    +0.000 A 
ATOM     25  C   UNL     1       0.755   1.629  -0.280  0.00  0.00    +0.000 A 
ATOM     26  C   UNL     1       2.016   1.134  -0.004  0.00  0.00    +0.007 A 
ATOM     27  C   UNL     1       2.336  -0.169  -0.337  0.00  0.00    -0.001 A 
ATOM     28  C   UNL     1       1.394  -0.978  -0.945  0.00  0.00    +0.007 A 
ATOM     29  C   UNL     1       0.134  -0.483  -1.222  0.00  0.00    +0.000 A 
ENDBRANCH  23  27
BRANCH  23  30
ATOM     30  C   UNL     1       3.590  -1.972   0.772  0.00  0.00    -0.001 A 
ATOM     31  C   UNL     1       3.295  -3.168   0.146  0.00  0.00    +0.007 A 
ATOM     32  C   UNL     1       3.184  -4.329   0.889  0.00  0.00    +0.000 A 
ATOM     33  C   UNL     1       3.368  -4.293   2.258  0.00  0.00    +0.000 A 
ATOM     34  C   UNL     1       3.663  -3.097   2.885  0.00  0.00    +0.000 A 
ATOM     35  C   UNL     1       3.779  -1.937   2.141  0.00  0.00    +0.007 A 
ENDBRANCH  23  30
BRANCH  23  36
ATOM     36  O   UNL     1       4.452   0.264   0.704  0.00  0.00    -0.370 OA
ATOM     37  H   UNL     1       4.569   1.106   0.242  0.00  0.00    +0.212 HD
ENDBRANCH  23  36
ENDBRANCH  21  23
ENDBRANCH  20  21
ENDBRANCH   1  20
TORSDOF 9
