REMARK  Name = ZINC35383071
REMARK  5 active torsions:
REMARK  status: ('A' for Active; 'I' for Inactive)
REMARK    1  A    between atoms: C_1  and  C_2
REMARK    2  A    between atoms: C_7  and  N_12
REMARK    3  A    between atoms: C_9  and  C_11
REMARK    4  A    between atoms: N_12  and  C_13
REMARK    5  A    between atoms: C_18  and  N_19
REMARK                            x       y       z     vdW  Elec       q    Type
REMARK                         _______ _______ _______ _____ _____    ______ ____
ROOT
ATOM      1  C   UNL     1       0.630   0.189   4.893  0.00  0.00    +0.050 A 
ATOM      2  C   UNL     1      -0.148   1.330   4.963  0.00  0.00    +0.053 A 
ATOM      3  C   UNL     1      -0.254   2.023   6.168  0.00  0.00    +0.080 A 
ATOM      4  C   UNL     1       0.438   1.549   7.307  0.00  0.00    +0.067 A 
ATOM      5  C   UNL     1       1.221   0.397   7.224  0.00  0.00    +0.040 A 
ATOM      6  C   UNL     1       1.311  -0.281   6.025  0.00  0.00    +0.047 A 
ATOM      7  C   UNL     1       0.304   2.305   8.558  0.00  0.00    +0.259 A 
ATOM      8  O   UNL     1       0.874   1.950   9.574  0.00  0.00    -0.267 OA
ATOM      9  N   UNL     1      -0.477   3.409   8.540  0.00  0.00    -0.313 N 
ATOM     10  H   UNL     1      -0.588   3.933   9.349  0.00  0.00    +0.170 HD
ATOM     11  C   UNL     1      -1.107   3.793   7.398  0.00  0.00    +0.199 A 
ATOM     12  N   UNL     1      -1.008   3.147   6.277  0.00  0.00    -0.237 NA
ENDROOT
BRANCH   6  13
ATOM     13  N   UNL     1       2.090  -1.441   5.937  0.00  0.00    -0.357 N 
ATOM     14  H   UNL     1       2.158  -1.917   5.095  0.00  0.00    +0.142 HD
ATOM     15  H   UNL     1       2.562  -1.768   6.718  0.00  0.00    +0.142 HD
ENDBRANCH   6  13
BRANCH   1  16
ATOM     16  N   UNL     1       0.735  -0.503   3.687  0.00  0.00    -0.339 N 
ATOM     17  H   UNL     1       1.276  -1.306   3.634  0.00  0.00    +0.146 HD
BRANCH  16  23
ATOM     18  C   UNL     1      -0.019   1.526   0.010  0.00  0.00    +0.008 C 
ATOM     19  C   UNL     1       0.002  -0.004   0.002  0.00  0.00    -0.009 C 
ATOM     20  C   UNL     1      -1.433  -0.534   0.013  0.00  0.00    +0.003 C 
ATOM     21  C   UNL     1      -2.149  -0.040   1.272  0.00  0.00    +0.002 C 
ATOM     22  C   UNL     1      -1.409  -0.547   2.511  0.00  0.00    +0.022 C 
ATOM     23  C   UNL     1       0.026  -0.018   2.500  0.00  0.00    +0.074 C 
ATOM     24  C   UNL     1       0.742  -0.511   1.242  0.00  0.00    +0.009 C 
ATOM     25  C   UNL     1       2.178   0.019   1.231  0.00  0.00    +0.009 C 
ENDBRANCH  16  23
ENDBRANCH   1  16
TORSDOF 3
