REMARK  Name = ZINC24714289
REMARK  8 active torsions:
REMARK  status: ('A' for Active; 'I' for Inactive)
REMARK    1  A    between atoms: C_1  and  C_2
REMARK    2  A    between atoms: C_2  and  C_26
REMARK    3  A    between atoms: C_3  and  C_4
REMARK    4  A    between atoms: C_6  and  C_11
REMARK    5  A    between atoms: C_8  and  C_9
REMARK    6  A    between atoms: C_8  and  C_10
REMARK    7  A    between atoms: N_13  and  N_14
REMARK    8  A    between atoms: C_15  and  C_17
REMARK                            x       y       z     vdW  Elec       q    Type
REMARK                         _______ _______ _______ _____ _____    ______ ____
ROOT
ATOM      1  C   UNL     1       1.964   4.254  -0.033  0.00  0.00    +0.233 C 
ATOM      2  O   UNL     1       2.522   3.583   0.809  0.00  0.00    -0.274 OA
ATOM      3  N   UNL     1       1.228   3.657  -0.991  0.00  0.00    -0.234 N 
ATOM      4  H   UNL     1       0.722   4.266  -1.754  0.00  0.00    +0.173 HD
ENDROOT
BRANCH   1   6
ATOM      5  C   UNL     1       3.473   6.350  -0.300  0.00  0.00    +0.030 C 
ATOM      6  C   UNL     1       2.094   5.755  -0.007  0.00  0.00    +0.090 C 
ATOM      7  C   UNL     1       2.354   6.464  -1.338  0.00  0.00    -0.016 C 
ATOM      8  C   UNL     1       2.463   5.595  -2.592  0.00  0.00    +0.012 C 
ATOM      9  C   UNL     1       1.717   7.840  -1.542  0.00  0.00    +0.012 C 
BRANCH   5  12
ATOM     10  C   UNL     1       6.107   7.331  -0.477  0.00  0.00    +0.038 C 
ATOM     11  C   UNL     1       5.087   8.058   0.361  0.00  0.00    -0.079 C 
ATOM     12  C   UNL     1       3.862   7.602   0.444  0.00  0.00    -0.023 C 
ATOM     13  C   UNL     1       5.477   9.310   1.105  0.00  0.00    +0.038 C 
ENDBRANCH   5  12
ENDBRANCH   1   6
BRANCH   3  14
ATOM     14  N   UNL     1       1.107   2.261  -1.014  0.00  0.00    -0.230 N 
ATOM     15  C   UNL     1       0.371   1.664  -1.973  0.00  0.00    +0.267 C 
ATOM     16  O   UNL     1      -0.185   2.337  -2.821  0.00  0.00    -0.268 OA
ATOM     17  H   UNL     1       1.614   1.653  -0.251  0.00  0.00    +0.173 HD
BRANCH  15  18
ATOM     18  C   UNL     1       0.245   0.204  -1.997  0.00  0.00    +0.076 A 
ATOM     19  C   UNL     1      -0.458  -0.596  -2.879  0.00  0.00    +0.024 A 
ATOM     20  C   UNL     1      -0.418  -1.968  -2.692  0.00  0.00    -0.036 A 
ATOM     21  C   UNL     1       0.313  -2.423  -1.632  0.00  0.00    -0.006 A 
ATOM     22  S   UNL     1       0.953  -1.005  -0.892  0.00  0.00    -0.088 S 
ATOM     23  C   UNL     1       0.506  -3.848  -1.214  0.00  0.00    +0.043 C 
ATOM     24  C   UNL     1      -0.541  -4.710  -1.933  0.00  0.00    +0.005 C 
ATOM     25  C   UNL     1      -0.548  -4.340  -3.419  0.00  0.00    +0.005 C 
ATOM     26  C   UNL     1      -1.150  -2.947  -3.606  0.00  0.00    +0.036 C 
ENDBRANCH  15  18
ENDBRANCH   3  14
TORSDOF 4
