REMARK  Name = ZINC09872723
REMARK  9 active torsions:
REMARK  status: ('A' for Active; 'I' for Inactive)
REMARK    1  A    between atoms: C_1  and  N_63
REMARK    2  A    between atoms: N_4  and  S_7
REMARK    3  A    between atoms: S_7  and  C_10
REMARK    4  A    between atoms: C_13  and  S_16
REMARK    5  A    between atoms: S_16  and  C_17
REMARK    6  A    between atoms: C_17  and  C_18
REMARK    7  A    between atoms: N_20  and  C_21
REMARK    8  A    between atoms: N_20  and  C_27
REMARK    9  A    between atoms: C_21  and  C_22
REMARK                            x       y       z     vdW  Elec       q    Type
REMARK                         _______ _______ _______ _____ _____    ______ ____
ROOT
ATOM      1  C   UNL     1      -6.749   7.191  -0.717  0.00  0.00    +0.124 A 
ATOM      2  C   UNL     1      -5.720   8.124  -0.740  0.00  0.00    +0.032 A 
ATOM      3  C   UNL     1      -4.418   7.673  -0.628  0.00  0.00    +0.037 A 
ATOM      4  C   UNL     1      -4.183   6.307  -0.506  0.00  0.00    +0.097 A 
ATOM      5  N   UNL     1      -5.192   5.449  -0.487  0.00  0.00    -0.247 NA
ATOM      6  C   UNL     1      -6.444   5.851  -0.588  0.00  0.00    +0.140 A 
ENDROOT
BRANCH   1   7
ATOM      7  S   UNL     1      -8.427   7.713  -0.850  0.00  0.00    +0.062 S 
ATOM      8  O   UNL     1      -8.409   8.973  -1.508  0.00  0.00    -0.153 OA
ATOM      9  O   UNL     1      -9.159   6.603  -1.349  0.00  0.00    -0.153 OA
BRANCH   7  13
ATOM     10  C   UNL     1      -8.464   8.107   4.851  0.00  0.00    -0.096 C 
ATOM     11  C   UNL     1      -8.193   9.151   2.683  0.00  0.00    -0.062 C 
ATOM     12  C   UNL     1      -8.848   9.318   1.307  0.00  0.00    +0.091 C 
ATOM     13  N   UNL     1      -8.977   7.991   0.687  0.00  0.00    -0.180 NA
ATOM     14  C   UNL     1      -9.613   6.918   1.466  0.00  0.00    +0.091 C 
ATOM     15  C   UNL     1      -8.924   6.844   2.838  0.00  0.00    -0.062 C 
ATOM     16  N   UNL     1      -8.984   8.180   3.470  0.00  0.00    +0.380 N 
ATOM     17  H   UNL     1      -9.961   8.491   3.498  0.00  0.00    -0.082 HD
ENDBRANCH   7  13
ENDBRANCH   1   7
BRANCH   4  18
ATOM     18  S   UNL     1      -2.529   5.714  -0.368  0.00  0.00    -0.097 S 
BRANCH  18  19
ATOM     19  C   UNL     1      -2.719   3.915  -0.227  0.00  0.00    +0.172 C 
BRANCH  19  20
ATOM     20  C   UNL     1      -1.360   3.276  -0.100  0.00  0.00    +0.230 C 
ATOM     21  O   UNL     1      -0.362   3.965  -0.105  0.00  0.00    -0.274 OA
ATOM     22  N   UNL     1      -1.253   1.937   0.018  0.00  0.00    -0.267 N 
BRANCH  22  23
ATOM     23  C   UNL     1      -0.009   1.355   0.243  0.00  0.00    +0.010 C 
ATOM     24  C   UNL     1       0.422   0.478  -0.620  0.00  0.00    -0.008 C 
ATOM     25  C   UNL     1       1.740  -0.232  -0.506  0.00  0.00    +0.029 C 
ATOM     26  C   UNL     1       2.652   0.504   0.477  0.00  0.00    +0.004 C 
ATOM     27  C   UNL     1       1.864   0.767   1.767  0.00  0.00    +0.006 C 
ATOM     28  C   UNL     1       0.758   1.779   1.461  0.00  0.00    +0.051 C 
ENDBRANCH  22  23
BRANCH  22  29
ATOM     29  C   UNL     1      -2.447   1.095  -0.089  0.00  0.00    +0.187 C 
BRANCH  29  30
ATOM     30  C   UNL     1      -2.974   0.792   1.290  0.00  0.00    +0.122 A 
ATOM     31  C   UNL     1      -3.876   1.527   1.966  0.00  0.00    +0.046 A 
ATOM     32  C   UNL     1      -4.080   0.883   3.208  0.00  0.00    +0.041 A 
ATOM     33  C   UNL     1      -3.292  -0.207   3.216  0.00  0.00    +0.195 A 
ATOM     34  O   UNL     1      -2.629  -0.260   2.049  0.00  0.00    -0.466 OA
ENDBRANCH  29  30
ENDBRANCH  22  29
ENDBRANCH  19  20
ENDBRANCH  18  19
ENDBRANCH   4  18
TORSDOF 8
