REMARK  Name = ZINC63373399
REMARK  7 active torsions:
REMARK  status: ('A' for Active; 'I' for Inactive)
REMARK    1  A    between atoms: C_1  and  O_2
REMARK    2  A    between atoms: O_2  and  C_3
REMARK    3  A    between atoms: C_7  and  C_9
REMARK    4  A    between atoms: N_27  and  C_30
REMARK    5  A    between atoms: C_35  and  C_36
REMARK    6  A    between atoms: N_38  and  C_39
REMARK    7  A    between atoms: C_39  and  C_40
REMARK                            x       y       z     vdW  Elec       q    Type
REMARK                         _______ _______ _______ _____ _____    ______ ____
ROOT
ATOM      1  C   UNL     1      -2.540  -4.171   0.015  0.00  0.00    +0.135 C 
ATOM      2  C   UNL     1      -2.826  -4.683   1.434  0.00  0.00    +0.131 C 
ATOM      3  C   UNL     1      -4.304  -4.438   1.710  0.00  0.00    -0.034 C 
ATOM      4  C   UNL     1      -4.361  -3.686   2.804  0.00  0.00    -0.001 A 
ATOM      5  C   UNL     1      -5.502  -3.179   3.583  0.00  0.00    +0.010 A 
ATOM      6  C   UNL     1      -5.197  -2.411   4.663  0.00  0.00    +0.001 A 
ATOM      7  C   UNL     1      -3.886  -2.101   5.040  0.00  0.00    +0.002 A 
ATOM      8  C   UNL     1      -2.777  -2.529   4.385  0.00  0.00    +0.026 A 
ATOM      9  C   UNL     1      -2.971  -3.349   3.234  0.00  0.00    +0.043 A 
ATOM     10  N   UNL     1      -2.093  -3.905   2.436  0.00  0.00    -0.375 N 
ATOM     11  C   UNL     1      -5.407  -4.941   0.808  0.00  0.00    +0.065 C 
ATOM     12  C   UNL     1      -4.719  -5.544  -0.429  0.00  0.00    +0.169 C 
ATOM     13  N   UNL     1      -3.638  -4.625  -0.846  0.00  0.00    -0.264 N 
ATOM     14  C   UNL     1      -3.881  -4.293  -2.120  0.00  0.00    +0.317 C 
ATOM     15  O   UNL     1      -3.122  -3.635  -2.805  0.00  0.00    -0.252 OA
ATOM     16  N   UNL     1      -5.057  -4.768  -2.553  0.00  0.00    -0.192 N 
ATOM     17  C   UNL     1      -5.676  -5.541  -1.601  0.00  0.00    +0.248 C 
ATOM     18  O   UNL     1      -6.751  -6.098  -1.670  0.00  0.00    -0.273 OA
ATOM     19  H   UNL     1      -1.128  -3.819   2.493  0.00  0.00    +0.160 HD
ENDROOT
BRANCH   1  24
ATOM     20  C   UNL     1      -1.200  -0.637   0.010  0.00  0.00    +0.120 A 
ATOM     21  C   UNL     1      -2.375   0.101   0.019  0.00  0.00    +0.045 A 
ATOM     22  C   UNL     1      -3.596  -0.545   0.027  0.00  0.00    +0.004 A 
ATOM     23  C   UNL     1      -3.648  -1.927   0.026  0.00  0.00    +0.006 A 
ATOM     24  C   UNL     1      -2.479  -2.665   0.017  0.00  0.00    -0.021 A 
ATOM     25  C   UNL     1      -1.255  -2.023   0.003  0.00  0.00    +0.051 A 
BRANCH  20  27
ATOM     26  C   UNL     1      -0.017   1.425   0.010  0.00  0.00    +0.277 C 
ATOM     27  O   UNL     1       0.002  -0.004   0.002  0.00  0.00    -0.495 OA
ENDBRANCH  20  27
ENDBRANCH   1  24
BRANCH  16  28
ATOM     28  C   UNL     1      -5.586  -4.518  -3.821  0.00  0.00    +0.058 A 
ATOM     29  C   UNL     1      -5.304  -5.374  -4.875  0.00  0.00    +0.025 A 
ATOM     30  C   UNL     1      -5.829  -5.125  -6.128  0.00  0.00    +0.002 A 
ATOM     31  C   UNL     1      -6.639  -4.022  -6.342  0.00  0.00    +0.001 A 
ATOM     32  C   UNL     1      -6.929  -3.161  -5.306  0.00  0.00    +0.015 A 
ATOM     33  C   UNL     1      -6.410  -3.403  -4.032  0.00  0.00    +0.059 A 
BRANCH  33  34
ATOM     34  C   UNL     1      -6.722  -2.489  -2.917  0.00  0.00    +0.246 C 
ATOM     35  O   UNL     1      -6.264  -2.700  -1.811  0.00  0.00    -0.270 OA
ATOM     36  N   UNL     1      -7.514  -1.418  -3.125  0.00  0.00    -0.308 N 
ATOM     37  H   UNL     1      -7.879  -1.249  -4.008  0.00  0.00    +0.149 HD
BRANCH  36  38
ATOM     38  C   UNL     1      -7.823  -0.510  -2.018  0.00  0.00    +0.131 C 
BRANCH  38  39
ATOM     39  C   UNL     1      -8.721   0.596  -2.511  0.00  0.00    -0.016 C 
ATOM     40  C   UNL     1      -9.866   0.824  -1.918  0.00  0.00    +0.005 C 
ENDBRANCH  38  39
ENDBRANCH  36  38
ENDBRANCH  33  34
ENDBRANCH  16  28
TORSDOF 6
