REMARK  Name = ZINC04713050
REMARK  4 active torsions:
REMARK  status: ('A' for Active; 'I' for Inactive)
REMARK    1  A    between atoms: C_10  and  C_11
REMARK    2  A    between atoms: C_10  and  C_18
REMARK    3  A    between atoms: C_14  and  N_17
REMARK    4  A    between atoms: C_21  and  N_24
REMARK                            x       y       z     vdW  Elec       q    Type
REMARK                         _______ _______ _______ _____ _____    ______ ____
ROOT
ATOM      1  C   UNL     1      -0.017   1.376   0.010  0.00  0.00    +0.001 A 
ATOM      2  C   UNL     1       1.169   2.090   0.002  0.00  0.00    +0.000 A 
ATOM      3  C   UNL     1       2.384   1.426  -0.013  0.00  0.00    +0.009 A 
ATOM      4  C   UNL     1       2.414   0.051  -0.021  0.00  0.00    +0.019 A 
ATOM      5  C   UNL     1       1.223  -0.680  -0.013  0.00  0.00    +0.067 A 
ATOM      6  C   UNL     1       0.002  -0.004   0.002  0.00  0.00    +0.015 A 
ATOM      7  C   UNL     1       1.577  -2.111  -0.024  0.00  0.00    +0.341 C 
ATOM      8  O   UNL     1       0.778  -3.026  -0.021  0.00  0.00    -0.245 OA
ATOM      9  O   UNL     1       2.913  -2.254  -0.038  0.00  0.00    -0.440 OA
ATOM     10  C   UNL     1       3.529  -0.963  -0.037  0.00  0.00    +0.190 C 
ENDROOT
BRANCH  10  11
ATOM     11  C   UNL     1       4.389  -0.803   1.190  0.00  0.00    +0.005 A 
ATOM     12  C   UNL     1       4.526   0.440   1.780  0.00  0.00    +0.010 A 
ATOM     13  C   UNL     1       5.313   0.590   2.904  0.00  0.00    +0.023 A 
ATOM     14  C   UNL     1       5.968  -0.510   3.443  0.00  0.00    +0.025 A 
ATOM     15  C   UNL     1       5.829  -1.757   2.849  0.00  0.00    +0.023 A 
ATOM     16  C   UNL     1       5.036  -1.901   1.727  0.00  0.00    +0.010 A 
BRANCH  14  17
ATOM     17  N   UNL     1       6.766  -0.361   4.580  0.00  0.00    -0.358 N 
ATOM     18  H   UNL     1       6.862   0.510   4.995  0.00  0.00    +0.142 HD
ATOM     19  H   UNL     1       7.223  -1.130   4.956  0.00  0.00    +0.142 HD
ENDBRANCH  14  17
ENDBRANCH  10  11
BRANCH  10  20
ATOM     20  C   UNL     1       4.365  -0.791  -1.279  0.00  0.00    +0.005 A 
ATOM     21  C   UNL     1       4.499   0.461  -1.852  0.00  0.00    +0.010 A 
ATOM     22  C   UNL     1       5.265   0.622  -2.990  0.00  0.00    +0.023 A 
ATOM     23  C   UNL     1       5.900  -0.474  -3.559  0.00  0.00    +0.025 A 
ATOM     24  C   UNL     1       5.763  -1.730  -2.981  0.00  0.00    +0.023 A 
ATOM     25  C   UNL     1       5.001  -1.883  -1.840  0.00  0.00    +0.010 A 
BRANCH  23  26
ATOM     26  N   UNL     1       6.674  -0.315  -4.711  0.00  0.00    -0.358 N 
ATOM     27  H   UNL     1       6.769   0.563  -5.114  0.00  0.00    +0.142 HD
ATOM     28  H   UNL     1       7.118  -1.081  -5.107  0.00  0.00    +0.142 HD
ENDBRANCH  23  26
ENDBRANCH  10  20
TORSDOF 4
