REMARK  Name = ZINC33311135
REMARK  6 active torsions:
REMARK  status: ('A' for Active; 'I' for Inactive)
REMARK    1  A    between atoms: C_1  and  C_2
REMARK    2  A    between atoms: C_7  and  C_8
REMARK    3  A    between atoms: C_8  and  C_10
REMARK    4  A    between atoms: C_8  and  C_16
REMARK    5  A    between atoms: C_20  and  O_28
REMARK    6  A    between atoms: C_21  and  O_27
REMARK                            x       y       z     vdW  Elec       q    Type
REMARK                         _______ _______ _______ _____ _____    ______ ____
ROOT
ATOM      1  C   UNL     1      -2.808   2.410   1.670  0.00  0.00    +0.096 C 
ATOM      2  C   UNL     1      -4.196   2.017   2.106  0.00  0.00    -0.023 A 
ATOM      3  C   UNL     1      -4.516   0.666   2.143  0.00  0.00    +0.054 A 
ATOM      4  C   UNL     1      -5.776   0.257   2.539  0.00  0.00    +0.159 A 
ATOM      5  C   UNL     1      -6.728   1.205   2.904  0.00  0.00    +0.158 A 
ATOM      6  C   UNL     1      -6.404   2.549   2.865  0.00  0.00    +0.053 A 
ATOM      7  C   UNL     1      -5.139   2.955   2.465  0.00  0.00    -0.038 A 
ATOM      8  C   UNL     1      -4.836   4.432   2.436  0.00  0.00    +0.050 C 
ATOM      9  C   UNL     1      -3.324   4.654   2.381  0.00  0.00    +0.086 C 
ATOM     10  N   UNL     1      -2.770   3.827   1.297  0.00  0.00    -0.308 NA
ATOM     11  H   UNL     1      -1.729   4.129   1.110  0.00  0.00    +0.123 HD
ENDROOT
BRANCH   5  12
ATOM     12  O   UNL     1      -7.969   0.812   3.296  0.00  0.00    -0.503 OA
ATOM     13  H   UNL     1      -8.719   1.564   3.584  0.00  0.00    +0.292 HD
ENDBRANCH   5  12
BRANCH   4  14
ATOM     14  O   UNL     1      -6.084  -1.068   2.573  0.00  0.00    -0.503 OA
ATOM     15  H   UNL     1      -7.087  -1.391   2.889  0.00  0.00    +0.292 HD
ENDBRANCH   4  14
BRANCH   1  16
ATOM     16  C   UNL     1      -2.397   1.559   0.467  0.00  0.00    +0.071 C 
BRANCH  16  23
ATOM     17  C   UNL     1      -0.210  -0.328   0.529  0.00  0.00    +0.044 C 
ATOM     18  C   UNL     1       0.019   1.076   0.030  0.00  0.00    -0.047 A 
ATOM     19  C   UNL     1       1.275   1.458  -0.403  0.00  0.00    +0.003 A 
ATOM     20  C   UNL     1       1.486   2.745  -0.862  0.00  0.00    +0.000 A 
ATOM     21  C   UNL     1       0.440   3.650  -0.886  0.00  0.00    +0.000 A 
ATOM     22  C   UNL     1      -0.815   3.267  -0.453  0.00  0.00    +0.004 A 
ATOM     23  C   UNL     1      -1.027   1.978   0.000  0.00  0.00    -0.035 A 
ENDBRANCH  16  23
BRANCH  16  24
ATOM     24  C   UNL     1      -3.390   1.756  -0.650  0.00  0.00    -0.038 A 
ATOM     25  C   UNL     1      -3.731   3.033  -1.055  0.00  0.00    +0.004 A 
ATOM     26  C   UNL     1      -4.638   3.213  -2.082  0.00  0.00    +0.000 A 
ATOM     27  C   UNL     1      -5.212   2.116  -2.698  0.00  0.00    +0.000 A 
ATOM     28  C   UNL     1      -4.875   0.840  -2.290  0.00  0.00    +0.000 A 
ATOM     29  C   UNL     1      -3.964   0.659  -1.266  0.00  0.00    +0.004 A 
ENDBRANCH  16  24
ENDBRANCH   1  16
TORSDOF 5
