REMARK  Name = ZINC39436092
REMARK  9 active torsions:
REMARK  status: ('A' for Active; 'I' for Inactive)
REMARK    1  A    between atoms: C_1  and  O_2
REMARK    2  A    between atoms: O_2  and  C_3
REMARK    3  A    between atoms: C_8  and  C_13
REMARK    4  A    between atoms: C_13  and  C_34
REMARK    5  A    between atoms: C_14  and  C_15
REMARK    6  A    between atoms: C_18  and  O_22
REMARK    7  A    between atoms: O_22  and  C_23
REMARK    8  A    between atoms: C_23  and  C_24
REMARK    9  A    between atoms: C_28  and  N_30
REMARK                            x       y       z     vdW  Elec       q    Type
REMARK                         _______ _______ _______ _____ _____    ______ ____
ROOT
ATOM      1  C   UNL     1      -5.951  -6.401  -0.148  0.00  0.00    -0.021 A 
ATOM      2  C   UNL     1      -5.350  -5.868  -1.294  0.00  0.00    +0.031 A 
ATOM      3  C   UNL     1      -5.684  -6.361  -2.537  0.00  0.00    +0.085 A 
ATOM      4  C   UNL     1      -6.615  -7.387  -2.653  0.00  0.00    +0.157 A 
ATOM      5  C   UNL     1      -7.214  -7.920  -1.517  0.00  0.00    +0.085 A 
ATOM      6  C   UNL     1      -6.884  -7.437  -0.269  0.00  0.00    +0.031 A 
ATOM      7 CL   UNL     1      -8.377  -9.200  -1.670  0.00  0.00    -0.080 Cl
ATOM      8 CL   UNL     1      -4.940  -5.700  -3.959  0.00  0.00    -0.080 Cl
ENDROOT
BRANCH   1  10
ATOM      9  C   UNL     1      -5.380  -4.557   1.350  0.00  0.00    +0.072 C 
ATOM     10  C   UNL     1      -5.598  -5.878   1.181  0.00  0.00    +0.026 C 
BRANCH   9  16
ATOM     11  C   UNL     1      -4.001   0.690  -0.036  0.00  0.00    +0.122 A 
ATOM     12  C   UNL     1      -5.300   0.984   0.556  0.00  0.00    +0.048 A 
ATOM     13  C   UNL     1      -6.189   0.013   0.836  0.00  0.00    +0.031 A 
ATOM     14  C   UNL     1      -5.858  -1.389   0.543  0.00  0.00    +0.061 A 
ATOM     15  N   UNL     1      -6.518  -2.499   0.710  0.00  0.00    -0.359 N 
ATOM     16  C   UNL     1      -5.671  -3.595   0.227  0.00  0.00    +0.216 C 
ATOM     17  N   UNL     1      -4.425  -2.979  -0.245  0.00  0.00    -0.359 N 
ATOM     18  C   UNL     1      -4.532  -1.691  -0.062  0.00  0.00    +0.064 A 
ATOM     19  C   UNL     1      -3.624  -0.576  -0.340  0.00  0.00    +0.073 A 
ATOM     20  H   UNL     1      -7.409  -2.585   1.085  0.00  0.00    +0.162 HD
ATOM     21  H   UNL     1      -3.662  -3.443  -0.625  0.00  0.00    +0.162 HD
BRANCH  11  23
ATOM     22  C   UNL     1      -3.590   3.027   0.044  0.00  0.00    +0.277 C 
ATOM     23  O   UNL     1      -3.148   1.712  -0.295  0.00  0.00    -0.495 OA
ENDBRANCH  11  23
ENDBRANCH   9  16
BRANCH   9  24
ATOM     24  C   UNL     1      -4.872  -4.069   2.597  0.00  0.00    +0.099 C 
ATOM     25  N   UNL     1      -4.468  -3.682   3.586  0.00  0.00    -0.191 NA
ENDBRANCH   9  24
ENDBRANCH   1  10
BRANCH   4  26
ATOM     26  O   UNL     1      -6.941  -7.870  -3.880  0.00  0.00    -0.484 OA
BRANCH  26  27
ATOM     27  C   UNL     1      -6.161  -8.960  -4.376  0.00  0.00    +0.264 C 
BRANCH  27  28
ATOM     28  C   UNL     1      -6.664  -9.357  -5.740  0.00  0.00    -0.008 A 
ATOM     29  C   UNL     1      -7.659 -10.310  -5.859  0.00  0.00    +0.007 A 
ATOM     30  C   UNL     1      -8.121 -10.675  -7.109  0.00  0.00    +0.003 A 
ATOM     31  C   UNL     1      -7.588 -10.087  -8.241  0.00  0.00    +0.033 A 
ATOM     32  C   UNL     1      -6.594  -9.134  -8.123  0.00  0.00    +0.127 A 
ATOM     33  C   UNL     1      -6.135  -8.766  -6.871  0.00  0.00    +0.039 A 
BRANCH  32  34
ATOM     34  N   UNL     1      -6.023  -8.505  -9.335  0.00  0.00    +0.056 N 
ATOM     35  O   UNL     1      -6.426  -8.824 -10.429  0.00  0.00    -0.126 OA
ATOM     36  O   UNL     1      -5.154  -7.671  -9.231  0.00  0.00    -0.126 OA
ENDBRANCH  32  34
ENDBRANCH  27  28
ENDBRANCH  26  27
ENDBRANCH   4  26
TORSDOF 8
