REMARK  Name = ZINC63648730
REMARK  6 active torsions:
REMARK  status: ('A' for Active; 'I' for Inactive)
REMARK    1  A    between atoms: C_4  and  C_7
REMARK    2  A    between atoms: C_9  and  S_18
REMARK    3  A    between atoms: S_18  and  C_19
REMARK    4  A    between atoms: C_19  and  C_20
REMARK    5  A    between atoms: N_22  and  C_23
REMARK    6  A    between atoms: C_23  and  C_24
REMARK                            x       y       z     vdW  Elec       q    Type
REMARK                         _______ _______ _______ _____ _____    ______ ____
ROOT
ATOM      1  S   UNL     1       5.036  -3.750  -1.545  0.00  0.00    -0.104 S 
ENDROOT
BRANCH   1   4
ATOM      2  C   UNL     1       3.698  -0.688  -0.038  0.00  0.00    +0.160 C 
ATOM      3  N   UNL     1       3.696  -1.995  -0.051  0.00  0.00    -0.230 NA
ATOM      4  C   UNL     1       4.990  -2.697  -0.068  0.00  0.00    +0.272 C 
ATOM      5  N   UNL     1       6.203  -1.857  -0.071  0.00  0.00    -0.203 N 
ATOM      6  C   UNL     1       6.030  -0.506  -0.056  0.00  0.00    +0.128 C 
ATOM      7  N   UNL     1       4.846   0.027  -0.046  0.00  0.00    -0.215 NA
ATOM      8  C   UNL     1       7.418   0.098  -0.062  0.00  0.00    +0.170 C 
ATOM      9  C   UNL     1       8.342  -1.101  -0.081  0.00  0.00    +0.236 C 
ATOM     10  O   UNL     1       9.555  -1.082  -0.092  0.00  0.00    -0.274 OA
ATOM     11  N   UNL     1       7.555  -2.192  -0.085  0.00  0.00    -0.230 N 
ATOM     12  H   UNL     1       7.889  -3.103  -0.096  0.00  0.00    +0.173 HD
BRANCH   2  16
ATOM     13  C   UNL     1      -0.017   1.379   0.010  0.00  0.00    +0.000 A 
ATOM     14  C   UNL     1       1.169   2.092   0.002  0.00  0.00    +0.001 A 
ATOM     15  C   UNL     1       2.377   1.427  -0.013  0.00  0.00    +0.011 A 
ATOM     16  C   UNL     1       2.402   0.033  -0.021  0.00  0.00    +0.019 A 
ATOM     17  C   UNL     1       1.205  -0.680  -0.013  0.00  0.00    +0.011 A 
ATOM     18  C   UNL     1       0.002  -0.004   0.002  0.00  0.00    +0.001 A 
ENDBRANCH   2  16
ENDBRANCH   1   4
BRANCH   1  19
ATOM     19  C   UNL     1       4.852  -2.583  -2.922  0.00  0.00    +0.168 C 
BRANCH  19  20
ATOM     20  C   UNL     1       4.875  -3.337  -4.226  0.00  0.00    +0.223 C 
ATOM     21  O   UNL     1       5.002  -4.543  -4.227  0.00  0.00    -0.275 OA
ATOM     22  N   UNL     1       4.753  -2.672  -5.392  0.00  0.00    -0.311 N 
ATOM     23  H   UNL     1       4.651  -1.707  -5.391  0.00  0.00    +0.149 HD
BRANCH  22  24
ATOM     24  C   UNL     1       4.774  -3.405  -6.660  0.00  0.00    +0.151 C 
BRANCH  24  25
ATOM     25  C   UNL     1       4.620  -2.421  -7.821  0.00  0.00    +0.191 C 
ATOM     26  N   UNL     1       5.678  -1.405  -7.765  0.00  0.00    -0.362 N 
ATOM     27  C   UNL     1       5.101  -0.246  -7.633  0.00  0.00    +0.060 A 
ATOM     28  C   UNL     1       5.622   1.124  -7.522  0.00  0.00    +0.027 A 
ATOM     29  C   UNL     1       4.763   2.154  -7.391  0.00  0.00    +0.002 A 
ATOM     30  C   UNL     1       3.369   1.978  -7.354  0.00  0.00    +0.002 A 
ATOM     31  C   UNL     1       2.786   0.766  -7.446  0.00  0.00    +0.027 A 
ATOM     32  C   UNL     1       3.624  -0.432  -7.593  0.00  0.00    +0.060 A 
ATOM     33  N   UNL     1       3.346  -1.699  -7.703  0.00  0.00    -0.362 N 
ATOM     34  H   UNL     1       6.633  -1.568  -7.817  0.00  0.00    +0.162 HD
ATOM     35  H   UNL     1       2.460  -2.094  -7.707  0.00  0.00    +0.162 HD
ENDBRANCH  24  25
ENDBRANCH  22  24
ENDBRANCH  19  20
ENDBRANCH   1  19
TORSDOF 6
