REMARK  Name = ZINC39631676
REMARK  12 active torsions:
REMARK  status: ('A' for Active; 'I' for Inactive)
REMARK    1  A    between atoms: C_1  and  C_2
REMARK    2  A    between atoms: C_5  and  C_10
REMARK    3  A    between atoms: C_14  and  C_23
REMARK    4  A    between atoms: N_25  and  C_26
REMARK    5  A    between atoms: C_26  and  C_28
REMARK    6  A    between atoms: C_26  and  C_29
REMARK    7  A    between atoms: C_29  and  C_30
REMARK    8  A    between atoms: C_30  and  C_31
REMARK    9  A    between atoms: C_31  and  C_32
REMARK   10  A    between atoms: C_32  and  C_33
REMARK   11  A    between atoms: C_32  and  C_34
REMARK   12  A    between atoms: C_32  and  O_35
REMARK                            x       y       z     vdW  Elec       q    Type
REMARK                         _______ _______ _______ _____ _____    ______ ____
ROOT
ATOM      1  C   UNL     1       0.141  -4.034  -0.091  0.00  0.00    +0.250 C 
ATOM      2  O   UNL     1       0.171  -4.609   0.979  0.00  0.00    -0.270 OA
ATOM      3  N   UNL     1      -0.015  -4.738  -1.230  0.00  0.00    -0.296 N 
ATOM      4  C   UNL     1       0.031  -4.234  -2.623  0.00  0.00    +0.121 C 
ATOM      5  C   UNL     1       0.779  -5.332  -3.411  0.00  0.00    +0.100 C 
ATOM      6  C   UNL     1       0.576  -6.614  -2.587  0.00  0.00    -0.004 C 
ATOM      7  C   UNL     1      -0.264  -6.192  -1.373  0.00  0.00    +0.115 C 
ATOM      8  C   UNL     1      -0.171  -7.659  -3.410  0.00  0.00    -0.010 C 
ATOM      9  C   UNL     1      -0.309  -8.945  -2.590  0.00  0.00    -0.082 C 
ATOM     10  N   UNL     1       1.023  -9.441  -2.226  0.00  0.00    +0.379 N 
ATOM     11  C   UNL     1       1.698  -8.469  -1.357  0.00  0.00    -0.082 C 
ATOM     12  C   UNL     1       1.922  -7.164  -2.125  0.00  0.00    -0.010 C 
ATOM     13  H   UNL     1       0.931 -10.319  -1.738  0.00  0.00    -0.086 HD
ATOM     14  H   UNL     1       1.570  -9.579  -3.063  0.00  0.00    -0.086 HD
ENDROOT
BRANCH   1  19
ATOM     15  C   UNL     1       0.657   1.695  -0.301  0.00  0.00    +0.047 C 
ATOM     16  C   UNL     1       0.524   0.195  -0.245  0.00  0.00    -0.012 A 
ATOM     17  C   UNL     1      -0.285  -0.459  -1.158  0.00  0.00    +0.007 A 
ATOM     18  C   UNL     1      -0.413  -1.831  -1.114  0.00  0.00    +0.016 A 
ATOM     19  C   UNL     1       0.275  -2.564  -0.144  0.00  0.00    +0.075 A 
ATOM     20  C   UNL     1       1.091  -1.900   0.776  0.00  0.00    +0.171 A 
ATOM     21  C   UNL     1       1.215  -0.522   0.717  0.00  0.00    +0.162 A 
ATOM     22  F   UNL     1       2.006   0.124   1.601  0.00  0.00    -0.202 F 
ATOM     23  F   UNL     1       1.760  -2.601   1.718  0.00  0.00    -0.202 F 
ENDBRANCH   1  19
BRANCH   5  24
ATOM     24  C   UNL     1       0.183  -5.489  -4.786  0.00  0.00    +0.218 C 
ATOM     25  O   UNL     1      -1.000  -5.284  -4.962  0.00  0.00    -0.275 OA
ATOM     26  N   UNL     1       0.963  -5.857  -5.821  0.00  0.00    -0.312 N 
ATOM     27  H   UNL     1       1.909  -6.021  -5.681  0.00  0.00    +0.149 HD
BRANCH  26  28
ATOM     28  C   UNL     1       0.384  -6.011  -7.158  0.00  0.00    +0.070 C 
ATOM     29  C   UNL     1       0.350  -4.650  -7.858  0.00  0.00    +0.028 C 
BRANCH  28  30
ATOM     30  C   UNL     1       1.236  -6.984  -7.975  0.00  0.00    +0.022 C 
BRANCH  30  31
ATOM     31  C   UNL     1       1.168  -8.375  -7.343  0.00  0.00    +0.005 C 
BRANCH  31  32
ATOM     32  C   UNL     1       2.020  -9.349  -8.160  0.00  0.00    +0.034 C 
BRANCH  32  33
ATOM     33  C   UNL     1       1.953 -10.740  -7.528  0.00  0.00    +0.061 C 
ATOM     34  C   UNL     1       0.501 -11.223  -7.512  0.00  0.00    +0.041 C 
ATOM     35  C   UNL     1       2.805 -11.713  -8.345  0.00  0.00    +0.041 C 
BRANCH  33  36
ATOM     36  O   UNL     1       2.450 -10.680  -6.190  0.00  0.00    -0.389 OA
ATOM     37  H   UNL     1       3.367 -10.381  -6.124  0.00  0.00    +0.210 HD
ENDBRANCH  33  36
ENDBRANCH  32  33
ENDBRANCH  31  32
ENDBRANCH  30  31
ENDBRANCH  28  30
ENDBRANCH  26  28
ENDBRANCH   5  24
TORSDOF 8
