REMARK  Name = ZINC21989727
REMARK  7 active torsions:
REMARK  status: ('A' for Active; 'I' for Inactive)
REMARK    1  A    between atoms: C_1  and  N_2
REMARK    2  A    between atoms: C_3  and  C_23
REMARK    3  A    between atoms: C_6  and  S_7
REMARK    4  A    between atoms: S_7  and  C_8
REMARK    5  A    between atoms: C_8  and  C_9
REMARK    6  A    between atoms: N_11  and  C_12
REMARK    7  A    between atoms: C_13  and  C_20
REMARK                            x       y       z     vdW  Elec       q    Type
REMARK                         _______ _______ _______ _____ _____    ______ ____
ROOT
ATOM      1  C   UNL     1       6.165   0.549  -0.059  0.00  0.00    +0.173 C 
ENDROOT
BRANCH   1   2
ATOM      2  C   UNL     1       4.700   0.900  -0.041  0.00  0.00    +0.228 C 
ATOM      3  O   UNL     1       4.356   2.063  -0.030  0.00  0.00    -0.275 OA
ATOM      4  N   UNL     1       3.772  -0.077  -0.038  0.00  0.00    -0.279 N 
ATOM      5  H   UNL     1       4.085  -1.132  -0.048  0.00  0.00    +0.155 HD
BRANCH   4   6
ATOM      6  C   UNL     1       2.424   0.247  -0.022  0.00  0.00    +0.084 A 
ATOM      7  C   UNL     1       1.334  -0.607  -0.016  0.00  0.00    +0.068 A 
ATOM      8  C   UNL     1       0.002  -0.004   0.002  0.00  0.00    -0.023 A 
ATOM      9  C   UNL     1      -0.016   1.341   0.009  0.00  0.00    -0.004 A 
ATOM     10  S   UNL     1       1.695   1.816  -0.004  0.00  0.00    -0.077 S 
ATOM     11  C   UNL     1      -1.419   1.886   0.021  0.00  0.00    +0.043 C 
ATOM     12  C   UNL     1      -2.303   0.696  -0.410  0.00  0.00    +0.010 C 
ATOM     13  C   UNL     1      -1.442  -0.508   0.019  0.00  0.00    +0.037 C 
BRANCH   7  14
ATOM     14  C   UNL     1       1.510  -2.063  -0.027  0.00  0.00    +0.244 C 
ATOM     15  O   UNL     1       1.571  -2.660  -1.086  0.00  0.00    -0.270 OA
ATOM     16  N   UNL     1       1.603  -2.739   1.135  0.00  0.00    -0.325 N 
ATOM     17  H   UNL     1       1.734  -3.831   1.126  0.00  0.00    +0.145 HD
ATOM     18  H   UNL     1       1.547  -2.199   2.091  0.00  0.00    +0.145 HD
ENDBRANCH   7  14
ENDBRANCH   4   6
ENDBRANCH   1   2
BRANCH   1  19
ATOM     19  S   UNL     1       7.151   2.067  -0.059  0.00  0.00    -0.077 S 
BRANCH  19  25
ATOM     20  C   UNL     1      10.117   3.528  -0.081  0.00  0.00    +0.153 C 
ATOM     21  N   UNL     1       9.949   2.073  -0.088  0.00  0.00    -0.306 N 
ATOM     22  C   UNL     1      10.937   1.127  -0.103  0.00  0.00    +0.178 A 
ATOM     23  N   UNL     1      10.357  -0.040  -0.104  0.00  0.00    -0.130 NA
ATOM     24  N   UNL     1       9.079   0.103  -0.086  0.00  0.00    -0.122 NA
ATOM     25  C   UNL     1       8.773   1.379  -0.080  0.00  0.00    +0.192 A 
BRANCH  22  26
ATOM     26  C   UNL     1      12.421   1.387  -0.117  0.00  0.00    +0.278 C 
ATOM     27  C   UNL     1      13.012   1.085   1.267  0.00  0.00    +0.281 C 
ATOM     28  O   UNL     1      14.422   1.328   1.216  0.00  0.00    -0.484 OA
ATOM     29  C   UNL     1      15.091   0.821   0.145  0.00  0.00    +0.162 A 
ATOM     30  C   UNL     1      16.472   0.701   0.200  0.00  0.00    +0.049 A 
ATOM     31  C   UNL     1      17.166   0.189  -0.880  0.00  0.00    +0.004 A 
ATOM     32  C   UNL     1      16.487  -0.203  -2.018  0.00  0.00    +0.004 A 
ATOM     33  C   UNL     1      15.111  -0.087  -2.079  0.00  0.00    +0.049 A 
ATOM     34  C   UNL     1      14.408   0.424  -0.998  0.00  0.00    +0.163 A 
ATOM     35  O   UNL     1      13.053   0.527  -1.071  0.00  0.00    -0.474 OA
ENDBRANCH  22  26
ENDBRANCH  19  25
ENDBRANCH   1  19
TORSDOF 6
