REMARK  Name = ZINC10775010
REMARK  10 active torsions:
REMARK  status: ('A' for Active; 'I' for Inactive)
REMARK    1  A    between atoms: C_1  and  C_2
REMARK    2  A    between atoms: C_2  and  N_63
REMARK    3  A    between atoms: C_3  and  C_4
REMARK    4  A    between atoms: C_3  and  N_63
REMARK    5  A    between atoms: C_5  and  C_6
REMARK    6  A    between atoms: C_5  and  N_63
REMARK    7  A    between atoms: C_6  and  N_7
REMARK    8  A    between atoms: C_17  and  C_19
REMARK    9  A    between atoms: N_25  and  S_26
REMARK   10  A    between atoms: S_26  and  C_29
REMARK                            x       y       z     vdW  Elec       q    Type
REMARK                         _______ _______ _______ _____ _____    ______ ____
ROOT
ATOM      1  N   UNL     1      -0.019  -0.082  -0.087  0.00  0.00    -0.251 N 
ATOM      2  C   UNL     1      -0.011   1.302  -0.017  0.00  0.00    +0.168 A 
ATOM      3  N   UNL     1       1.017   2.118   0.014  0.00  0.00    -0.224 NA
ATOM      4  C   UNL     1       0.877   3.460   0.084  0.00  0.00    +0.080 A 
ATOM      5  C   UNL     1       1.892   4.443   0.123  0.00  0.00    +0.029 A 
ATOM      6  C   UNL     1       1.575   5.774   0.193  0.00  0.00    +0.002 A 
ATOM      7  C   UNL     1       0.257   6.205   0.228  0.00  0.00    +0.001 A 
ATOM      8  C   UNL     1      -0.762   5.271   0.192  0.00  0.00    +0.017 A 
ATOM      9  C   UNL     1      -0.454   3.935   0.122  0.00  0.00    +0.041 A 
ATOM     10  S   UNL     1      -1.395   2.430   0.048  0.00  0.00    -0.052 S 
ATOM     11  C   UNL     1       1.135  -0.755  -0.258  0.00  0.00    +0.240 C 
ATOM     12  O   UNL     1       1.121  -1.961  -0.380  0.00  0.00    -0.273 OA
ENDROOT
BRANCH  11  13
ATOM     13  C   UNL     1       2.444  -0.009  -0.297  0.00  0.00    +0.166 C 
ATOM     14  C   UNL     1       3.401  -0.700  -1.274  0.00  0.00    +0.030 C 
ATOM     15  C   UNL     1       4.772  -0.024  -1.203  0.00  0.00    +0.003 C 
ATOM     16  C   UNL     1       5.340  -0.160   0.212  0.00  0.00    +0.017 C 
ATOM     17  C   UNL     1       4.404   0.540   1.203  0.00  0.00    +0.110 C 
ATOM     18  N   UNL     1       3.050  -0.007   1.041  0.00  0.00    -0.164 NA
BRANCH  18  19
ATOM     19  S   UNL     1       2.223  -0.609   2.343  0.00  0.00    +0.068 S 
ATOM     20  O   UNL     1       2.849  -0.079   3.503  0.00  0.00    -0.152 OA
ATOM     21  O   UNL     1       0.841  -0.420   2.069  0.00  0.00    -0.152 OA
BRANCH  19  22
ATOM     22  C   UNL     1       2.496  -2.349   2.374  0.00  0.00    +0.143 A 
ATOM     23  C   UNL     1       3.480  -3.048   2.991  0.00  0.00    +0.036 A 
ATOM     24  C   UNL     1       3.495  -4.426   2.881  0.00  0.00    +0.010 A 
ATOM     25  C   UNL     1       2.530  -5.037   2.151  0.00  0.00    +0.047 A 
ATOM     26  S   UNL     1       1.553  -3.650   1.595  0.00  0.00    -0.077 S 
ENDBRANCH  19  22
ENDBRANCH  18  19
ENDBRANCH  11  13
BRANCH   1  27
ATOM     27  C   UNL     1      -1.284  -0.812   0.023  0.00  0.00    +0.097 C 
BRANCH  27  28
ATOM     28  C   UNL     1      -1.893  -0.993  -1.369  0.00  0.00    -0.059 C 
BRANCH  28  29
ATOM     29  N   UNL     1      -3.156  -1.750  -1.242  0.00  0.00    +0.380 N 
ATOM     30  H   UNL     1      -2.980  -2.604  -0.701  0.00  0.00    -0.082 HD
BRANCH  29  32
ATOM     31  C   UNL     1      -4.513   0.314  -1.353  0.00  0.00    -0.017 C 
ATOM     32  C   UNL     1      -4.166  -0.933  -0.537  0.00  0.00    -0.082 C 
ENDBRANCH  29  32
BRANCH  29  33
ATOM     33  C   UNL     1      -3.656  -2.125  -2.582  0.00  0.00    -0.082 C 
ATOM     34  C   UNL     1      -4.903  -2.997  -2.419  0.00  0.00    -0.017 C 
ENDBRANCH  29  33
ENDBRANCH  28  29
ENDBRANCH  27  28
ENDBRANCH   1  27
TORSDOF 8
