REMARK  Name = ZINC12343158
REMARK  5 active torsions:
REMARK  status: ('A' for Active; 'I' for Inactive)
REMARK    1  A    between atoms: C_1  and  C_2
REMARK    2  A    between atoms: C_2  and  C_18
REMARK    3  A    between atoms: N_3  and  N_4
REMARK    4  A    between atoms: C_5  and  C_7
REMARK    5  A    between atoms: C_7  and  C_8
REMARK                            x       y       z     vdW  Elec       q    Type
REMARK                         _______ _______ _______ _____ _____    ______ ____
ROOT
ATOM      1  N   UNL     1       0.024   0.035   2.340  0.00  0.00    -0.206 N 
ATOM      2  C   UNL     1       0.044  -0.645   3.503  0.00  0.00    +0.237 C 
ATOM      3  O   UNL     1       0.060  -1.858   3.496  0.00  0.00    -0.274 OA
ATOM      4  H   UNL     1       0.011   1.005   2.345  0.00  0.00    +0.177 HD
ENDROOT
BRANCH   1   7
ATOM      5  C   UNL     1      -0.018   1.503   0.010  0.00  0.00    +0.068 C 
ATOM      6  C   UNL     1       0.002  -0.004   0.002  0.00  0.00    +0.063 C 
ATOM      7  N   UNL     1       0.022  -0.659   1.122  0.00  0.00    -0.185 NA
BRANCH   6   8
ATOM      8  C   UNL     1      -0.000  -0.734  -1.279  0.00  0.00    -0.002 A 
ATOM      9  C   UNL     1      -0.015  -0.019  -2.491  0.00  0.00    +0.010 A 
ATOM     10  C   UNL     1      -0.018  -0.669  -3.682  0.00  0.00    +0.009 A 
ATOM     11  C   UNL     1      -0.005  -2.075  -3.717  0.00  0.00    -0.018 A 
ATOM     12  C   UNL     1      -0.007  -2.769  -4.938  0.00  0.00    +0.008 A 
ATOM     13  C   UNL     1       0.007  -4.131  -4.941  0.00  0.00    +0.001 A 
ATOM     14  C   UNL     1       0.022  -4.851  -3.748  0.00  0.00    +0.001 A 
ATOM     15  C   UNL     1       0.024  -4.214  -2.546  0.00  0.00    +0.008 A 
ATOM     16  C   UNL     1       0.011  -2.808  -2.503  0.00  0.00    -0.017 A 
ATOM     17  C   UNL     1       0.019  -2.120  -1.280  0.00  0.00    +0.018 A 
ENDBRANCH   6   8
ENDBRANCH   1   7
BRANCH   2  18
ATOM     18  C   UNL     1       0.046   0.101   4.812  0.00  0.00    +0.134 C 
BRANCH  18  19
ATOM     19  C   UNL     1       0.070  -0.884   5.952  0.00  0.00    -0.014 A 
ATOM     20  C   UNL     1      -0.992  -1.354   6.624  0.00  0.00    +0.087 A 
ATOM     21  N   UNL     1      -0.583  -2.230   7.592  0.00  0.00    -0.360 N 
ATOM     22  H   UNL     1      -1.171  -2.699   8.205  0.00  0.00    +0.165 HD
ATOM     23  C   UNL     1       0.789  -2.349   7.565  0.00  0.00    +0.047 A 
ATOM     24  C   UNL     1       1.258  -1.516   6.533  0.00  0.00    +0.003 A 
ATOM     25  C   UNL     1       2.626  -1.437   6.268  0.00  0.00    +0.010 A 
ATOM     26  C   UNL     1       3.504  -2.174   7.012  0.00  0.00    +0.001 A 
ATOM     27  C   UNL     1       3.047  -3.001   8.028  0.00  0.00    +0.002 A 
ATOM     28  C   UNL     1       1.701  -3.086   8.313  0.00  0.00    +0.026 A 
ENDBRANCH  18  19
ENDBRANCH   2  18
TORSDOF 4
