REMARK  Name = ZINC35640746
REMARK  12 active torsions:
REMARK  status: ('A' for Active; 'I' for Inactive)
REMARK    1  A    between atoms: C_1  and  C_2
REMARK    2  A    between atoms: C_2  and  N_3
REMARK    3  A    between atoms: C_4  and  C_25
REMARK    4  A    between atoms: C_5  and  C_20
REMARK    5  A    between atoms: C_6  and  C_11
REMARK    6  A    between atoms: C_14  and  C_17
REMARK    7  A    between atoms: C_17  and  C_18
REMARK    8  A    between atoms: C_17  and  C_19
REMARK    9  A    between atoms: C_20  and  O_22
REMARK   10  A    between atoms: O_22  and  C_23
REMARK   11  A    between atoms: C_23  and  C_24
REMARK   12  A    between atoms: C_25  and  N_26
REMARK                            x       y       z     vdW  Elec       q    Type
REMARK                         _______ _______ _______ _____ _____    ______ ____
ROOT
ATOM      1  N   UNL     1       0.740  -0.446  -1.191  0.00  0.00    -0.258 N 
ATOM      2  C   UNL     1      -0.033  -0.576  -2.310  0.00  0.00    +0.041 C 
ATOM      3  C   UNL     1       0.487  -1.044  -3.465  0.00  0.00    +0.080 C 
ATOM      4  C   UNL     1       1.956  -1.417  -3.478  0.00  0.00    +0.144 C 
ATOM      5  N   UNL     1       2.700  -1.238  -2.220  0.00  0.00    -0.288 N 
ATOM      6  C   UNL     1       2.042  -0.755  -1.148  0.00  0.00    +0.307 C 
ATOM      7  O   UNL     1       2.648  -0.600  -0.106  0.00  0.00    -0.252 OA
ATOM      8  H   UNL     1       3.643  -1.459  -2.166  0.00  0.00    +0.151 HD
ENDROOT
BRANCH   4   9
ATOM      9  C   UNL     1       2.063  -2.865  -3.879  0.00  0.00    -0.022 A 
ATOM     10  C   UNL     1       1.829  -3.860  -2.947  0.00  0.00    +0.006 A 
ATOM     11  C   UNL     1       1.928  -5.189  -3.315  0.00  0.00    +0.004 A 
ATOM     12  C   UNL     1       2.260  -5.523  -4.615  0.00  0.00    -0.045 A 
ATOM     13  C   UNL     1       2.494  -4.529  -5.546  0.00  0.00    +0.004 A 
ATOM     14  C   UNL     1       2.391  -3.200  -5.179  0.00  0.00    +0.006 A 
BRANCH  12  15
ATOM     15  C   UNL     1       2.369  -6.972  -5.015  0.00  0.00    +0.013 C 
ATOM     16  C   UNL     1       1.366  -7.269  -6.132  0.00  0.00    +0.012 C 
ATOM     17  C   UNL     1       3.787  -7.258  -5.514  0.00  0.00    +0.012 C 
ENDBRANCH  12  15
ENDBRANCH   4   9
BRANCH   1  19
ATOM     18  C   UNL     1       0.224   1.593   0.057  0.00  0.00    +0.025 C 
ATOM     19  C   UNL     1       0.110   0.068   0.028  0.00  0.00    +0.111 C 
ENDBRANCH   1  19
BRANCH   3  20
ATOM     20  C   UNL     1      -0.312  -1.180  -4.624  0.00  0.00    +0.339 C 
ATOM     21  O   UNL     1      -0.755  -2.271  -4.933  0.00  0.00    -0.245 OA
BRANCH  20  22
ATOM     22  O   UNL     1      -0.584  -0.101  -5.388  0.00  0.00    -0.462 OA
BRANCH  22  23
ATOM     23  C   UNL     1      -1.397  -0.312  -6.544  0.00  0.00    +0.229 C 
ATOM     24  C   UNL     1      -1.594   1.015  -7.278  0.00  0.00    +0.048 C 
ENDBRANCH  22  23
ENDBRANCH  20  22
ENDBRANCH   3  20
BRANCH   2  25
ATOM     25  C   UNL     1      -1.489  -0.194  -2.253  0.00  0.00    +0.136 C 
BRANCH  25  26
ATOM     26  N   UNL     1      -2.204  -1.117  -1.362  0.00  0.00    -0.299 NA
ATOM     27  C   UNL     1      -2.155  -2.504  -1.884  0.00  0.00    +0.083 C 
ATOM     28  C   UNL     1      -2.341  -3.456  -0.730  0.00  0.00    -0.004 C 
ATOM     29  C   UNL     1      -3.812  -3.849  -0.519  0.00  0.00    -0.081 C 
ATOM     30  N   UNL     1      -4.736  -2.701  -0.662  0.00  0.00    +0.380 N 
ATOM     31  C   UNL     1      -4.221  -1.504  -0.036  0.00  0.00    -0.067 C 
ATOM     32  C   UNL     1      -3.502  -0.663  -1.107  0.00  0.00    +0.066 C 
ATOM     33  H   UNL     1      -4.884  -2.520  -1.643  0.00  0.00    -0.086 HD
ATOM     34  H   UNL     1      -5.620  -2.938  -0.238  0.00  0.00    -0.086 HD
ENDBRANCH  25  26
ENDBRANCH   2  25
TORSDOF 8
