REMARK  Name = ZINC25738135
REMARK  6 active torsions:
REMARK  status: ('A' for Active; 'I' for Inactive)
REMARK    1  A    between atoms: C_3  and  C_22
REMARK    2  A    between atoms: C_6  and  N_7
REMARK    3  A    between atoms: N_7  and  C_8
REMARK    4  A    between atoms: C_8  and  C_9
REMARK    5  A    between atoms: N_11  and  C_12
REMARK    6  A    between atoms: C_12  and  C_19
REMARK                            x       y       z     vdW  Elec       q    Type
REMARK                         _______ _______ _______ _____ _____    ______ ____
ROOT
ATOM      1  N   UNL     1       3.612  -0.645  -0.036  0.00  0.00    -0.335 N 
ATOM      2  H   UNL     1       3.625  -1.744  -0.042  0.00  0.00    +0.147 HD
ENDROOT
BRANCH   1   8
ATOM      3  C   UNL     1       1.204  -0.674  -0.013  0.00  0.00    +0.024 A 
ATOM      4  C   UNL     1       0.002  -0.004   0.002  0.00  0.00    +0.016 A 
ATOM      5  C   UNL     1      -0.017   1.394   0.010  0.00  0.00    +0.055 A 
ATOM      6  C   UNL     1       1.188   2.107   0.002  0.00  0.00    +0.055 A 
ATOM      7  C   UNL     1       2.387   1.429  -0.013  0.00  0.00    +0.043 A 
ATOM      8  C   UNL     1       2.400   0.037  -0.021  0.00  0.00    +0.029 A 
ATOM      9 CL   UNL     1       1.170   3.842   0.011  0.00  0.00    -0.083 Cl
BRANCH   5  10
ATOM     10  C   UNL     1      -1.303   2.115   0.020  0.00  0.00    +0.243 C 
ATOM     11  O   UNL     1      -1.317   3.331   0.026  0.00  0.00    -0.270 OA
ATOM     12  N   UNL     1      -2.462   1.427   0.021  0.00  0.00    -0.325 N 
ATOM     13  H   UNL     1      -3.421   1.966   0.029  0.00  0.00    +0.145 HD
ATOM     14  H   UNL     1      -2.448   0.328   0.015  0.00  0.00    +0.145 HD
ENDBRANCH   5  10
ENDBRANCH   1   8
BRANCH   1  15
ATOM     15  C   UNL     1       4.873   0.102  -0.044  0.00  0.00    +0.197 C 
BRANCH  15  16
ATOM     16  C   UNL     1       6.029  -0.864  -0.060  0.00  0.00    +0.231 C 
ATOM     17  O   UNL     1       5.821  -2.059  -0.065  0.00  0.00    -0.274 OA
ATOM     18  N   UNL     1       7.294  -0.400  -0.070  0.00  0.00    -0.296 N 
ATOM     19  H   UNL     1       7.483   0.683  -0.066  0.00  0.00    +0.150 HD
BRANCH  18  20
ATOM     20  C   UNL     1       8.419  -1.340  -0.086  0.00  0.00    +0.121 C 
ATOM     21  C   UNL     1       8.306  -2.274   1.136  0.00  0.00    +0.041 C 
ATOM     22  C   UNL     1       9.112  -3.516   0.864  0.00  0.00    +0.003 C 
ATOM     23  C   UNL     1      10.543  -3.424   1.427  0.00  0.00    +0.000 C 
ATOM     24  C   UNL     1      11.188  -2.044   1.196  0.00  0.00    +0.000 C 
ATOM     25  C   UNL     1      10.904  -1.498  -0.177  0.00  0.00    +0.003 C 
ATOM     26  C   UNL     1       9.663  -0.585  -0.093  0.00  0.00    +0.041 C 
BRANCH  20  27
ATOM     27  C   UNL     1       8.345  -2.150  -1.312  0.00  0.00    +0.088 C 
ATOM     28  N   UNL     1       8.288  -2.776  -2.259  0.00  0.00    -0.194 NA
ENDBRANCH  20  27
ENDBRANCH  18  20
ENDBRANCH  15  16
ENDBRANCH   1  15
TORSDOF 6
