REMARK  Name = ZINC36029897
REMARK  8 active torsions:
REMARK  status: ('A' for Active; 'I' for Inactive)
REMARK    1  A    between atoms: C_1  and  C_2
REMARK    2  A    between atoms: C_2  and  C_3
REMARK    3  A    between atoms: C_3  and  C_5
REMARK    4  A    between atoms: C_3  and  C_6
REMARK    5  A    between atoms: N_10  and  C_29
REMARK    6  A    between atoms: N_15  and  S_18
REMARK    7  A    between atoms: S_18  and  C_21
REMARK    8  A    between atoms: C_29  and  C_30
REMARK                            x       y       z     vdW  Elec       q    Type
REMARK                         _______ _______ _______ _____ _____    ______ ____
ROOT
ATOM      1  C   UNL     1       0.247  -2.372  -1.067  0.00  0.00    +0.022 C 
ATOM      2  C   UNL     1       1.145  -2.849   0.053  0.00  0.00    +0.201 C 
ATOM      3  O   UNL     1       1.173  -2.400   1.179  0.00  0.00    -0.277 OA
ATOM      4  N   UNL     1       1.909  -3.860  -0.411  0.00  0.00    -0.313 N 
ATOM      5  C   UNL     1       1.579  -4.117  -1.815  0.00  0.00    +0.006 C 
ATOM      6  N   UNL     1       0.856  -2.922  -2.303  0.00  0.00    +0.401 N 
ATOM      7  C   UNL     1       2.855  -4.318  -2.630  0.00  0.00    +0.023 C 
ATOM      8  C   UNL     1       3.614  -5.537  -2.094  0.00  0.00    +0.109 C 
ATOM      9  N   UNL     1       2.706  -6.692  -2.083  0.00  0.00    -0.177 NA
ATOM     10  C   UNL     1       1.417  -6.572  -1.387  0.00  0.00    +0.109 C 
ATOM     11  C   UNL     1       0.677  -5.345  -1.930  0.00  0.00    +0.023 C 
ATOM     12  H   UNL     1       0.142  -3.181  -2.967  0.00  0.00    -0.082 HD
ATOM     13  H   UNL     1       1.499  -2.258  -2.709  0.00  0.00    -0.082 HD
ENDROOT
BRANCH   9  14
ATOM     14  S   UNL     1       3.126  -8.102  -2.842  0.00  0.00    +0.062 S 
ATOM     15  O   UNL     1       1.916  -8.702  -3.284  0.00  0.00    -0.153 OA
ATOM     16  O   UNL     1       4.188  -7.785  -3.731  0.00  0.00    -0.153 OA
BRANCH  14  17
ATOM     17  C   UNL     1       3.800  -9.173  -1.615  0.00  0.00    +0.125 A 
ATOM     18  C   UNL     1       3.090 -10.285  -1.203  0.00  0.00    +0.030 A 
ATOM     19  C   UNL     1       3.618 -11.125  -0.240  0.00  0.00    +0.003 A 
ATOM     20  C   UNL     1       4.856 -10.854   0.311  0.00  0.00    +0.021 A 
ATOM     21  C   UNL     1       5.568  -9.741  -0.100  0.00  0.00    +0.061 A 
ATOM     22  C   UNL     1       5.042  -8.903  -1.068  0.00  0.00    +0.086 A 
ATOM     23 CL   UNL     1       5.937  -7.510  -1.591  0.00  0.00    -0.080 Cl
ATOM     24 CL   UNL     1       7.122  -9.400   0.593  0.00  0.00    -0.082 Cl
ENDBRANCH  14  17
ENDBRANCH   9  14
BRANCH   1  25
ATOM     25  C   UNL     1       0.226  -0.843  -1.119  0.00  0.00    -0.020 C 
ATOM     26  C   UNL     1      -0.627  -0.384  -2.303  0.00  0.00    +0.006 C 
BRANCH  25  28
ATOM     27  C   UNL     1      -0.277   1.230   0.183  0.00  0.00    +0.004 C 
ATOM     28  C   UNL     1      -0.369  -0.297   0.181  0.00  0.00    -0.001 C 
ENDBRANCH  25  28
ENDBRANCH   1  25
BRANCH   4  29
ATOM     29  C   UNL     1       2.914  -4.588   0.368  0.00  0.00    +0.109 C 
BRANCH  29  30
ATOM     30  C   UNL     1       4.232  -3.812   0.351  0.00  0.00    +0.006 C 
ATOM     31  C   UNL     1       5.484  -4.557  -0.118  0.00  0.00    +0.005 C 
ATOM     32  C   UNL     1       5.305  -4.219   1.364  0.00  0.00    +0.005 C 
ENDBRANCH  29  30
ENDBRANCH   4  29
TORSDOF 6
