REMARK  Name = ZINC64061304
REMARK  7 active torsions:
REMARK  status: ('A' for Active; 'I' for Inactive)
REMARK    1  A    between atoms: C_1  and  O_2
REMARK    2  A    between atoms: O_2  and  C_3
REMARK    3  A    between atoms: C_15  and  C_17
REMARK    4  A    between atoms: C_23  and  C_25
REMARK    5  A    between atoms: C_25  and  O_27
REMARK    6  A    between atoms: O_27  and  C_28
REMARK    7  A    between atoms: C_29  and  C_31
REMARK                            x       y       z     vdW  Elec       q    Type
REMARK                         _______ _______ _______ _____ _____    ______ ____
ROOT
ATOM      1  C   UNL     1       1.406  -1.616  -1.710  0.00  0.00    +0.116 C 
ATOM      2  C   UNL     1       1.922  -0.878  -2.705  0.00  0.00    +0.109 C 
ATOM      3  C   UNL     1       2.182  -1.485  -3.961  0.00  0.00    +0.243 C 
ATOM      4  O   UNL     1       2.931  -0.940  -4.751  0.00  0.00    -0.271 OA
ATOM      5  N   UNL     1       1.617  -2.642  -4.281  0.00  0.00    -0.292 N 
ATOM      6  C   UNL     1       1.701  -3.253  -5.613  0.00  0.00    +0.127 C 
ATOM      7  C   UNL     1       0.928  -2.377  -6.611  0.00  0.00    +0.127 C 
ATOM      8  N   UNL     1      -0.443  -2.195  -6.005  0.00  0.00    -0.298 N 
ATOM      9  C   UNL     1      -0.974  -3.207  -5.131  0.00  0.00    +0.110 C 
ATOM     10  C   UNL     1      -0.637  -2.980  -3.665  0.00  0.00    +0.042 C 
ATOM     11  C   UNL     1       0.777  -3.415  -3.329  0.00  0.00    +0.097 C 
ATOM     12  C   UNL     1       1.160  -3.087  -1.894  0.00  0.00    +0.161 C 
ATOM     13  C   UNL     1      -1.165  -1.091  -6.281  0.00  0.00    +0.242 C 
ATOM     14  O   UNL     1      -2.296  -0.983  -5.856  0.00  0.00    -0.273 OA
ENDROOT
BRANCH  13  15
ATOM     15  C   UNL     1      -0.567   0.010  -7.119  0.00  0.00    +0.190 C 
ATOM     16  C   UNL     1       0.280   0.920  -6.257  0.00  0.00    +0.016 C 
ATOM     17  C   UNL     1      -0.281   2.147  -6.344  0.00  0.00    -0.004 A 
ATOM     18  C   UNL     1       0.066   3.443  -5.747  0.00  0.00    +0.010 A 
ATOM     19  C   UNL     1      -0.703   4.520  -6.025  0.00  0.00    +0.001 A 
ATOM     20  C   UNL     1      -1.820   4.430  -6.868  0.00  0.00    +0.002 A 
ATOM     21  C   UNL     1      -2.201   3.275  -7.453  0.00  0.00    +0.026 A 
ATOM     22  C   UNL     1      -1.465   2.079  -7.230  0.00  0.00    +0.043 A 
ATOM     23  N   UNL     1      -1.629   0.856  -7.676  0.00  0.00    -0.370 N 
ATOM     24  H   UNL     1      -2.335   0.559  -8.272  0.00  0.00    +0.161 HD
ENDBRANCH  13  15
BRANCH  12  25
ATOM     25  C   UNL     1       0.043  -3.517  -0.979  0.00  0.00    +0.228 C 
ATOM     26  O   UNL     1      -0.875  -2.759  -0.745  0.00  0.00    -0.275 OA
ATOM     27  N   UNL     1       0.063  -4.743  -0.419  0.00  0.00    -0.287 N 
ATOM     28  C   UNL     1       1.164  -5.718  -0.528  0.00  0.00    +0.109 C 
ATOM     29  C   UNL     1       0.497  -7.096  -0.290  0.00  0.00    +0.021 C 
ATOM     30  C   UNL     1      -0.555  -6.750   0.797  0.00  0.00    +0.035 C 
ATOM     31  C   UNL     1      -1.005  -5.327   0.405  0.00  0.00    +0.185 C 
BRANCH  31  32
ATOM     32  C   UNL     1      -1.212  -4.493   1.642  0.00  0.00    +0.328 C 
ATOM     33  O   UNL     1      -0.538  -3.507   1.826  0.00  0.00    -0.249 OA
BRANCH  32  34
ATOM     34  O   UNL     1      -2.144  -4.845   2.541  0.00  0.00    -0.467 OA
ATOM     35  C   UNL     1      -2.286  -4.008   3.691  0.00  0.00    +0.280 C 
ENDBRANCH  32  34
ENDBRANCH  31  32
ENDBRANCH  12  25
BRANCH   1  37
ATOM     36  C   UNL     1       1.369   0.367  -0.416  0.00  0.00    +0.276 C 
ATOM     37  O   UNL     1       1.112  -1.034  -0.530  0.00  0.00    -0.498 OA
ENDBRANCH   1  37
TORSDOF 5
