REMARK  Name = ZINC09125137
REMARK  7 active torsions:
REMARK  status: ('A' for Active; 'I' for Inactive)
REMARK    1  A    between atoms: C_4  and  C_7
REMARK    2  A    between atoms: C_7  and  N_8
REMARK    3  A    between atoms: C_9  and  N_34
REMARK    4  A    between atoms: C_10  and  N_17
REMARK    5  A    between atoms: N_17  and  C_18
REMARK    6  A    between atoms: C_23  and  C_25
REMARK    7  A    between atoms: C_26  and  C_27
REMARK                            x       y       z     vdW  Elec       q    Type
REMARK                         _______ _______ _______ _____ _____    ______ ____
ROOT
ATOM      1  N   UNL     1      -3.419  -0.571   1.482  0.00  0.00    -0.276 N 
ATOM      2  C   UNL     1      -2.353   0.286   1.331  0.00  0.00    +0.128 A 
ATOM      3  C   UNL     1      -2.211   0.982   0.148  0.00  0.00    +0.140 A 
ATOM      4  C   UNL     1      -3.167   0.798  -0.868  0.00  0.00    +0.277 A 
ATOM      5  O   UNL     1      -3.068   1.405  -1.921  0.00  0.00    -0.266 OA
ATOM      6  N   UNL     1      -4.190  -0.057  -0.671  0.00  0.00    -0.273 N 
ATOM      7  H   UNL     1      -4.866  -0.194  -1.395  0.00  0.00    +0.173 HD
ATOM      8  C   UNL     1      -4.312  -0.727   0.488  0.00  0.00    +0.331 A 
ATOM      9  O   UNL     1      -5.247  -1.489   0.641  0.00  0.00    -0.246 OA
ENDROOT
BRANCH   3  10
ATOM     10  N   UNL     1      -1.129   1.868  -0.037  0.00  0.00    -0.258 N 
ATOM     11  C   UNL     1       0.131   1.391  -0.088  0.00  0.00    +0.244 C 
ATOM     12  O   UNL     1       1.071   2.163  -0.144  0.00  0.00    -0.270 OA
BRANCH  10  13
ATOM     13  C   UNL     1      -1.375   3.306  -0.174  0.00  0.00    +0.082 C 
ATOM     14  C   UNL     1      -0.881   3.797  -1.550  0.00  0.00    +0.023 C 
ATOM     15  C   UNL     1      -0.297   5.203  -1.264  0.00  0.00    +0.002 C 
ATOM     16  C   UNL     1       0.384   5.017   0.115  0.00  0.00    +0.002 C 
ATOM     17  C   UNL     1      -0.571   4.081   0.885  0.00  0.00    +0.023 C 
ENDBRANCH  10  13
BRANCH  11  18
ATOM     18  C   UNL     1       0.369  -0.053  -0.069  0.00  0.00    +0.068 C 
ATOM     19  C   UNL     1       1.620  -0.532  -0.214  0.00  0.00    +0.013 C 
BRANCH  19  20
ATOM     20  C   UNL     1       1.847  -1.984  -0.306  0.00  0.00    -0.023 A 
ATOM     21  C   UNL     1       0.782  -2.874  -0.130  0.00  0.00    +0.008 A 
ATOM     22  C   UNL     1       1.001  -4.232  -0.222  0.00  0.00    +0.002 A 
ATOM     23  C   UNL     1       2.272  -4.716  -0.478  0.00  0.00    +0.020 A 
ATOM     24  C   UNL     1       3.332  -3.842  -0.648  0.00  0.00    +0.042 A 
ATOM     25  C   UNL     1       3.128  -2.480  -0.564  0.00  0.00    +0.028 A 
ATOM     26 CL   UNL     1       4.922  -4.462  -0.968  0.00  0.00    -0.084 Cl
ENDBRANCH  19  20
ENDBRANCH  11  18
ENDBRANCH   3  10
BRANCH   2  27
ATOM     27  N   UNL     1      -1.441   0.446   2.347  0.00  0.00    -0.343 N 
ATOM     28  H   UNL     1      -0.735   1.107   2.265  0.00  0.00    +0.144 HD
ATOM     29  H   UNL     1      -1.502  -0.102   3.145  0.00  0.00    +0.144 HD
ENDBRANCH   2  27
BRANCH   1  30
ATOM     30  C   UNL     1      -3.583  -1.316   2.732  0.00  0.00    +0.163 C 
BRANCH  30  34
ATOM     31  C   UNL     1      -5.949   0.972   5.455  0.00  0.00    +0.000 A 
ATOM     32  C   UNL     1      -6.559   0.092   4.581  0.00  0.00    +0.000 A 
ATOM     33  C   UNL     1      -5.793  -0.648   3.699  0.00  0.00    +0.005 A 
ATOM     34  C   UNL     1      -4.418  -0.509   3.693  0.00  0.00    -0.028 A 
ATOM     35  C   UNL     1      -3.808   0.367   4.571  0.00  0.00    +0.005 A 
ATOM     36  C   UNL     1      -4.574   1.111   5.449  0.00  0.00    +0.000 A 
ENDBRANCH  30  34
ENDBRANCH   1  30
TORSDOF 7
