REMARK  Name = ZINC39678966
REMARK  12 active torsions:
REMARK  status: ('A' for Active; 'I' for Inactive)
REMARK    1  A    between atoms: C_1  and  C_2
REMARK    2  A    between atoms: C_2  and  C_4
REMARK    3  A    between atoms: C_2  and  O_27
REMARK    4  A    between atoms: C_8  and  C_17
REMARK    5  A    between atoms: N_19  and  C_20
REMARK    6  A    between atoms: C_20  and  C_21
REMARK    7  A    between atoms: C_21  and  C_22
REMARK    8  A    between atoms: C_22  and  C_23
REMARK    9  A    between atoms: C_23  and  N_24
REMARK   10  A    between atoms: N_24  and  C_25
REMARK   11  A    between atoms: N_24  and  C_26
REMARK   12  A    between atoms: O_27  and  C_28
REMARK                            x       y       z     vdW  Elec       q    Type
REMARK                         _______ _______ _______ _____ _____    ______ ____
ROOT
ATOM      1  C   UNL     1       0.610  -0.642  -1.166  0.00  0.00    +0.256 C 
ATOM      2  O   UNL     1       1.711  -1.064  -0.884  0.00  0.00    -0.272 OA
ATOM      3  N   UNL     1       0.225  -0.571  -2.456  0.00  0.00    -0.297 N 
ATOM      4  C   UNL     1      -1.096  -0.163  -2.989  0.00  0.00    +0.121 C 
ATOM      5  C   UNL     1      -0.768   0.674  -4.246  0.00  0.00    +0.100 C 
ATOM      6  C   UNL     1       0.626   0.194  -4.684  0.00  0.00    -0.004 C 
ATOM      7  C   UNL     1       1.031  -0.879  -3.663  0.00  0.00    +0.115 C 
ATOM      8  C   UNL     1       1.620   1.352  -4.645  0.00  0.00    -0.010 C 
ATOM      9  C   UNL     1       2.985   0.864  -5.139  0.00  0.00    -0.082 C 
ATOM     10  N   UNL     1       2.856   0.348  -6.507  0.00  0.00    +0.379 N 
ATOM     11  C   UNL     1       1.971  -0.823  -6.521  0.00  0.00    -0.082 C 
ATOM     12  C   UNL     1       0.563  -0.406  -6.085  0.00  0.00    -0.010 C 
ATOM     13  H   UNL     1       2.470   1.067  -7.101  0.00  0.00    -0.086 HD
ATOM     14  H   UNL     1       3.767   0.084  -6.853  0.00  0.00    -0.086 HD
ENDROOT
BRANCH   5  15
ATOM     15  C   UNL     1      -0.737   2.142  -3.906  0.00  0.00    +0.218 C 
ATOM     16  O   UNL     1      -0.264   2.510  -2.852  0.00  0.00    -0.275 OA
ATOM     17  N   UNL     1      -1.237   3.045  -4.773  0.00  0.00    -0.315 N 
ATOM     18  H   UNL     1      -1.616   2.750  -5.616  0.00  0.00    +0.149 HD
BRANCH  17  19
ATOM     19  C   UNL     1      -1.207   4.471  -4.443  0.00  0.00    +0.104 C 
BRANCH  19  20
ATOM     20  C   UNL     1      -1.831   5.273  -5.587  0.00  0.00    +0.017 C 
BRANCH  20  21
ATOM     21  C   UNL     1      -1.800   6.763  -5.242  0.00  0.00    -0.017 C 
BRANCH  21  22
ATOM     22  C   UNL     1      -2.424   7.565  -6.386  0.00  0.00    -0.080 C 
BRANCH  22  23
ATOM     23  N   UNL     1      -2.394   8.996  -6.055  0.00  0.00    +0.376 N 
ATOM     24  C   UNL     1      -1.000   9.451  -5.976  0.00  0.00    -0.097 C 
ATOM     25  C   UNL     1      -3.099   9.754  -7.097  0.00  0.00    -0.097 C 
ATOM     26  H   UNL     1      -2.848   9.144  -5.166  0.00  0.00    -0.083 HD
ENDBRANCH  22  23
ENDBRANCH  21  22
ENDBRANCH  20  21
ENDBRANCH  19  20
ENDBRANCH  17  19
ENDBRANCH   5  15
BRANCH   1  28
ATOM     27  C   UNL     1      -0.493   1.323  -0.131  0.00  0.00    +0.062 C 
ATOM     28  C   UNL     1      -0.329  -0.197  -0.075  0.00  0.00    +0.256 C 
BRANCH  28  29
ATOM     29  O   UNL     1       0.206  -0.572   1.196  0.00  0.00    -0.480 OA
BRANCH  29  30
ATOM     30  C   UNL     1      -0.679  -0.739   2.213  0.00  0.00    +0.122 A 
ATOM     31  C   UNL     1      -2.021  -0.443   2.023  0.00  0.00    +0.045 A 
ATOM     32  C   UNL     1      -2.919  -0.615   3.059  0.00  0.00    +0.004 A 
ATOM     33  C   UNL     1      -2.481  -1.081   4.284  0.00  0.00    +0.000 A 
ATOM     34  C   UNL     1      -1.144  -1.377   4.477  0.00  0.00    +0.004 A 
ATOM     35  C   UNL     1      -0.243  -1.213   3.443  0.00  0.00    +0.045 A 
ENDBRANCH  29  30
ENDBRANCH  28  29
ENDBRANCH   1  28
TORSDOF 9
