REMARK  Name = ZINC06189038
REMARK  6 active torsions:
REMARK  status: ('A' for Active; 'I' for Inactive)
REMARK    1  A    between atoms: C_1  and  C_2
REMARK    2  A    between atoms: C_5  and  S_8
REMARK    3  A    between atoms: S_8  and  N_11
REMARK    4  A    between atoms: C_12  and  C_24
REMARK    5  A    between atoms: C_15  and  C_17
REMARK    6  A    between atoms: C_28  and  N_30
REMARK                            x       y       z     vdW  Elec       q    Type
REMARK                         _______ _______ _______ _____ _____    ______ ____
ROOT
ATOM      1  N   UNL     1       0.011   4.091   0.796  0.00  0.00    -0.115 N 
ATOM      2  C   UNL     1       1.151   3.592   0.010  0.00  0.00    +0.154 C 
ATOM      3  C   UNL     1       0.879   4.138  -1.406  0.00  0.00    +0.088 C 
ATOM      4  C   UNL     1      -0.416   4.904  -1.259  0.00  0.00    +0.070 C 
ATOM      5  N   UNL     1      -0.823   4.832  -0.039  0.00  0.00    -0.167 NA
ENDROOT
BRANCH   4   6
ATOM      6  C   UNL     1      -1.107   5.624  -2.345  0.00  0.00    -0.002 A 
ATOM      7  C   UNL     1      -0.566   5.638  -3.633  0.00  0.00    +0.011 A 
ATOM      8  C   UNL     1      -1.220   6.309  -4.645  0.00  0.00    +0.016 A 
ATOM      9  C   UNL     1      -2.405   6.976  -4.385  0.00  0.00    +0.018 A 
ATOM     10  C   UNL     1      -2.945   6.970  -3.109  0.00  0.00    +0.016 A 
ATOM     11  C   UNL     1      -2.303   6.299  -2.089  0.00  0.00    +0.011 A 
ATOM     12 BR   UNL     1      -3.291   7.899  -5.777  0.00  0.00    -0.050 Br
ENDBRANCH   4   6
BRANCH   2  13
ATOM     13  C   UNL     1       1.171   2.085   0.002  0.00  0.00    -0.021 A 
ATOM     14  C   UNL     1      -0.017   1.378   0.010  0.00  0.00    +0.006 A 
ATOM     15  C   UNL     1       0.002  -0.004   0.002  0.00  0.00    +0.003 A 
ATOM     16  C   UNL     1       1.209  -0.679  -0.014  0.00  0.00    +0.033 A 
ATOM     17  C   UNL     1       2.396   0.028  -0.022  0.00  0.00    +0.127 A 
ATOM     18  C   UNL     1       2.377   1.411  -0.014  0.00  0.00    +0.038 A 
BRANCH  17  19
ATOM     19  N   UNL     1       3.688  -0.694  -0.038  0.00  0.00    +0.056 N 
ATOM     20  O   UNL     1       3.704  -1.912  -0.045  0.00  0.00    -0.126 OA
ATOM     21  O   UNL     1       4.734  -0.071  -0.045  0.00  0.00    -0.126 OA
ENDBRANCH  17  19
ENDBRANCH   2  13
BRANCH   1  22
ATOM     22  S   UNL     1      -0.240   3.816   2.410  0.00  0.00    +0.089 S 
ATOM     23  O   UNL     1      -1.646   3.842   2.613  0.00  0.00    -0.149 OA
ATOM     24  O   UNL     1       0.560   2.694   2.760  0.00  0.00    -0.149 OA
BRANCH  22  29
ATOM     25  C   UNL     1       2.022   8.546   5.397  0.00  0.00    +0.044 C 
ATOM     26  C   UNL     1       1.457   7.364   4.651  0.00  0.00    -0.050 A 
ATOM     27  C   UNL     1       0.138   7.374   4.238  0.00  0.00    +0.005 A 
ATOM     28  C   UNL     1      -0.380   6.290   3.554  0.00  0.00    +0.029 A 
ATOM     29  C   UNL     1       0.421   5.197   3.282  0.00  0.00    +0.110 A 
ATOM     30  C   UNL     1       1.738   5.185   3.700  0.00  0.00    +0.029 A 
ATOM     31  C   UNL     1       2.258   6.270   4.381  0.00  0.00    +0.005 A 
ENDBRANCH  22  29
ENDBRANCH   1  22
TORSDOF 5
