REMARK  Name = ZINC08759158
REMARK  8 active torsions:
REMARK  status: ('A' for Active; 'I' for Inactive)
REMARK    1  A    between atoms: C_1  and  C_2
REMARK    2  A    between atoms: C_2  and  C_4
REMARK    3  A    between atoms: C_2  and  S_17
REMARK    4  A    between atoms: N_6  and  C_7
REMARK    5  A    between atoms: C_9  and  N_14
REMARK    6  A    between atoms: S_17  and  C_18
REMARK    7  A    between atoms: C_23  and  O_28
REMARK    8  A    between atoms: O_28  and  C_29
REMARK                            x       y       z     vdW  Elec       q    Type
REMARK                         _______ _______ _______ _____ _____    ______ ____
ROOT
ATOM      1  C   UNL     1      -0.011   1.543  -0.006  0.00  0.00    +0.029 C 
ATOM      2  C   UNL     1       0.003   0.013  -0.005  0.00  0.00    +0.137 C 
ENDROOT
BRANCH   2   3
ATOM      3  C   UNL     1       0.708  -0.484  -1.240  0.00  0.00    +0.230 C 
ATOM      4  O   UNL     1       0.067  -0.780  -2.227  0.00  0.00    -0.274 OA
ATOM      5  N   UNL     1       2.051  -0.601  -1.250  0.00  0.00    -0.283 N 
ATOM      6  H   UNL     1       2.568  -0.303  -0.485  0.00  0.00    +0.155 HD
BRANCH   5   7
ATOM      7  C   UNL     1       2.698  -1.150  -2.362  0.00  0.00    +0.054 A 
ATOM      8  C   UNL     1       2.199  -0.926  -3.639  0.00  0.00    +0.057 A 
ATOM      9  C   UNL     1       2.841  -1.469  -4.735  0.00  0.00    +0.128 A 
ATOM     10  C   UNL     1       3.979  -2.236  -4.563  0.00  0.00    +0.034 A 
ATOM     11  C   UNL     1       4.479  -2.461  -3.294  0.00  0.00    +0.024 A 
ATOM     12  C   UNL     1       3.845  -1.916  -2.193  0.00  0.00    +0.062 A 
ATOM     13 CL   UNL     1       4.477  -2.194  -0.600  0.00  0.00    -0.082 Cl
BRANCH   9  14
ATOM     14  N   UNL     1       2.309  -1.230  -6.095  0.00  0.00    +0.056 N 
ATOM     15  O   UNL     1       1.314  -0.560  -6.247  0.00  0.00    -0.126 OA
ATOM     16  O   UNL     1       2.869  -1.705  -7.055  0.00  0.00    -0.126 OA
ENDBRANCH   9  14
ENDBRANCH   5   7
ENDBRANCH   2   3
BRANCH   2  17
ATOM     17  S   UNL     1      -1.702  -0.608   0.010  0.00  0.00    -0.075 S 
BRANCH  17  18
ATOM     18  C   UNL     1      -2.337  -0.073   1.564  0.00  0.00    +0.168 A 
ATOM     19  N   UNL     1      -3.601  -0.318   2.022  0.00  0.00    -0.333 N 
ATOM     20  H   UNL     1      -4.296  -0.809   1.558  0.00  0.00    +0.168 HD
ATOM     21  C   UNL     1      -3.704   0.266   3.275  0.00  0.00    +0.070 A 
ATOM     22  C   UNL     1      -4.722   0.352   4.213  0.00  0.00    +0.073 A 
ATOM     23  C   UNL     1      -4.505   1.025   5.402  0.00  0.00    +0.122 A 
ATOM     24  C   UNL     1      -3.272   1.615   5.661  0.00  0.00    +0.048 A 
ATOM     25  C   UNL     1      -2.254   1.537   4.738  0.00  0.00    +0.033 A 
ATOM     26  C   UNL     1      -2.458   0.860   3.533  0.00  0.00    +0.090 A 
ATOM     27  N   UNL     1      -1.666   0.614   2.455  0.00  0.00    -0.222 NA
BRANCH  23  28
ATOM     28  O   UNL     1      -5.503   1.111   6.322  0.00  0.00    -0.495 OA
ATOM     29  C   UNL     1      -5.213   1.819   7.529  0.00  0.00    +0.277 C 
ENDBRANCH  23  28
ENDBRANCH  17  18
ENDBRANCH   2  17
TORSDOF 6
