REMARK  Name = ZINC12660485
REMARK  17 active torsions:
REMARK  status: ('A' for Active; 'I' for Inactive)
REMARK    1  A    between atoms: C_1  and  C_2
REMARK    2  A    between atoms: C_2  and  C_3
REMARK    3  A    between atoms: C_2  and  C_4
REMARK    4  A    between atoms: C_4  and  C_5
REMARK    5  A    between atoms: C_5  and  C_6
REMARK    6  A    between atoms: C_6  and  C_7
REMARK    7  A    between atoms: C_7  and  C_9
REMARK    8  A    between atoms: C_7  and  N_10
REMARK    9  A    between atoms: N_10  and  C_11
REMARK   10  A    between atoms: C_19  and  N_73
REMARK   11  A    between atoms: C_25  and  O_33
REMARK   12  A    between atoms: C_26  and  O_31
REMARK   13  A    between atoms: C_27  and  O_29
REMARK   14  A    between atoms: O_29  and  C_30
REMARK   15  A    between atoms: O_31  and  C_32
REMARK   16  A    between atoms: O_33  and  C_34
REMARK   17  A    between atoms: C_35  and  N_73
REMARK                            x       y       z     vdW  Elec       q    Type
REMARK                         _______ _______ _______ _____ _____    ______ ____
ROOT
ATOM      1  C   UNL     1      -1.020   1.981   0.213  0.00  0.00    +0.075 A 
ATOM      2  C   UNL     1       0.215   1.408   0.289  0.00  0.00    +0.027 A 
ATOM      3  C   UNL     1       1.417   2.007   0.358  0.00  0.00    +0.011 A 
ATOM      4  C   UNL     1       1.805   3.322   0.346  0.00  0.00    -0.012 A 
ATOM      5  C   UNL     1       0.964   4.428   0.222  0.00  0.00    -0.050 A 
ATOM      6  C   UNL     1      -0.380   4.380   0.177  0.00  0.00    +0.055 A 
ATOM      7  C   UNL     1      -1.274   3.350   0.197  0.00  0.00    +0.200 A 
ATOM      8  O   UNL     1      -2.455   3.671   0.196  0.00  0.00    -0.286 OA
ATOM      9  C   UNL     1       1.590   5.804   0.121  0.00  0.00    -0.040 C 
ATOM     10  C   UNL     1       2.009   6.331   1.478  0.00  0.00    -0.007 C 
ATOM     11  C   UNL     1       2.727   5.254   2.288  0.00  0.00    +0.035 C 
ATOM     12  C   UNL     1       3.716   4.534   1.409  0.00  0.00    -0.033 A 
ATOM     13  C   UNL     1       3.267   3.594   0.487  0.00  0.00    +0.031 A 
ATOM     14  C   UNL     1       4.179   2.900  -0.314  0.00  0.00    +0.173 A 
ATOM     15  C   UNL     1       5.537   3.162  -0.186  0.00  0.00    +0.204 A 
ATOM     16  C   UNL     1       5.977   4.109   0.732  0.00  0.00    +0.165 A 
ATOM     17  C   UNL     1       5.065   4.793   1.526  0.00  0.00    +0.054 A 
ENDROOT
BRANCH   9  19
ATOM     18  C   UNL     1       1.287   7.907  -1.040  0.00  0.00    -0.100 C 
ATOM     19  N   UNL     1       0.606   6.728  -0.473  0.00  0.00    +0.382 N 
ATOM     20  H   UNL     1      -0.052   7.034   0.253  0.00  0.00    -0.085 HD
ATOM     21  H   UNL     1       0.092   6.242  -1.218  0.00  0.00    -0.085 HD
ENDBRANCH   9  19
BRANCH   1  22
ATOM     22  N   UNL     1      -2.111   1.131   0.153  0.00  0.00    -0.338 N 
ATOM     23  H   UNL     1      -3.000   1.493   0.012  0.00  0.00    +0.146 HD
BRANCH  22  24
ATOM     24  C   UNL     1      -1.924  -0.314   0.302  0.00  0.00    +0.067 C 
ATOM     25  C   UNL     1      -1.547  -0.922  -1.050  0.00  0.00    +0.028 C 
BRANCH  24  26
ATOM     26  C   UNL     1      -3.223  -0.948   0.802  0.00  0.00    +0.022 C 
BRANCH  26  27
ATOM     27  C   UNL     1      -3.534  -0.433   2.208  0.00  0.00    +0.002 C 
BRANCH  27  28
ATOM     28  C   UNL     1      -4.834  -1.067   2.708  0.00  0.00    +0.003 C 
BRANCH  28  30
ATOM     29  C   UNL     1      -5.424   0.951   4.057  0.00  0.00    +0.007 C 
ATOM     30  C   UNL     1      -5.145  -0.552   4.115  0.00  0.00    -0.017 C 
ATOM     31  C   UNL     1      -6.375  -1.278   4.664  0.00  0.00    +0.007 C 
ENDBRANCH  28  30
ENDBRANCH  27  28
ENDBRANCH  26  27
ENDBRANCH  24  26
ENDBRANCH  22  24
ENDBRANCH   1  22
BRANCH  16  32
ATOM     32  O   UNL     1       7.306   4.368   0.852  0.00  0.00    -0.491 OA
ATOM     33  C   UNL     1       7.691   5.353   1.813  0.00  0.00    +0.277 C 
ENDBRANCH  16  32
BRANCH  15  34
ATOM     34  O   UNL     1       6.436   2.492  -0.957  0.00  0.00    -0.488 OA
ATOM     35  C   UNL     1       6.955   1.268  -0.433  0.00  0.00    +0.277 C 
ENDBRANCH  15  34
BRANCH  14  36
ATOM     36  O   UNL     1       3.740   1.976  -1.209  0.00  0.00    -0.491 OA
ATOM     37  C   UNL     1       3.440   2.441  -2.526  0.00  0.00    +0.277 C 
ENDBRANCH  14  36
TORSDOF 10
