REMARK  Name = ZINC32046731
REMARK  7 active torsions:
REMARK  status: ('A' for Active; 'I' for Inactive)
REMARK    1  A    between atoms: C_1  and  C_2
REMARK    2  A    between atoms: C_2  and  C_28
REMARK    3  A    between atoms: N_14  and  N_15
REMARK    4  A    between atoms: C_16  and  C_18
REMARK    5  A    between atoms: C_18  and  C_19
REMARK    6  A    between atoms: C_19  and  C_20
REMARK    7  A    between atoms: C_20  and  N_21
REMARK                            x       y       z     vdW  Elec       q    Type
REMARK                         _______ _______ _______ _____ _____    ______ ____
ROOT
ATOM      1  C   UNL     1      -0.487   8.985  10.101  0.00  0.00    +0.055 C 
ATOM      2  C   UNL     1      -0.033   8.737   8.662  0.00  0.00    +0.105 C 
ATOM      3  C   UNL     1       0.069  10.073   7.915  0.00  0.00    +0.052 C 
ATOM      4  C   UNL     1       0.634   9.800   6.518  0.00  0.00    +0.043 C 
ATOM      5  C   UNL     1      -0.112   8.654   5.883  0.00  0.00    -0.005 A 
ATOM      6  C   UNL     1      -0.022   8.487   4.514  0.00  0.00    +0.019 A 
ATOM      7  C   UNL     1      -0.694   7.434   3.895  0.00  0.00    +0.021 A 
ATOM      8  C   UNL     1      -1.462   6.545   4.666  0.00  0.00    +0.141 A 
ATOM      9  C   UNL     1      -1.548   6.724   6.032  0.00  0.00    +0.092 A 
ATOM     10  C   UNL     1      -0.874   7.778   6.644  0.00  0.00    +0.128 A 
ATOM     11  O   UNL     1      -0.991   7.918   7.990  0.00  0.00    -0.486 OA
ATOM     12  O   UNL     1      -2.112   5.521   4.054  0.00  0.00    -0.438 OA
ATOM     13  C   UNL     1      -1.569   5.066   2.890  0.00  0.00    +0.215 A 
ATOM     14  N   UNL     1      -1.519   3.786   2.625  0.00  0.00    -0.274 N 
ATOM     15  C   UNL     1      -1.033   6.059   1.941  0.00  0.00    +0.018 A 
ATOM     16  C   UNL     1      -0.609   7.235   2.436  0.00  0.00    -0.029 A 
ATOM     17  C   UNL     1      -0.063   8.338   1.575  0.00  0.00    +0.036 C 
ATOM     18  C   UNL     1       0.352   7.796   0.212  0.00  0.00    +0.005 C 
ATOM     19  C   UNL     1      -0.819   6.987  -0.358  0.00  0.00    +0.005 C 
ATOM     20  C   UNL     1      -0.983   5.719   0.480  0.00  0.00    +0.041 C 
ATOM     21  C   UNL     1       1.329   8.041   8.663  0.00  0.00    +0.055 C 
ATOM     22  H   UNL     1      -2.150   3.083   3.188  0.00  0.00    +0.188 HD
ENDROOT
BRANCH  14  23
ATOM     23  N   UNL     1      -0.662   3.311   1.623  0.00  0.00    -0.227 N 
ATOM     24  C   UNL     1      -0.703   2.013   1.262  0.00  0.00    +0.231 C 
ATOM     25  O   UNL     1      -1.482   1.256   1.804  0.00  0.00    -0.274 OA
ATOM     26  H   UNL     1       0.043   3.997   1.131  0.00  0.00    +0.175 HD
BRANCH  24  27
ATOM     27  C   UNL     1       0.218   1.501   0.184  0.00  0.00    +0.095 C 
BRANCH  27  28
ATOM     28  C   UNL     1      -0.029   0.007  -0.032  0.00  0.00    -0.010 C 
BRANCH  28  29
ATOM     29  C   UNL     1       0.906  -0.512  -1.126  0.00  0.00    -0.086 C 
BRANCH  29  30
ATOM     30  N   UNL     1       0.668  -1.947  -1.333  0.00  0.00    +0.378 N 
ATOM     31  H   UNL     1       1.341  -2.320  -2.119  0.00  0.00    -0.090 HD
ATOM     32  H   UNL     1      -0.377  -2.105  -1.638  0.00  0.00    -0.090 HD
ATOM     33  H   UNL     1       0.863  -2.490  -0.396  0.00  0.00    -0.090 HD
ENDBRANCH  29  30
ENDBRANCH  28  29
ENDBRANCH  27  28
ENDBRANCH  24  27
ENDBRANCH  14  23
TORSDOF 5
