REMARK  Name = ZINC02769671
REMARK  6 active torsions:
REMARK  status: ('A' for Active; 'I' for Inactive)
REMARK    1  A    between atoms: C_3  and  O_9
REMARK    2  A    between atoms: O_9  and  C_10
REMARK    3  A    between atoms: C_10  and  C_11
REMARK    4  A    between atoms: C_14  and  C_16
REMARK    5  A    between atoms: C_18  and  C_29
REMARK    6  A    between atoms: C_19  and  N_28
REMARK                            x       y       z     vdW  Elec       q    Type
REMARK                         _______ _______ _______ _____ _____    ______ ____
ROOT
ATOM      1  C   UNL     1      -2.533   1.387   0.021  0.00  0.00    +0.137 C 
ATOM      2  C   UNL     1      -3.234   1.903  -1.205  0.00  0.00    +0.101 C 
ATOM      3  C   UNL     1      -4.067   2.969  -1.120  0.00  0.00    +0.198 C 
ATOM      4  O   UNL     1      -4.286   3.595   0.047  0.00  0.00    -0.445 OA
ATOM      5  C   UNL     1      -4.049   2.953   1.206  0.00  0.00    +0.115 C 
ATOM      6  C   UNL     1      -3.226   1.893   1.263  0.00  0.00    +0.049 C 
ATOM      7  C   UNL     1      -2.985   1.222   2.477  0.00  0.00    +0.163 C 
ATOM      8  O   UNL     1      -2.222   0.276   2.494  0.00  0.00    -0.292 OA
ATOM      9  C   UNL     1      -3.656   1.653   3.752  0.00  0.00    +0.080 C 
ATOM     10  C   UNL     1      -4.997   2.311   3.409  0.00  0.00    +0.016 C 
ATOM     11  C   UNL     1      -4.733   3.467   2.452  0.00  0.00    +0.075 C 
ENDROOT
BRANCH   1  15
ATOM     12  C   UNL     1       0.640   3.193   0.012  0.00  0.00    +0.142 A 
ATOM     13  C   UNL     1       1.111   1.934   0.002  0.00  0.00    +0.048 A 
ATOM     14  C   UNL     1      -0.013   1.076   0.008  0.00  0.00    +0.046 A 
ATOM     15  C   UNL     1      -1.103   1.863   0.017  0.00  0.00    +0.118 A 
ATOM     16  O   UNL     1      -0.702   3.144   0.024  0.00  0.00    -0.460 OA
BRANCH  12  17
ATOM     17  C   UNL     1       1.476   4.447   0.011  0.00  0.00    +0.303 C 
BRANCH  17  18
ATOM     18  O   UNL     1       1.728   4.850  -1.336  0.00  0.00    -0.483 OA
BRANCH  18  21
ATOM     19  C   UNL     1       3.711   7.812  -0.601  0.00  0.00    +0.042 A 
ATOM     20  C   UNL     1       2.948   6.674  -0.417  0.00  0.00    +0.050 A 
ATOM     21  C   UNL     1       2.474   5.973  -1.516  0.00  0.00    +0.140 A 
ATOM     22  C   UNL     1       2.758   6.421  -2.799  0.00  0.00    +0.085 A 
ATOM     23  C   UNL     1       3.516   7.563  -2.978  0.00  0.00    +0.062 A 
ATOM     24  C   UNL     1       3.993   8.258  -1.880  0.00  0.00    +0.125 A 
ATOM     25  F   UNL     1       4.734   9.374  -2.057  0.00  0.00    -0.205 F 
ATOM     26 CL   UNL     1       2.160   5.550  -4.175  0.00  0.00    -0.080 Cl
ENDBRANCH  18  21
ENDBRANCH  17  18
ENDBRANCH  12  17
ENDBRANCH   1  15
BRANCH   3  27
ATOM     27  N   UNL     1      -4.700   3.418  -2.252  0.00  0.00    -0.328 N 
ATOM     28  H   UNL     1      -4.549   2.974  -3.101  0.00  0.00    +0.145 HD
ATOM     29  H   UNL     1      -5.298   4.181  -2.203  0.00  0.00    +0.145 HD
ENDBRANCH   3  27
BRANCH   2  30
ATOM     30  C   UNL     1      -3.021   1.265  -2.469  0.00  0.00    +0.101 C 
ATOM     31  N   UNL     1      -2.851   0.759  -3.472  0.00  0.00    -0.191 NA
ENDBRANCH   2  30
TORSDOF 6
