REMARK  Name = ZINC03670125
REMARK  8 active torsions:
REMARK  status: ('A' for Active; 'I' for Inactive)
REMARK    1  A    between atoms: C_1  and  C_2
REMARK    2  A    between atoms: C_2  and  C_3
REMARK    3  A    between atoms: C_2  and  C_4
REMARK    4  A    between atoms: C_4  and  C_5
REMARK    5  A    between atoms: C_5  and  N_6
REMARK    6  A    between atoms: C_7  and  C_9
REMARK    7  A    between atoms: C_9  and  O_27
REMARK    8  A    between atoms: N_19  and  C_20
REMARK                            x       y       z     vdW  Elec       q    Type
REMARK                         _______ _______ _______ _____ _____    ______ ____
ROOT
ATOM      1  C   UNL     1      -5.413  -0.930  -2.043  0.00  0.00    +0.247 C 
ATOM      2  C   UNL     1      -6.230  -0.106  -1.074  0.00  0.00    +0.033 A 
ATOM      3  C   UNL     1      -6.053   1.254  -0.966  0.00  0.00    +0.010 A 
ATOM      4  C   UNL     1      -6.820   1.976  -0.068  0.00  0.00    +0.001 A 
ATOM      5  C   UNL     1      -7.759   1.332   0.716  0.00  0.00    +0.002 A 
ATOM      6  C   UNL     1      -7.938  -0.034   0.610  0.00  0.00    +0.024 A 
ATOM      7  C   UNL     1      -7.172  -0.763  -0.290  0.00  0.00    +0.043 A 
ATOM      8  N   UNL     1      -7.338  -2.143  -0.413  0.00  0.00    -0.269 N 
ATOM      9  C   UNL     1      -6.625  -2.889  -1.266  0.00  0.00    +0.314 C 
ATOM     10  O   UNL     1      -6.837  -4.086  -1.306  0.00  0.00    -0.252 OA
ATOM     11  N   UNL     1      -5.683  -2.378  -2.079  0.00  0.00    -0.214 N 
ATOM     12  H   UNL     1      -8.001  -2.581   0.144  0.00  0.00    +0.156 HD
ENDROOT
BRANCH  11  13
ATOM     13  C   UNL     1      -4.969  -3.210  -2.948  0.00  0.00    +0.041 A 
ATOM     14  C   UNL     1      -3.854  -3.901  -2.492  0.00  0.00    +0.025 A 
ATOM     15  C   UNL     1      -3.152  -4.722  -3.352  0.00  0.00    +0.022 A 
ATOM     16  C   UNL     1      -3.558  -4.857  -4.668  0.00  0.00    +0.041 A 
ATOM     17  C   UNL     1      -4.669  -4.170  -5.125  0.00  0.00    +0.022 A 
ATOM     18  C   UNL     1      -5.378  -3.352  -4.268  0.00  0.00    +0.025 A 
ATOM     19 CL   UNL     1      -2.672  -5.889  -5.746  0.00  0.00    -0.084 Cl
ENDBRANCH  11  13
BRANCH   1  21
ATOM     20  N   UNL     1      -3.444  -1.296  -0.591  0.00  0.00    -0.311 N 
ATOM     21  C   UNL     1      -3.957  -0.737  -1.705  0.00  0.00    +0.269 C 
ATOM     22  O   UNL     1      -3.248  -0.078  -2.435  0.00  0.00    -0.270 OA
ATOM     23  H   UNL     1      -4.011  -1.824  -0.007  0.00  0.00    +0.149 HD
BRANCH  20  24
ATOM     24  C   UNL     1      -2.029  -1.108  -0.263  0.00  0.00    +0.104 C 
BRANCH  24  25
ATOM     25  C   UNL     1      -1.706  -1.841   1.041  0.00  0.00    +0.022 C 
BRANCH  25  27
ATOM     26  C   UNL     1       0.036  -0.166   1.675  0.00  0.00    +0.007 C 
ATOM     27  C   UNL     1      -0.228  -1.645   1.384  0.00  0.00    -0.016 C 
ATOM     28  C   UNL     1       0.124  -2.478   2.618  0.00  0.00    +0.007 C 
ENDBRANCH  25  27
ENDBRANCH  24  25
ENDBRANCH  20  24
ENDBRANCH   1  21
BRANCH   1  29
ATOM     29  O   UNL     1      -5.630  -0.409  -3.356  0.00  0.00    -0.360 OA
ATOM     30  H   UNL     1      -5.423   0.531  -3.445  0.00  0.00    +0.213 HD
ENDBRANCH   1  29
TORSDOF 6
