REMARK  Name = ZINC01810365
REMARK  7 active torsions:
REMARK  status: ('A' for Active; 'I' for Inactive)
REMARK    1  A    between atoms: C_7  and  C_11
REMARK    2  A    between atoms: C_11  and  C_12
REMARK    3  A    between atoms: C_12  and  N_13
REMARK    4  A    between atoms: C_14  and  C_16
REMARK    5  A    between atoms: C_16  and  N_23
REMARK    6  A    between atoms: C_17  and  C_18
REMARK    7  A    between atoms: C_24  and  C_26
REMARK                            x       y       z     vdW  Elec       q    Type
REMARK                         _______ _______ _______ _____ _____    ______ ____
ROOT
ATOM      1  N   UNL     1       7.251   2.545  -0.123  0.00  0.00    -0.310 N 
ATOM      2  C   UNL     1       5.952   2.899  -0.068  0.00  0.00    +0.258 C 
ATOM      3  O   UNL     1       5.644   4.074   0.010  0.00  0.00    -0.269 OA
ATOM      4  H   UNL     1       7.496   1.609  -0.185  0.00  0.00    +0.149 HD
ENDROOT
BRANCH   2   5
ATOM      5  C   UNL     1       4.910   1.870  -0.102  0.00  0.00    +0.100 C 
ATOM      6  C   UNL     1       5.253   0.557  -0.190  0.00  0.00    +0.074 C 
BRANCH   6   7
ATOM      7  C   UNL     1       4.247  -0.432  -0.315  0.00  0.00    +0.130 A 
ATOM      8  C   UNL     1       4.453  -1.780  -0.515  0.00  0.00    +0.049 A 
ATOM      9  C   UNL     1       3.182  -2.374  -0.578  0.00  0.00    +0.042 A 
ATOM     10  C   UNL     1       2.273  -1.389  -0.418  0.00  0.00    +0.195 A 
ATOM     11  O   UNL     1       2.915  -0.223  -0.255  0.00  0.00    -0.463 OA
ENDBRANCH   6   7
BRANCH   5  12
ATOM     12  N   UNL     1       3.560   2.237  -0.045  0.00  0.00    -0.277 N 
ATOM     13  C   UNL     1       3.098   2.943   1.006  0.00  0.00    +0.255 C 
ATOM     14  O   UNL     1       3.831   3.181   1.948  0.00  0.00    -0.269 OA
ATOM     15  H   UNL     1       2.958   1.985  -0.762  0.00  0.00    +0.155 HD
BRANCH  13  16
ATOM     16  C   UNL     1       1.713   3.423   1.014  0.00  0.00    +0.074 A 
ATOM     17  C   UNL     1       1.049   4.156   1.985  0.00  0.00    +0.021 A 
ATOM     18  C   UNL     1      -0.264   4.473   1.739  0.00  0.00    +0.008 A 
ATOM     19  C   UNL     1      -0.837   4.071   0.575  0.00  0.00    +0.046 A 
ATOM     20  S   UNL     1       0.444   3.217  -0.222  0.00  0.00    -0.092 S 
ENDBRANCH  13  16
ENDBRANCH   5  12
ENDBRANCH   2   5
BRANCH   1  21
ATOM     21  C   UNL     1       8.293   3.574  -0.089  0.00  0.00    +0.109 C 
BRANCH  21  22
ATOM     22  C   UNL     1       9.669   2.910  -0.165  0.00  0.00    +0.056 C 
BRANCH  22  29
ATOM     23  C   UNL     1      11.829   5.172   3.327  0.00  0.00    +0.001 A 
ATOM     24  C   UNL     1      12.773   6.085   2.877  0.00  0.00    +0.002 A 
ATOM     25  C   UNL     1      12.998   6.257   1.529  0.00  0.00    +0.026 A 
ATOM     26  C   UNL     1      12.274   5.508   0.607  0.00  0.00    +0.047 A 
ATOM     27  C   UNL     1      11.319   4.584   1.067  0.00  0.00    +0.003 A 
ATOM     28  C   UNL     1      11.106   4.427   2.438  0.00  0.00    +0.010 A 
ATOM     29  C   UNL     1      10.741   3.969  -0.130  0.00  0.00    -0.021 A 
ATOM     30  C   UNL     1      11.351   4.522  -1.189  0.00  0.00    +0.087 A 
ATOM     31  N   UNL     1      12.266   5.449  -0.769  0.00  0.00    -0.360 N 
ATOM     32  H   UNL     1      12.829   5.981  -1.353  0.00  0.00    +0.165 HD
ENDBRANCH  22  29
ENDBRANCH  21  22
ENDBRANCH   1  21
TORSDOF 7
