REMARK  Name = ZINC31057371
REMARK  8 active torsions:
REMARK  status: ('A' for Active; 'I' for Inactive)
REMARK    1  A    between atoms: C_4  and  S_28
REMARK    2  A    between atoms: C_5  and  N_7
REMARK    3  A    between atoms: C_8  and  C_10
REMARK    4  A    between atoms: N_15  and  C_17
REMARK    5  A    between atoms: C_17  and  C_18
REMARK    6  A    between atoms: C_20  and  C_23
REMARK    7  A    between atoms: S_28  and  C_29
REMARK    8  A    between atoms: C_29  and  C_30
REMARK                            x       y       z     vdW  Elec       q    Type
REMARK                         _______ _______ _______ _____ _____    ______ ____
ROOT
ATOM      1  N   UNL     1      -2.428   1.038   0.019  0.00  0.00    -0.284 N 
ATOM      2  C   UNL     1      -2.415  -0.306  -0.090  0.00  0.00    +0.219 C 
ATOM      3  O   UNL     1      -1.359  -0.903  -0.098  0.00  0.00    -0.275 OA
ATOM      4  H   UNL     1      -3.384   1.572   0.118  0.00  0.00    +0.155 HD
ENDROOT
BRANCH   2   5
ATOM      5  C   UNL     1      -3.711  -1.066  -0.202  0.00  0.00    +0.059 C 
ATOM      6  C   UNL     1      -4.468  -0.605  -1.450  0.00  0.00    +0.009 C 
ATOM      7  C   UNL     1      -5.755  -1.423  -1.589  0.00  0.00    -0.018 C 
ATOM      8  C   UNL     1      -5.402  -2.911  -1.660  0.00  0.00    -0.078 C 
ATOM      9  N   UNL     1      -4.680  -3.303  -0.443  0.00  0.00    +0.386 N 
ATOM     10  C   UNL     1      -3.418  -2.563  -0.313  0.00  0.00    -0.065 C 
ATOM     11  H   UNL     1      -5.311  -3.042   0.420  0.00  0.00    -0.081 HD
BRANCH   9  12
ATOM     12  C   UNL     1      -4.447  -4.753  -0.412  0.00  0.00    +0.022 C 
BRANCH  12  13
ATOM     13  C   UNL     1      -5.715  -5.473  -0.791  0.00  0.00    +0.211 A 
ATOM     14  N   UNL     1      -6.083  -5.815  -2.000  0.00  0.00    -0.192 NA
ATOM     15  C   UNL     1      -7.277  -6.436  -1.855  0.00  0.00    +0.209 A 
ATOM     16  N   UNL     1      -7.563  -6.427  -0.576  0.00  0.00    -0.056 NA
ATOM     17  O   UNL     1      -6.677  -5.878   0.044  0.00  0.00    -0.340 OA
BRANCH  15  18
ATOM     18  C   UNL     1      -8.104  -7.011  -2.935  0.00  0.00    +0.060 A 
ATOM     19  C   UNL     1      -9.316  -7.644  -2.850  0.00  0.00    +0.019 A 
ATOM     20  C   UNL     1      -9.906  -8.102  -4.006  0.00  0.00    +0.008 A 
ATOM     21  C   UNL     1      -9.271  -7.915  -5.193  0.00  0.00    +0.046 A 
ATOM     22  S   UNL     1      -7.789  -7.056  -4.692  0.00  0.00    -0.093 S 
ENDBRANCH  15  18
ENDBRANCH  12  13
ENDBRANCH   9  12
ENDBRANCH   2   5
BRANCH   1  27
ATOM     23  C   UNL     1       1.084   1.928  -0.625  0.00  0.00    +0.002 A 
ATOM     24  C   UNL     1       1.158   3.171  -0.025  0.00  0.00    +0.001 A 
ATOM     25  C   UNL     1       0.048   3.712   0.595  0.00  0.00    +0.016 A 
ATOM     26  C   UNL     1      -1.147   3.006   0.617  0.00  0.00    +0.029 A 
ATOM     27  C   UNL     1      -1.223   1.754   0.006  0.00  0.00    +0.047 A 
ATOM     28  C   UNL     1      -0.102   1.217  -0.609  0.00  0.00    +0.024 A 
BRANCH  26  29
ATOM     29  S   UNL     1      -2.565   3.692   1.407  0.00  0.00    -0.119 S 
BRANCH  29  30
ATOM     30  C   UNL     1      -1.988   5.295   2.029  0.00  0.00    +0.109 C 
BRANCH  30  31
ATOM     31  C   UNL     1      -3.119   5.996   2.736  0.00  0.00    -0.037 A 
ATOM     32  C   UNL     1      -3.958   6.838   2.031  0.00  0.00    +0.006 A 
ATOM     33  C   UNL     1      -4.999   7.477   2.678  0.00  0.00    +0.020 A 
ATOM     34  C   UNL     1      -5.195   7.282   4.034  0.00  0.00    +0.041 A 
ATOM     35  C   UNL     1      -4.351   6.443   4.740  0.00  0.00    +0.020 A 
ATOM     36  C   UNL     1      -3.314   5.801   4.091  0.00  0.00    +0.006 A 
ATOM     37 CL   UNL     1      -6.498   8.089   4.848  0.00  0.00    -0.084 Cl
ENDBRANCH  30  31
ENDBRANCH  29  30
ENDBRANCH  26  29
ENDBRANCH   1  27
TORSDOF 8
