REMARK  Name = ZINC39674516
REMARK  8 active torsions:
REMARK  status: ('A' for Active; 'I' for Inactive)
REMARK    1  A    between atoms: C_1  and  C_2
REMARK    2  A    between atoms: C_4  and  C_9
REMARK    3  A    between atoms: C_5  and  C_8
REMARK    4  A    between atoms: C_9  and  C_11
REMARK    5  A    between atoms: C_9  and  N_12
REMARK    6  A    between atoms: C_13  and  C_15
REMARK    7  A    between atoms: C_26  and  C_28
REMARK    8  A    between atoms: C_31  and  C_33
REMARK                            x       y       z     vdW  Elec       q    Type
REMARK                         _______ _______ _______ _____ _____    ______ ____
ROOT
ATOM      1  C   UNL     1      -2.957  -1.302  -4.401  0.00  0.00    +0.100 C 
ATOM      2  C   UNL     1      -2.449  -0.042  -5.138  0.00  0.00    +0.121 C 
ATOM      3  N   UNL     1      -3.004  -0.160  -6.507  0.00  0.00    -0.294 N 
ATOM      4  C   UNL     1      -4.371  -0.696  -6.306  0.00  0.00    +0.115 C 
ATOM      5  C   UNL     1      -4.219  -1.728  -5.170  0.00  0.00    -0.004 C 
ATOM      6  C   UNL     1      -4.037  -3.127  -5.750  0.00  0.00    -0.010 C 
ATOM      7  C   UNL     1      -5.326  -3.550  -6.462  0.00  0.00    -0.082 C 
ATOM      8  N   UNL     1      -6.441  -3.535  -5.508  0.00  0.00    +0.379 N 
ATOM      9  C   UNL     1      -6.668  -2.167  -5.025  0.00  0.00    -0.082 C 
ATOM     10  C   UNL     1      -5.437  -1.685  -4.253  0.00  0.00    -0.010 C 
ATOM     11  C   UNL     1      -2.401   0.151  -7.671  0.00  0.00    +0.282 C 
ATOM     12  O   UNL     1      -2.994  -0.003  -8.723  0.00  0.00    -0.267 OA
ATOM     13  H   UNL     1      -7.276  -3.872  -5.963  0.00  0.00    -0.086 HD
ATOM     14  H   UNL     1      -6.222  -4.134  -4.726  0.00  0.00    -0.086 HD
ENDROOT
BRANCH  11  15
ATOM     15  C   UNL     1      -1.032   0.673  -7.672  0.00  0.00    +0.190 A 
ATOM     16  C   UNL     1      -0.304   1.033  -8.784  0.00  0.00    +0.055 A 
ATOM     17  C   UNL     1       0.942   1.474  -8.326  0.00  0.00    +0.050 A 
ATOM     18  C   UNL     1       0.929   1.368  -6.965  0.00  0.00    +0.136 A 
ATOM     19  O   UNL     1      -0.267   0.890  -6.582  0.00  0.00    -0.450 OA
BRANCH  18  20
ATOM     20  C   UNL     1       2.043   1.725  -6.063  0.00  0.00    +0.017 A 
ATOM     21  C   UNL     1       3.237   2.225  -6.587  0.00  0.00    +0.011 A 
ATOM     22  C   UNL     1       4.273   2.558  -5.739  0.00  0.00    +0.001 A 
ATOM     23  C   UNL     1       4.131   2.396  -4.372  0.00  0.00    +0.000 A 
ATOM     24  C   UNL     1       2.951   1.901  -3.846  0.00  0.00    +0.001 A 
ATOM     25  C   UNL     1       1.905   1.570  -4.682  0.00  0.00    +0.011 A 
ENDBRANCH  18  20
ENDBRANCH  11  15
BRANCH   1  27
ATOM     26  N   UNL     1      -3.221  -1.924  -2.022  0.00  0.00    -0.309 N 
ATOM     27  C   UNL     1      -3.300  -0.972  -2.971  0.00  0.00    +0.219 C 
ATOM     28  O   UNL     1      -3.648   0.152  -2.676  0.00  0.00    -0.275 OA
ATOM     29  H   UNL     1      -2.943  -2.823  -2.258  0.00  0.00    +0.149 HD
BRANCH  26  30
ATOM     30  C   UNL     1      -3.555  -1.603  -0.632  0.00  0.00    +0.100 C 
ATOM     31  C   UNL     1      -2.327  -1.013   0.064  0.00  0.00    +0.033 C 
BRANCH  30  34
ATOM     32  C   UNL     1      -1.899  -3.985   0.903  0.00  0.00    +0.039 C 
ATOM     33  C   UNL     1      -3.239  -4.176   0.190  0.00  0.00    +0.154 C 
ATOM     34  C   UNL     1      -3.984  -2.857   0.084  0.00  0.00    -0.001 C 
ATOM     35  C   UNL     1      -5.108  -3.067   0.774  0.00  0.00    +0.063 C 
ATOM     36  N   UNL     1      -5.137  -4.322   1.274  0.00  0.00    -0.159 NA
ATOM     37  N   UNL     1      -4.145  -5.009   1.000  0.00  0.00    -0.180 NA
ATOM     38  C   UNL     1      -6.197  -2.043   0.968  0.00  0.00    +0.067 C 
ENDBRANCH  30  34
ENDBRANCH  26  30
ENDBRANCH   1  27
TORSDOF 5
