REMARK  Name = ZINC63104590
REMARK  5 active torsions:
REMARK  status: ('A' for Active; 'I' for Inactive)
REMARK    1  A    between atoms: C_1  and  C_2
REMARK    2  A    between atoms: C_7  and  C_9
REMARK    3  A    between atoms: C_7  and  N_11
REMARK    4  A    between atoms: C_9  and  O_10
REMARK    5  A    between atoms: C_17  and  N_21
REMARK                            x       y       z     vdW  Elec       q    Type
REMARK                         _______ _______ _______ _____ _____    ______ ____
ROOT
ATOM      1  N   UNL     1       0.224   1.450   2.497  0.00  0.00    -0.316 N 
ATOM      2  C   UNL     1       1.390   2.158   2.282  0.00  0.00    +0.160 A 
ATOM      3  N   UNL     1       2.599   1.702   2.050  0.00  0.00    -0.225 NA
ATOM      4  C   UNL     1       3.659   2.519   1.855  0.00  0.00    +0.080 A 
ATOM      5  C   UNL     1       5.002   2.159   1.599  0.00  0.00    +0.031 A 
ATOM      6  C   UNL     1       5.965   3.118   1.424  0.00  0.00    +0.025 A 
ATOM      7  C   UNL     1       5.660   4.475   1.493  0.00  0.00    +0.026 A 
ATOM      8  C   UNL     1       4.349   4.862   1.743  0.00  0.00    +0.040 A 
ATOM      9  C   UNL     1       3.383   3.904   1.918  0.00  0.00    +0.042 A 
ATOM     10  S   UNL     1       1.636   3.928   2.241  0.00  0.00    -0.052 S 
ATOM     11  H   UNL     1      -0.609   1.923   2.653  0.00  0.00    +0.149 HD
ENDROOT
BRANCH   1  17
ATOM     12  C   UNL     1      -0.383   1.520   0.073  0.00  0.00    +0.007 C 
ATOM     13  C   UNL     1      -0.363  -0.009   0.065  0.00  0.00    -0.012 C 
ATOM     14  C   UNL     1      -1.755  -0.540   0.412  0.00  0.00    +0.003 C 
ATOM     15  C   UNL     1      -2.158  -0.043   1.802  0.00  0.00    +0.002 C 
ATOM     16  C   UNL     1      -1.149  -0.545   2.836  0.00  0.00    +0.028 C 
ATOM     17  C   UNL     1       0.244  -0.015   2.489  0.00  0.00    +0.057 C 
ATOM     18  C   UNL     1       0.647  -0.511   1.099  0.00  0.00    +0.031 C 
BRANCH  17  19
ATOM     19  C   UNL     1       1.253  -0.516   3.523  0.00  0.00    +0.181 C 
BRANCH  19  20
ATOM     20  O   UNL     1       0.876  -0.052   4.821  0.00  0.00    -0.393 OA
ATOM     21  H   UNL     1       1.473  -0.334   5.528  0.00  0.00    +0.209 HD
ENDBRANCH  19  20
ENDBRANCH  17  19
ENDBRANCH   1  17
BRANCH   7  22
ATOM     22  N   UNL     1       6.660   5.437   1.312  0.00  0.00    -0.358 N 
ATOM     23  H   UNL     1       7.574   5.160   1.139  0.00  0.00    +0.142 HD
ATOM     24  H   UNL     1       6.441   6.380   1.362  0.00  0.00    +0.142 HD
ENDBRANCH   7  22
TORSDOF 4
