REMARK  Name = ZINC14157963
REMARK  12 active torsions:
REMARK  status: ('A' for Active; 'I' for Inactive)
REMARK    1  A    between atoms: C_1  and  C_2
REMARK    2  A    between atoms: C_5  and  N_9
REMARK    3  A    between atoms: C_6  and  C_8
REMARK    4  A    between atoms: N_9  and  C_10
REMARK    5  A    between atoms: C_10  and  N_12
REMARK    6  A    between atoms: C_17  and  C_22
REMARK    7  A    between atoms: C_19  and  C_21
REMARK    8  A    between atoms: N_23  and  C_24
REMARK    9  A    between atoms: C_26  and  C_31
REMARK   10  A    between atoms: C_26  and  C_32
REMARK   11  A    between atoms: C_27  and  C_29
REMARK   12  A    between atoms: C_27  and  C_30
REMARK                            x       y       z     vdW  Elec       q    Type
REMARK                         _______ _______ _______ _____ _____    ______ ____
ROOT
ATOM      1  N   UNL     1       0.225   4.986  -5.932  0.00  0.00    -0.159 NA
ATOM      2  C   UNL     1       1.061   5.307  -4.959  0.00  0.00    +0.196 C 
ATOM      3  N   UNL     1       1.363   6.621  -4.722  0.00  0.00    -0.297 N 
ATOM      4  C   UNL     1       1.442   7.517  -5.780  0.00  0.00    +0.231 A 
ATOM      5  N   UNL     1       1.165   7.096  -7.005  0.00  0.00    -0.217 NA
ATOM      6  C   UNL     1       1.226   7.925  -8.034  0.00  0.00    +0.044 A 
ATOM      7  C   UNL     1       1.595   9.244  -7.820  0.00  0.00    +0.046 A 
ATOM      8  C   UNL     1       1.883   9.649  -6.526  0.00  0.00    +0.044 A 
ATOM      9  N   UNL     1       1.797   8.770  -5.541  0.00  0.00    -0.217 NA
ATOM     10  C   UNL     1       2.287  11.073  -6.244  0.00  0.00    +0.066 C 
ATOM     11  C   UNL     1       0.903   7.440  -9.424  0.00  0.00    +0.066 C 
ATOM     12  N   UNL     1       1.623   4.329  -4.191  0.00  0.00    -0.355 N 
ATOM     13  H   UNL     1       1.521   6.926  -3.815  0.00  0.00    +0.171 HD
ATOM     14  H   UNL     1       1.353   3.404  -4.310  0.00  0.00    +0.163 HD
ENDROOT
BRANCH  12  15
ATOM     15  C   UNL     1       2.635   4.675  -3.186  0.00  0.00    +0.079 C 
ATOM     16  C   UNL     1       3.590   3.495  -3.005  0.00  0.00    +0.011 C 
ATOM     17  C   UNL     1       4.643   3.820  -1.949  0.00  0.00    -0.071 C 
ATOM     18  C   UNL     1       2.977   5.291  -0.778  0.00  0.00    -0.071 C 
ATOM     19  C   UNL     1       1.945   4.950  -1.850  0.00  0.00    +0.011 C 
ATOM     20  C   UNL     1       2.255   5.270   0.587  0.00  0.00    -0.010 C 
ATOM     21  C   UNL     1       3.490   6.720  -0.997  0.00  0.00    -0.010 C 
ATOM     22  C   UNL     1       5.678   4.787  -2.537  0.00  0.00    -0.010 C 
ATOM     23  C   UNL     1       5.383   2.507  -1.611  0.00  0.00    -0.010 C 
ATOM     24  N   UNL     1       4.100   4.322  -0.658  0.00  0.00    +0.386 N 
ATOM     25  H   UNL     1       4.864   4.783  -0.149  0.00  0.00    -0.084 HD
ATOM     26  H   UNL     1       3.767   3.515  -0.118  0.00  0.00    -0.084 HD
ENDBRANCH  12  15
BRANCH   1  27
ATOM     27  C   UNL     1      -0.776   5.816  -6.258  0.00  0.00    +0.161 C 
ATOM     28  S   UNL     1      -0.942   7.315  -5.447  0.00  0.00    -0.016 S 
BRANCH  27  29
ATOM     29  N   UNL     1      -1.651   5.472  -7.223  0.00  0.00    -0.295 N 
ATOM     30  H   UNL     1      -1.599   4.595  -7.634  0.00  0.00    +0.154 HD
BRANCH  29  35
ATOM     31  C   UNL     1      -5.638   9.149  -8.883  0.00  0.00    +0.044 C 
ATOM     32  C   UNL     1      -4.579   8.172  -8.441  0.00  0.00    -0.050 A 
ATOM     33  C   UNL     1      -3.303   8.253  -8.969  0.00  0.00    +0.005 A 
ATOM     34  C   UNL     1      -2.330   7.359  -8.567  0.00  0.00    +0.024 A 
ATOM     35  C   UNL     1      -2.634   6.378  -7.632  0.00  0.00    +0.036 A 
ATOM     36  C   UNL     1      -3.917   6.296  -7.108  0.00  0.00    -0.029 A 
ATOM     37  C   UNL     1      -4.884   7.197  -7.510  0.00  0.00    +0.008 A 
ATOM     38  C   UNL     1      -4.253   5.229  -6.098  0.00  0.00    +0.045 C 
ENDBRANCH  29  35
ENDBRANCH  27  29
ENDBRANCH   1  27
TORSDOF 4
