REMARK  Name = ZINC56206837
REMARK  10 active torsions:
REMARK  status: ('A' for Active; 'I' for Inactive)
REMARK    1  A    between atoms: C_1  and  C_2
REMARK    2  A    between atoms: C_4  and  O_25
REMARK    3  A    between atoms: C_7  and  N_8
REMARK    4  A    between atoms: N_8  and  C_9
REMARK    5  A    between atoms: C_9  and  C_11
REMARK    6  A    between atoms: C_9  and  C_12
REMARK    7  A    between atoms: C_18  and  C_24
REMARK    8  A    between atoms: C_19  and  C_23
REMARK    9  A    between atoms: O_25  and  C_26
REMARK   10  A    between atoms: C_26  and  C_27
REMARK                            x       y       z     vdW  Elec       q    Type
REMARK                         _______ _______ _______ _____ _____    ______ ____
ROOT
ATOM      1  N   UNL     1       0.025  -0.012   2.416  0.00  0.00    -0.334 N 
ATOM      2  H   UNL     1       0.012   0.958   2.422  0.00  0.00    +0.147 HD
ENDROOT
BRANCH   1   9
ATOM      3  C   UNL     1      -0.018   1.503   0.010  0.00  0.00    +0.046 C 
ATOM      4  C   UNL     1       0.002  -0.004   0.002  0.00  0.00    -0.026 A 
ATOM      5  C   UNL     1       0.006  -0.688  -1.198  0.00  0.00    +0.050 A 
ATOM      6  C   UNL     1       0.025  -2.075  -1.206  0.00  0.00    +0.122 A 
ATOM      7  C   UNL     1       0.040  -2.776  -0.009  0.00  0.00    +0.047 A 
ATOM      8  C   UNL     1       0.036  -2.094   1.192  0.00  0.00    +0.027 A 
ATOM      9  C   UNL     1       0.023  -0.705   1.200  0.00  0.00    +0.031 A 
BRANCH   6  10
ATOM     10  O   UNL     1       0.028  -2.748  -2.388  0.00  0.00    -0.483 OA
BRANCH  10  11
ATOM     11  C   UNL     1       0.047  -4.175  -2.321  0.00  0.00    +0.324 C 
BRANCH  11  12
ATOM     12  C   UNL     1       0.048  -4.743  -3.717  0.00  0.00    +0.248 C 
ATOM     13  O   UNL     1       0.033  -3.998  -4.675  0.00  0.00    -0.272 OA
ATOM     14  N   UNL     1       0.065  -6.078  -3.902  0.00  0.00    -0.327 N 
ATOM     15  H   UNL     1       0.077  -6.673  -3.136  0.00  0.00    +0.145 HD
ATOM     16  H   UNL     1       0.066  -6.443  -4.801  0.00  0.00    +0.145 HD
ENDBRANCH  11  12
ENDBRANCH  10  11
ENDBRANCH   6  10
ENDBRANCH   1   9
BRANCH   1  17
ATOM     17  C   UNL     1       0.047  -0.752   3.681  0.00  0.00    +0.133 C 
ATOM     18  C   UNL     1      -1.381  -1.138   4.071  0.00  0.00    +0.036 C 
BRANCH  17  19
ATOM     19  C   UNL     1       0.646   0.114   4.759  0.00  0.00    +0.131 A 
ATOM     20  N   UNL     1       0.676  -0.340   6.039  0.00  0.00    -0.309 N 
ATOM     21  H   UNL     1       0.310  -1.215   6.241  0.00  0.00    +0.170 HD
ATOM     22  C   UNL     1       1.202   0.401   7.032  0.00  0.00    +0.260 A 
ATOM     23  O   UNL     1       1.221  -0.021   8.175  0.00  0.00    -0.267 OA
ATOM     24  C   UNL     1       1.739   1.693   6.723  0.00  0.00    +0.075 A 
ATOM     25  C   UNL     1       2.353   2.669   7.605  0.00  0.00    -0.026 A 
ATOM     26  C   UNL     1       2.792   3.830   7.092  0.00  0.00    -0.008 A 
ATOM     27  S   UNL     1       2.403   3.689   5.358  0.00  0.00    -0.073 S 
ATOM     28  C   UNL     1       1.663   2.076   5.372  0.00  0.00    +0.116 A 
ATOM     29  N   UNL     1       1.132   1.284   4.445  0.00  0.00    -0.225 NA
ATOM     30  C   UNL     1       3.454   4.977   7.811  0.00  0.00    +0.052 C 
ATOM     31  C   UNL     1       2.496   2.383   9.077  0.00  0.00    +0.045 C 
ENDBRANCH  17  19
ENDBRANCH   1  17
TORSDOF 6
