REMARK  Name = ZINC21077789
REMARK  9 active torsions:
REMARK  status: ('A' for Active; 'I' for Inactive)
REMARK    1  A    between atoms: C_4  and  C_7
REMARK    2  A    between atoms: C_7  and  C_8
REMARK    3  A    between atoms: C_7  and  N_14
REMARK    4  A    between atoms: C_15  and  C_17
REMARK    5  A    between atoms: C_17  and  C_18
REMARK    6  A    between atoms: C_18  and  S_19
REMARK    7  A    between atoms: S_19  and  C_20
REMARK    8  A    between atoms: N_25  and  N_26
REMARK    9  A    between atoms: C_27  and  C_28
REMARK                            x       y       z     vdW  Elec       q    Type
REMARK                         _______ _______ _______ _____ _____    ______ ____
ROOT
ATOM      1  C   UNL     1       1.058  -2.248  -0.020  0.00  0.00    +0.086 C 
ENDROOT
BRANCH   1   2
ATOM      2  C   UNL     1       1.317  -0.740  -0.015  0.00  0.00    +0.107 C 
BRANCH   2   4
ATOM      3  N   UNL     1      -0.016   1.344   0.009  0.00  0.00    -0.304 N 
ATOM      4  C   UNL     1       0.002  -0.004   0.002  0.00  0.00    +0.215 C 
ATOM      5  O   UNL     1      -1.040  -0.625   0.009  0.00  0.00    -0.276 OA
ATOM      6  H   UNL     1       0.929   1.907   0.008  0.00  0.00    +0.150 HD
BRANCH   3   7
ATOM      7  C   UNL     1      -1.295   2.059   0.019  0.00  0.00    +0.134 C 
BRANCH   7  11
ATOM      8  C   UNL     1      -0.747   5.930   1.740  0.00  0.00    +0.000 A 
ATOM      9  C   UNL     1      -1.882   5.197   2.034  0.00  0.00    +0.000 A 
ATOM     10  C   UNL     1      -2.059   3.944   1.477  0.00  0.00    +0.006 A 
ATOM     11  C   UNL     1      -1.102   3.425   0.626  0.00  0.00    -0.023 A 
ATOM     12  C   UNL     1       0.035   4.155   0.337  0.00  0.00    +0.006 A 
ATOM     13  C   UNL     1       0.210   5.410   0.890  0.00  0.00    +0.000 A 
ENDBRANCH   7  11
BRANCH   7  14
ATOM     14  C   UNL     1      -1.800   2.204  -1.393  0.00  0.00    -0.023 A 
ATOM     15  C   UNL     1      -0.919   2.501  -2.415  0.00  0.00    +0.006 A 
ATOM     16  C   UNL     1      -1.382   2.629  -3.712  0.00  0.00    +0.000 A 
ATOM     17  C   UNL     1      -2.728   2.470  -3.984  0.00  0.00    +0.000 A 
ATOM     18  C   UNL     1      -3.610   2.178  -2.960  0.00  0.00    +0.000 A 
ATOM     19  C   UNL     1      -3.146   2.044  -1.665  0.00  0.00    +0.006 A 
ENDBRANCH   7  14
ENDBRANCH   3   7
ENDBRANCH   2   4
ENDBRANCH   1   2
BRANCH   1  20
ATOM     20  S   UNL     1       2.641  -3.133  -0.040  0.00  0.00    -0.084 S 
BRANCH  20  21
ATOM     21  C   UNL     1       2.179  -4.833  -0.045  0.00  0.00    +0.210 A 
ATOM     22  N   UNL     1       3.034  -5.898  -0.059  0.00  0.00    -0.186 NA
ATOM     23  C   UNL     1       2.285  -7.042  -0.058  0.00  0.00    +0.232 A 
ATOM     24  N   UNL     1       1.020  -6.698  -0.044  0.00  0.00    -0.245 N 
ATOM     25  N   UNL     1       0.952  -5.299  -0.030  0.00  0.00    -0.144 NA
ATOM     26  N   UNL     1       2.777  -8.339  -0.070  0.00  0.00    -0.205 N 
ATOM     27  H   UNL     1       3.863  -8.515  -0.081  0.00  0.00    +0.177 HD
ATOM     28  H   UNL     1       0.239  -7.473  -0.044  0.00  0.00    +0.192 HD
BRANCH  26  29
ATOM     29  N   UNL     1       1.892  -9.425  -0.067  0.00  0.00    -0.188 NA
ATOM     30  C   UNL     1       2.352 -10.639  -0.078  0.00  0.00    +0.139 C 
BRANCH  30  31
ATOM     31  C   UNL     1       1.420 -11.781  -0.075  0.00  0.00    +0.013 A 
ATOM     32  C   UNL     1       1.912 -13.088  -0.093  0.00  0.00    +0.011 A 
ATOM     33  C   UNL     1       1.035 -14.152  -0.086  0.00  0.00    +0.001 A 
ATOM     34  C   UNL     1      -0.331 -13.928  -0.071  0.00  0.00    +0.001 A 
ATOM     35  C   UNL     1      -0.826 -12.636  -0.059  0.00  0.00    +0.020 A 
ATOM     36  C   UNL     1       0.040 -11.561  -0.061  0.00  0.00    +0.050 A 
ATOM     37 CL   UNL     1      -0.584  -9.941  -0.045  0.00  0.00    -0.083 Cl
ENDBRANCH  30  31
ENDBRANCH  26  29
ENDBRANCH  20  21
ENDBRANCH   1  20
TORSDOF 9
