REMARK  Name = ZINC13726460
REMARK  14 active torsions:
REMARK  status: ('A' for Active; 'I' for Inactive)
REMARK    1  A    between atoms: C_1  and  C_2
REMARK    2  A    between atoms: C_2  and  C_4
REMARK    3  A    between atoms: C_2  and  N_66
REMARK    4  A    between atoms: C_4  and  C_5
REMARK    5  A    between atoms: C_5  and  C_6
REMARK    6  A    between atoms: C_12  and  C_13
REMARK    7  A    between atoms: C_12  and  N_66
REMARK    8  A    between atoms: C_16  and  O_19
REMARK    9  A    between atoms: O_19  and  C_20
REMARK   10  A    between atoms: C_20  and  C_21
REMARK   11  A    between atoms: C_21  and  C_23
REMARK   12  A    between atoms: C_21  and  O_35
REMARK   13  A    between atoms: N_29  and  C_34
REMARK   14  A    between atoms: N_32  and  C_33
REMARK                            x       y       z     vdW  Elec       q    Type
REMARK                         _______ _______ _______ _____ _____    ______ ____
ROOT
ATOM      1  C   UNL     1       1.396   1.986  -0.001  0.00  0.00    -0.064 A 
ATOM      2  C   UNL     1       2.053   2.224   1.193  0.00  0.00    +0.005 A 
ATOM      3  C   UNL     1       3.351   2.697   1.185  0.00  0.00    +0.046 A 
ATOM      4  C   UNL     1       3.991   2.944  -0.020  0.00  0.00    +0.121 A 
ATOM      5  C   UNL     1       3.328   2.710  -1.216  0.00  0.00    +0.046 A 
ATOM      6  C   UNL     1       2.032   2.232  -1.204  0.00  0.00    +0.005 A 
ENDROOT
BRANCH   1   7
ATOM      7  C   UNL     1      -0.018   1.465   0.010  0.00  0.00    -0.046 C 
BRANCH   7   8
ATOM      8  N   UNL     1       0.011  -0.010   0.002  0.00  0.00    +0.383 N 
ATOM      9  H   UNL     1       0.496  -0.335  -0.843  0.00  0.00    -0.085 HD
ATOM     10  H   UNL     1       0.512  -0.344   0.834  0.00  0.00    -0.085 HD
BRANCH   8  12
ATOM     11  C   UNL     1      -1.896  -0.614  -1.420  0.00  0.00    -0.014 C 
ATOM     12  C   UNL     1      -1.362  -0.549   0.012  0.00  0.00    -0.074 C 
BRANCH  12  13
ATOM     13  C   UNL     1      -1.345  -1.956   0.614  0.00  0.00    -0.011 C 
BRANCH  13  14
ATOM     14  C   UNL     1      -0.930  -1.876   2.085  0.00  0.00    +0.033 C 
BRANCH  14  15
ATOM     15  C   UNL     1      -0.913  -3.261   2.678  0.00  0.00    -0.047 A 
ATOM     16  C   UNL     1      -2.051  -3.773   3.272  0.00  0.00    +0.003 A 
ATOM     17  C   UNL     1      -2.037  -5.046   3.811  0.00  0.00    +0.000 A 
ATOM     18  C   UNL     1      -0.882  -5.803   3.765  0.00  0.00    +0.000 A 
ATOM     19  C   UNL     1       0.259  -5.289   3.176  0.00  0.00    +0.000 A 
ATOM     20  C   UNL     1       0.243  -4.019   2.632  0.00  0.00    +0.003 A 
ENDBRANCH  14  15
ENDBRANCH  13  14
ENDBRANCH  12  13
ENDBRANCH   8  12
ENDBRANCH   7   8
ENDBRANCH   1   7
BRANCH   4  21
ATOM     21  O   UNL     1       5.266   3.414  -0.030  0.00  0.00    -0.489 OA
BRANCH  21  22
ATOM     22  C   UNL     1       5.887   3.632   1.239  0.00  0.00    +0.265 C 
BRANCH  22  23
ATOM     23  C   UNL     1       7.309   4.157   1.028  0.00  0.00    +0.182 C 
BRANCH  23  24
ATOM     24  C   UNL     1       8.005   4.271   2.359  0.00  0.00    -0.014 A 
ATOM     25  C   UNL     1       7.763   5.364   3.173  0.00  0.00    +0.008 A 
ATOM     26  C   UNL     1       8.393   5.474   4.397  0.00  0.00    +0.028 A 
ATOM     27  C   UNL     1       9.280   4.491   4.808  0.00  0.00    +0.070 A 
ATOM     28  C   UNL     1       9.528   3.390   3.985  0.00  0.00    +0.070 A 
ATOM     29  C   UNL     1       8.887   3.286   2.760  0.00  0.00    +0.034 A 
ATOM     30  N   UNL     1      10.447   2.586   4.654  0.00  0.00    -0.295 N 
ATOM     31  C   UNL     1      10.744   3.170   5.830  0.00  0.00    +0.330 A 
ATOM     32  O   UNL     1      11.518   2.725   6.658  0.00  0.00    -0.246 OA
ATOM     33  N   UNL     1      10.056   4.320   5.952  0.00  0.00    -0.295 N 
ATOM     34  C   UNL     1      10.113   5.237   7.093  0.00  0.00    +0.154 C 
ATOM     35  C   UNL     1      10.996   1.320   4.162  0.00  0.00    +0.154 C 
ENDBRANCH  23  24
BRANCH  23  36
ATOM     36  O   UNL     1       7.253   5.444   0.408  0.00  0.00    -0.384 OA
ATOM     37  H   UNL     1       6.777   6.109   0.923  0.00  0.00    +0.210 HD
ENDBRANCH  23  36
ENDBRANCH  22  23
ENDBRANCH  21  22
ENDBRANCH   4  21
TORSDOF 11
