REMARK  Name = ZINC06578179
REMARK  9 active torsions:
REMARK  status: ('A' for Active; 'I' for Inactive)
REMARK    1  A    between atoms: C_1  and  C_2
REMARK    2  A    between atoms: C_2  and  C_3
REMARK    3  A    between atoms: C_3  and  C_4
REMARK    4  A    between atoms: C_4  and  C_32
REMARK    5  A    between atoms: C_9  and  C_12
REMARK    6  A    between atoms: C_16  and  O_19
REMARK    7  A    between atoms: C_17  and  O_18
REMARK    8  A    between atoms: O_19  and  C_20
REMARK    9  A    between atoms: N_23  and  C_26
REMARK                            x       y       z     vdW  Elec       q    Type
REMARK                         _______ _______ _______ _____ _____    ______ ____
ROOT
ATOM      1  C   UNL     1       0.586  -1.921   1.446  0.00  0.00    +0.048 C 
ATOM      2  C   UNL     1       1.601  -2.507   2.450  0.00  0.00    +0.086 C 
ATOM      3  C   UNL     1       2.321  -3.641   1.673  0.00  0.00    +0.077 C 
ATOM      4  C   UNL     1       1.663  -3.644   0.277  0.00  0.00    -0.023 C 
ATOM      5  N   UNL     1       1.141  -2.257   0.110  0.00  0.00    +0.396 N 
ATOM      6  C   UNL     1       3.744  -3.143   1.566  0.00  0.00    +0.229 C 
ATOM      7  O   UNL     1       4.654  -3.732   1.024  0.00  0.00    -0.275 OA
ATOM      8  N   UNL     1       3.842  -1.949   2.163  0.00  0.00    -0.210 N 
ATOM      9  C   UNL     1       2.691  -1.491   2.706  0.00  0.00    +0.229 C 
ATOM     10  O   UNL     1       2.547  -0.443   3.298  0.00  0.00    -0.275 OA
ATOM     11  H   UNL     1       0.414  -2.240  -0.589  0.00  0.00    -0.083 HD
ATOM     12  H   UNL     1       1.883  -1.618  -0.135  0.00  0.00    -0.083 HD
ENDROOT
BRANCH   4  13
ATOM     13  C   UNL     1       2.689  -3.938  -0.786  0.00  0.00    -0.015 A 
ATOM     14  C   UNL     1       3.316  -2.898  -1.448  0.00  0.00    +0.006 A 
ATOM     15  C   UNL     1       4.257  -3.163  -2.424  0.00  0.00    +0.004 A 
ATOM     16  C   UNL     1       4.577  -4.470  -2.744  0.00  0.00    +0.049 A 
ATOM     17  C   UNL     1       3.953  -5.517  -2.085  0.00  0.00    +0.161 A 
ATOM     18  C   UNL     1       3.009  -5.249  -1.097  0.00  0.00    +0.160 A 
BRANCH  18  19
ATOM     19  O   UNL     1       2.397  -6.273  -0.444  0.00  0.00    -0.503 OA
ATOM     20  H   UNL     1       1.583  -6.580  -0.866  0.00  0.00    +0.292 HD
ENDBRANCH  18  19
BRANCH  17  21
ATOM     21  O   UNL     1       4.266  -6.803  -2.398  0.00  0.00    -0.491 OA
ATOM     22  C   UNL     1       5.247  -7.002  -3.417  0.00  0.00    +0.277 C 
ENDBRANCH  17  21
ENDBRANCH   4  13
BRANCH   8  23
ATOM     23  C   UNL     1       5.045  -1.231   2.229  0.00  0.00    +0.044 A 
ATOM     24  C   UNL     1       5.176  -0.030   1.544  0.00  0.00    +0.024 A 
ATOM     25  C   UNL     1       6.362   0.675   1.611  0.00  0.00    +0.002 A 
ATOM     26  C   UNL     1       7.417   0.187   2.358  0.00  0.00    +0.000 A 
ATOM     27  C   UNL     1       7.289  -1.008   3.042  0.00  0.00    +0.002 A 
ATOM     28  C   UNL     1       6.104  -1.716   2.984  0.00  0.00    +0.024 A 
ENDBRANCH   8  23
BRANCH   1  29
ATOM     29  C   UNL     1      -0.766  -2.561   1.628  0.00  0.00    +0.346 C 
ATOM     30  O   UNL     1      -1.268  -3.195   0.716  0.00  0.00    -0.248 OA
ATOM     31  O   UNL     1      -1.358  -2.444   2.688  0.00  0.00    -0.248 OA
ENDBRANCH   1  29
BRANCH   1  32
ATOM     32  C   UNL     1       0.484  -0.404   1.615  0.00  0.00    -0.001 C 
BRANCH  32  34
ATOM     33  C   UNL     1      -0.566   1.682   0.727  0.00  0.00    +0.004 C 
ATOM     34  C   UNL     1      -0.464   0.165   0.557  0.00  0.00    -0.004 C 
ENDBRANCH  32  34
ENDBRANCH   1  32
TORSDOF 7
