REMARK  Name = ZINC38732669
REMARK  7 active torsions:
REMARK  status: ('A' for Active; 'I' for Inactive)
REMARK    1  A    between atoms: C_4  and  C_7
REMARK    2  A    between atoms: C_7  and  C_8
REMARK    3  A    between atoms: C_7  and  C_35
REMARK    4  A    between atoms: C_8  and  C_9
REMARK    5  A    between atoms: C_9  and  N_10
REMARK    6  A    between atoms: C_11  and  C_13
REMARK    7  A    between atoms: C_19  and  C_21
REMARK                            x       y       z     vdW  Elec       q    Type
REMARK                         _______ _______ _______ _____ _____    ______ ____
ROOT
ATOM      1  C   UNL     1       4.241  -1.533   6.593  0.00  0.00    +0.087 C 
ATOM      2  C   UNL     1       2.974  -2.345   6.871  0.00  0.00    +0.013 C 
ATOM      3  C   UNL     1       1.745  -1.454   6.683  0.00  0.00    +0.001 C 
ATOM      4  C   UNL     1       1.818  -0.273   7.653  0.00  0.00    +0.001 C 
ATOM      5  C   UNL     1       3.084   0.539   7.374  0.00  0.00    +0.013 C 
ATOM      6  C   UNL     1       4.313  -0.352   7.563  0.00  0.00    +0.087 C 
ENDROOT
BRANCH   6   7
ATOM      7  C   UNL     1       5.561   0.447   7.288  0.00  0.00    +0.219 C 
ATOM      8  O   UNL     1       5.485   1.507   6.703  0.00  0.00    -0.275 OA
ATOM      9  N   UNL     1       6.760  -0.015   7.694  0.00  0.00    -0.298 N 
ATOM     10  C   UNL     1       6.857  -1.243   8.494  0.00  0.00    +0.126 C 
ATOM     11  C   UNL     1       7.803  -2.219   7.783  0.00  0.00    +0.125 C 
ATOM     12  N   UNL     1       9.038  -1.503   7.432  0.00  0.00    -0.314 N 
ATOM     13  C   UNL     1       8.941  -0.274   6.631  0.00  0.00    +0.125 C 
ATOM     14  C   UNL     1       7.995   0.698   7.338  0.00  0.00    +0.126 C 
ATOM     15  C   UNL     1      10.275  -1.980   7.850  0.00  0.00    +0.099 A 
ATOM     16  C   UNL     1      10.357  -3.208   8.498  0.00  0.00    +0.042 A 
ATOM     17  C   UNL     1      11.595  -3.670   8.909  0.00  0.00    +0.005 A 
ATOM     18  C   UNL     1      12.712  -2.885   8.656  0.00  0.00    +0.018 A 
ATOM     19  C   UNL     1      12.557  -1.677   8.007  0.00  0.00    +0.084 A 
ATOM     20  N   UNL     1      11.365  -1.263   7.622  0.00  0.00    -0.350 N 
ATOM     21  H   UNL     1      11.284  -0.412   7.165  0.00  0.00    +0.166 HD
ENDBRANCH   6   7
BRANCH   1  23
ATOM     22  N   UNL     1       4.141  -1.885   4.146  0.00  0.00    -0.315 N 
ATOM     23  C   UNL     1       4.206  -1.018   5.177  0.00  0.00    +0.217 C 
ATOM     24  O   UNL     1       4.236   0.175   4.965  0.00  0.00    -0.275 OA
ATOM     25  H   UNL     1       4.117  -2.839   4.316  0.00  0.00    +0.149 HD
BRANCH  22  26
ATOM     26  C   UNL     1       4.107  -1.384   2.770  0.00  0.00    +0.105 C 
BRANCH  26  27
ATOM     27  C   UNL     1       4.035  -2.565   1.799  0.00  0.00    +0.031 C 
BRANCH  27  28
ATOM     28  C   UNL     1       4.000  -2.042   0.362  0.00  0.00    +0.050 C 
BRANCH  28  32
ATOM     29  C   UNL     1       0.393   0.158  -0.267  0.00  0.00    +0.000 A 
ATOM     30  C   UNL     1       1.600   0.671  -0.702  0.00  0.00    +0.000 A 
ATOM     31  C   UNL     1       2.767  -0.041  -0.498  0.00  0.00    +0.004 A 
ATOM     32  C   UNL     1       2.727  -1.266   0.141  0.00  0.00    -0.040 A 
ATOM     33  C   UNL     1       1.520  -1.779   0.577  0.00  0.00    +0.004 A 
ATOM     34  C   UNL     1       0.352  -1.068   0.372  0.00  0.00    +0.000 A 
ENDBRANCH  28  32
BRANCH  28  35
ATOM     35  C   UNL     1       4.052  -3.204  -0.596  0.00  0.00    -0.040 A 
ATOM     36  C   UNL     1       3.032  -4.137  -0.609  0.00  0.00    +0.004 A 
ATOM     37  C   UNL     1       3.080  -5.202  -1.488  0.00  0.00    +0.000 A 
ATOM     38  C   UNL     1       4.148  -5.336  -2.355  0.00  0.00    +0.000 A 
ATOM     39  C   UNL     1       5.168  -4.403  -2.343  0.00  0.00    +0.000 A 
ATOM     40  C   UNL     1       5.118  -3.334  -1.467  0.00  0.00    +0.004 A 
ENDBRANCH  28  35
ENDBRANCH  27  28
ENDBRANCH  26  27
ENDBRANCH  22  26
ENDBRANCH   1  23
TORSDOF 7
