REMARK  Name = ZINC04299561
REMARK  8 active torsions:
REMARK  status: ('A' for Active; 'I' for Inactive)
REMARK    1  A    between atoms: N_9  and  C_10
REMARK    2  A    between atoms: C_10  and  C_11
REMARK    3  A    between atoms: C_11  and  C_13
REMARK    4  A    between atoms: C_11  and  O_28
REMARK    5  A    between atoms: C_13  and  N_58
REMARK    6  A    between atoms: C_16  and  N_60
REMARK    7  A    between atoms: C_19  and  N_60
REMARK    8  A    between atoms: C_25  and  O_27
REMARK                            x       y       z     vdW  Elec       q    Type
REMARK                         _______ _______ _______ _____ _____    ______ ____
ROOT
ATOM      1  C   UNL     1      -1.821  -4.289  -2.930  0.00  0.00    -0.080 C 
ATOM      2  C   UNL     1      -0.442  -3.818  -2.465  0.00  0.00    -0.034 C 
ATOM      3  C   UNL     1      -0.552  -2.391  -1.921  0.00  0.00    -0.075 C 
ATOM      4  C   UNL     1      -1.572  -2.365  -0.780  0.00  0.00    -0.034 C 
ATOM      5  C   UNL     1      -2.919  -2.878  -1.294  0.00  0.00    -0.080 C 
ATOM      6  N   UNL     1      -2.750  -4.264  -1.780  0.00  0.00    +0.381 N 
ATOM      7  H   UNL     1      -2.359  -4.837  -1.024  0.00  0.00    -0.082 HD
ENDROOT
BRANCH   3   8
ATOM      8  N   UNL     1       0.761  -1.955  -1.409  0.00  0.00    +0.384 N 
ATOM      9  H   UNL     1       1.251  -2.762  -1.005  0.00  0.00    -0.085 HD
ATOM     10  H   UNL     1       0.622  -1.241  -0.685  0.00  0.00    -0.085 HD
BRANCH   8  11
ATOM     11  C   UNL     1       1.575  -1.388  -2.501  0.00  0.00    -0.042 C 
ATOM     12  C   UNL     1       1.214   0.086  -2.695  0.00  0.00    -0.013 C 
ATOM     13  C   UNL     1       2.064   0.675  -3.822  0.00  0.00    -0.001 C 
ATOM     14  C   UNL     1       3.546   0.556  -3.458  0.00  0.00    +0.002 C 
ATOM     15  C   UNL     1       3.907  -0.918  -3.264  0.00  0.00    +0.030 C 
ATOM     16  C   UNL     1       3.056  -1.507  -2.138  0.00  0.00    +0.101 C 
BRANCH  16  17
ATOM     17  O   UNL     1       3.393  -2.884  -1.957  0.00  0.00    -0.393 OA
ATOM     18  H   UNL     1       4.319  -3.035  -1.724  0.00  0.00    +0.210 HD
ENDBRANCH  16  17
ENDBRANCH   8  11
ENDBRANCH   3   8
BRANCH   6  19
ATOM     19  C   UNL     1      -4.059  -4.823  -2.177  0.00  0.00    -0.045 C 
BRANCH  19  20
ATOM     20  C   UNL     1      -3.946  -6.348  -2.225  0.00  0.00    +0.118 C 
BRANCH  20  21
ATOM     21  O   UNL     1      -3.603  -6.841  -0.929  0.00  0.00    -0.392 OA
ATOM     22  H   UNL     1      -4.248  -6.624  -0.242  0.00  0.00    +0.210 HD
ENDBRANCH  20  21
BRANCH  20  23
ATOM     23  C   UNL     1      -5.286  -6.945  -2.660  0.00  0.00    +0.151 C 
BRANCH  23  32
ATOM     24  C   UNL     1      -5.367 -11.606  -0.237  0.00  0.00    +0.001 A 
ATOM     25  C   UNL     1      -5.566 -10.355   0.331  0.00  0.00    +0.002 A 
ATOM     26  C   UNL     1      -5.513  -9.216  -0.443  0.00  0.00    +0.026 A 
ATOM     27  C   UNL     1      -5.252  -9.318  -1.805  0.00  0.00    +0.049 A 
ATOM     28  C   UNL     1      -5.057 -10.588  -2.377  0.00  0.00    -0.000 A 
ATOM     29  C   UNL     1      -5.115 -11.729  -1.574  0.00  0.00    +0.010 A 
ATOM     30  C   UNL     1      -4.816 -10.357  -3.803  0.00  0.00    +0.027 A 
ATOM     31  C   UNL     1      -4.882  -9.031  -4.003  0.00  0.00    +0.087 A 
ATOM     32  N   UNL     1      -5.145  -8.394  -2.821  0.00  0.00    -0.344 N 
ENDBRANCH  23  32
ENDBRANCH  20  23
ENDBRANCH  19  20
ENDBRANCH   6  19
TORSDOF 8
