REMARK  Name = ZINC64352931
REMARK  9 active torsions:
REMARK  status: ('A' for Active; 'I' for Inactive)
REMARK    1  A    between atoms: C_4  and  O_31
REMARK    2  A    between atoms: C_5  and  C_7
REMARK    3  A    between atoms: C_7  and  N_8
REMARK    4  A    between atoms: C_9  and  C_11
REMARK    5  A    between atoms: C_11  and  C_13
REMARK    6  A    between atoms: C_11  and  N_23
REMARK    7  A    between atoms: C_13  and  C_14
REMARK    8  A    between atoms: C_24  and  C_26
REMARK    9  A    between atoms: O_31  and  C_32
REMARK                            x       y       z     vdW  Elec       q    Type
REMARK                         _______ _______ _______ _____ _____    ______ ____
ROOT
ATOM      1  C   UNL     1       1.817  -4.512   2.961  0.00  0.00    +0.163 C 
ENDROOT
BRANCH   1   3
ATOM      2  N   UNL     1       1.487  -2.679   1.333  0.00  0.00    -0.310 N 
ATOM      3  C   UNL     1       1.549  -4.005   1.568  0.00  0.00    +0.234 C 
ATOM      4  O   UNL     1       1.391  -4.790   0.657  0.00  0.00    -0.274 OA
ATOM      5  H   UNL     1       1.614  -2.051   2.062  0.00  0.00    +0.149 HD
BRANCH   2   6
ATOM      6  C   UNL     1       1.227  -2.187  -0.022  0.00  0.00    +0.143 C 
BRANCH   6  11
ATOM      7  C   UNL     1      -0.017   1.378   0.010  0.00  0.00    +0.001 A 
ATOM      8  C   UNL     1       1.170   2.088   0.002  0.00  0.00    +0.004 A 
ATOM      9  C   UNL     1       2.377   1.417  -0.013  0.00  0.00    +0.046 A 
ATOM     10  C   UNL     1       2.399   0.030  -0.021  0.00  0.00    +0.135 A 
ATOM     11  C   UNL     1       1.207  -0.680  -0.013  0.00  0.00    +0.012 A 
ATOM     12  C   UNL     1       0.002  -0.004   0.002  0.00  0.00    +0.009 A 
BRANCH  10  13
ATOM     13  O   UNL     1       3.586  -0.632  -0.037  0.00  0.00    -0.405 OA
BRANCH  13  14
ATOM     14  C   UNL     1       4.772   0.164  -0.045  0.00  0.00    +0.575 C 
ATOM     15  F   UNL     1       4.804   0.965   1.101  0.00  0.00    -0.133 F 
ATOM     16  F   UNL     1       5.894  -0.672  -0.061  0.00  0.00    -0.133 F 
ATOM     17  F   UNL     1       4.781   0.977  -1.183  0.00  0.00    -0.133 F 
ENDBRANCH  13  14
ENDBRANCH  10  13
ENDBRANCH   6  11
ENDBRANCH   2   6
ENDBRANCH   1   3
BRANCH   1  18
ATOM     18  N   UNL     1       2.304  -5.892   2.894  0.00  0.00    -0.299 N 
ATOM     19  C   UNL     1       1.537  -6.851   2.340  0.00  0.00    +0.251 C 
ATOM     20  O   UNL     1       0.439  -6.572   1.896  0.00  0.00    -0.270 OA
ATOM     21  H   UNL     1       3.179  -6.115   3.248  0.00  0.00    +0.150 HD
BRANCH  19  22
ATOM     22  C   UNL     1       2.025  -8.232   2.273  0.00  0.00    +0.074 A 
ATOM     23  C   UNL     1       1.403  -9.354   1.745  0.00  0.00    +0.021 A 
ATOM     24  C   UNL     1       2.117 -10.525   1.827  0.00  0.00    +0.008 A 
ATOM     25  C   UNL     1       3.345 -10.510   2.401  0.00  0.00    +0.046 A 
ATOM     26  S   UNL     1       3.575  -8.905   2.840  0.00  0.00    -0.092 S 
ENDBRANCH  19  22
ENDBRANCH   1  18
BRANCH   1  27
ATOM     27  C   UNL     1       0.523  -4.468   3.777  0.00  0.00    +0.065 C 
BRANCH  27  28
ATOM     28  C   UNL     1       0.815  -4.857   5.203  0.00  0.00    -0.039 C 
ATOM     29  C   UNL     1       1.065  -4.024   6.239  0.00  0.00    -0.001 A 
ATOM     30  C   UNL     1       1.139  -2.562   6.344  0.00  0.00    +0.010 A 
ATOM     31  C   UNL     1       1.415  -2.003   7.544  0.00  0.00    +0.001 A 
ATOM     32  C   UNL     1       1.633  -2.784   8.688  0.00  0.00    +0.002 A 
ATOM     33  C   UNL     1       1.583  -4.133   8.670  0.00  0.00    +0.026 A 
ATOM     34  C   UNL     1       1.299  -4.826   7.461  0.00  0.00    +0.043 A 
ATOM     35  N   UNL     1       1.197  -6.105   7.192  0.00  0.00    -0.380 N 
ATOM     36  C   UNL     1       0.881  -6.259   5.767  0.00  0.00    +0.144 C 
ATOM     37  H   UNL     1       1.308  -6.828   7.829  0.00  0.00    +0.160 HD
ENDBRANCH  27  28
ENDBRANCH   1  27
TORSDOF 9
