REMARK  Name = ZINC63920256
REMARK  8 active torsions:
REMARK  status: ('A' for Active; 'I' for Inactive)
REMARK    1  A    between atoms: C_1  and  N_2
REMARK    2  A    between atoms: C_3  and  C_5
REMARK    3  A    between atoms: C_8  and  N_11
REMARK    4  A    between atoms: C_12  and  C_14
REMARK    5  A    between atoms: C_14  and  C_16
REMARK    6  A    between atoms: C_14  and  N_26
REMARK    7  A    between atoms: C_16  and  C_17
REMARK    8  A    between atoms: C_27  and  C_29
REMARK                            x       y       z     vdW  Elec       q    Type
REMARK                         _______ _______ _______ _____ _____    ______ ____
ROOT
ATOM      1  C   UNL     1       1.478  -8.487   1.850  0.00  0.00    +0.163 C 
ENDROOT
BRANCH   1   3
ATOM      2  N   UNL     1       0.681  -6.316   0.973  0.00  0.00    -0.284 N 
ATOM      3  C   UNL     1       1.364  -6.986   1.922  0.00  0.00    +0.238 C 
ATOM      4  O   UNL     1       1.887  -6.381   2.834  0.00  0.00    -0.273 OA
ATOM      5  H   UNL     1       0.207  -6.804   0.281  0.00  0.00    +0.155 HD
BRANCH   2   9
ATOM      6  C   UNL     1       0.603  -2.152   1.010  0.00  0.00    +0.037 A 
ATOM      7  C   UNL     1       0.618  -2.841  -0.206  0.00  0.00    +0.015 A 
ATOM      8  C   UNL     1       0.644  -4.217  -0.215  0.00  0.00    +0.024 A 
ATOM      9  C   UNL     1       0.655  -4.922   0.985  0.00  0.00    +0.033 A 
ATOM     10  C   UNL     1       0.641  -4.239   2.197  0.00  0.00    +0.024 A 
ATOM     11  C   UNL     1       0.620  -2.862   2.213  0.00  0.00    +0.015 A 
BRANCH   6  14
ATOM     12  C   UNL     1       0.531   1.473  -0.125  0.00  0.00    +0.128 C 
ATOM     13  N   UNL     1       0.559   0.008  -0.138  0.00  0.00    -0.314 N 
ATOM     14  C   UNL     1       0.575  -0.676   1.023  0.00  0.00    +0.244 C 
ATOM     15  O   UNL     1       0.568  -0.077   2.081  0.00  0.00    -0.270 OA
ATOM     16  H   UNL     1       0.565  -0.469  -0.983  0.00  0.00    +0.149 HD
ENDBRANCH   6  14
ENDBRANCH   2   9
ENDBRANCH   1   3
BRANCH   1  17
ATOM     17  N   UNL     1       1.823  -9.014   3.173  0.00  0.00    -0.299 N 
ATOM     18  C   UNL     1       2.965  -8.629   3.775  0.00  0.00    +0.251 C 
ATOM     19  O   UNL     1       3.711  -7.844   3.221  0.00  0.00    -0.270 OA
ATOM     20  H   UNL     1       1.228  -9.641   3.615  0.00  0.00    +0.150 HD
BRANCH  18  21
ATOM     21  C   UNL     1       3.309  -9.157   5.099  0.00  0.00    +0.074 A 
ATOM     22  C   UNL     1       4.419  -8.888   5.885  0.00  0.00    +0.021 A 
ATOM     23  C   UNL     1       4.467  -9.541   7.093  0.00  0.00    +0.008 A 
ATOM     24  C   UNL     1       3.457 -10.381   7.429  0.00  0.00    +0.046 A 
ATOM     25  S   UNL     1       2.406 -10.305   6.121  0.00  0.00    -0.092 S 
ENDBRANCH  18  21
ENDBRANCH   1  17
BRANCH   1  26
ATOM     26  C   UNL     1       2.571  -8.868   0.849  0.00  0.00    +0.065 C 
BRANCH  26  27
ATOM     27  C   UNL     1       2.602 -10.366   0.685  0.00  0.00    -0.039 C 
ATOM     28  C   UNL     1       1.982 -11.092  -0.273  0.00  0.00    -0.001 A 
ATOM     29  C   UNL     1       1.125 -10.720  -1.405  0.00  0.00    +0.010 A 
ATOM     30  C   UNL     1       0.640 -11.694  -2.208  0.00  0.00    +0.001 A 
ATOM     31  C   UNL     1       0.935 -13.046  -1.988  0.00  0.00    +0.002 A 
ATOM     32  C   UNL     1       1.714 -13.466  -0.969  0.00  0.00    +0.026 A 
ATOM     33  C   UNL     1       2.278 -12.527  -0.061  0.00  0.00    +0.043 A 
ATOM     34  N   UNL     1       3.051 -12.682   0.986  0.00  0.00    -0.380 N 
ATOM     35  C   UNL     1       3.338 -11.361   1.555  0.00  0.00    +0.144 C 
ATOM     36  H   UNL     1       3.382 -13.528   1.326  0.00  0.00    +0.160 HD
ENDBRANCH  26  27
ENDBRANCH   1  26
TORSDOF 7
