REMARK  Name = ZINC34699372
REMARK  13 active torsions:
REMARK  status: ('A' for Active; 'I' for Inactive)
REMARK    1  A    between atoms: C_1  and  C_2
REMARK    2  A    between atoms: N_4  and  C_5
REMARK    3  A    between atoms: N_4  and  C_13
REMARK    4  A    between atoms: C_5  and  C_6
REMARK    5  A    between atoms: C_13  and  C_14
REMARK    6  A    between atoms: N_17  and  C_29
REMARK    7  A    between atoms: C_19  and  C_21
REMARK    8  A    between atoms: C_24  and  O_27
REMARK    9  A    between atoms: O_27  and  C_28
REMARK   10  A    between atoms: C_29  and  C_30
REMARK   11  A    between atoms: C_33  and  O_37
REMARK   12  A    between atoms: C_35  and  O_36
REMARK   13  A    between atoms: O_37  and  C_38
REMARK                            x       y       z     vdW  Elec       q    Type
REMARK                         _______ _______ _______ _____ _____    ______ ____
ROOT
ATOM      1  C   UNL     1      -3.146  -0.209  -1.278  0.00  0.00    -0.005 C 
ATOM      2  C   UNL     1      -2.171   0.678  -2.083  0.00  0.00    -0.073 C 
ATOM      3  N   UNL     1      -3.048   1.510  -2.946  0.00  0.00    +0.383 N 
ATOM      4  C   UNL     1      -4.199   1.856  -2.072  0.00  0.00    -0.070 C 
ATOM      5  C   UNL     1      -4.481   0.564  -1.271  0.00  0.00    +0.005 C 
ATOM      6  H   UNL     1      -3.360   0.982  -3.747  0.00  0.00    -0.081 HD
ENDROOT
BRANCH   5   7
ATOM      7  C   UNL     1      -4.883   0.901   0.142  0.00  0.00    -0.046 A 
ATOM      8  C   UNL     1      -4.233   1.915   0.821  0.00  0.00    +0.007 A 
ATOM      9  C   UNL     1      -4.600   2.226   2.117  0.00  0.00    +0.046 A 
ATOM     10  C   UNL     1      -5.621   1.519   2.736  0.00  0.00    +0.120 A 
ATOM     11  C   UNL     1      -6.271   0.502   2.052  0.00  0.00    +0.046 A 
ATOM     12  C   UNL     1      -5.905   0.199   0.755  0.00  0.00    +0.007 A 
BRANCH  10  13
ATOM     13  O   UNL     1      -5.982   1.822   4.010  0.00  0.00    -0.495 OA
ATOM     14  C   UNL     1      -7.042   1.054   4.584  0.00  0.00    +0.277 C 
ENDBRANCH  10  13
ENDBRANCH   5   7
BRANCH   1  15
ATOM     15  C   UNL     1      -2.634  -0.399   0.151  0.00  0.00    +0.110 C 
BRANCH  15  19
ATOM     16  C   UNL     1      -0.334   1.195   0.618  0.00  0.00    +0.109 C 
ATOM     17  C   UNL     1      -0.204  -0.265   0.269  0.00  0.00    +0.213 C 
ATOM     18  O   UNL     1       0.894  -0.759   0.125  0.00  0.00    -0.276 OA
ATOM     19  N   UNL     1      -1.309  -1.022   0.116  0.00  0.00    -0.297 N 
BRANCH  19  20
ATOM     20  C   UNL     1      -1.184  -2.468  -0.084  0.00  0.00    +0.142 C 
BRANCH  20  21
ATOM     21  C   UNL     1      -1.198  -3.163   1.253  0.00  0.00    -0.030 A 
ATOM     22  C   UNL     1      -0.013  -3.383   1.930  0.00  0.00    +0.008 A 
ATOM     23  C   UNL     1      -0.025  -4.020   3.156  0.00  0.00    +0.038 A 
ATOM     24  C   UNL     1      -1.224  -4.439   3.706  0.00  0.00    +0.123 A 
ATOM     25  C   UNL     1      -2.411  -4.219   3.027  0.00  0.00    +0.038 A 
ATOM     26  C   UNL     1      -2.397  -3.577   1.804  0.00  0.00    +0.008 A 
ATOM     27  F   UNL     1      -1.237  -5.063   4.905  0.00  0.00    -0.205 F 
ENDBRANCH  20  21
ENDBRANCH  19  20
ENDBRANCH  15  19
ENDBRANCH   1  15
BRANCH   3  28
ATOM     28  C   UNL     1      -2.344   2.727  -3.373  0.00  0.00    -0.039 C 
BRANCH  28  29
ATOM     29  C   UNL     1      -3.206   3.492  -4.343  0.00  0.00    -0.022 A 
ATOM     30  C   UNL     1      -2.974   3.390  -5.702  0.00  0.00    +0.009 A 
ATOM     31  C   UNL     1      -3.763   4.091  -6.594  0.00  0.00    +0.046 A 
ATOM     32  C   UNL     1      -4.790   4.899  -6.127  0.00  0.00    +0.124 A 
ATOM     33  C   UNL     1      -5.024   5.004  -4.765  0.00  0.00    +0.091 A 
ATOM     34  C   UNL     1      -4.234   4.295  -3.872  0.00  0.00    +0.122 A 
BRANCH  34  35
ATOM     35  O   UNL     1      -4.465   4.391  -2.536  0.00  0.00    -0.506 OA
ATOM     36  H   UNL     1      -3.976   5.103  -2.102  0.00  0.00    +0.292 HD
ENDBRANCH  34  35
BRANCH  32  37
ATOM     37  O   UNL     1      -5.565   5.589  -7.005  0.00  0.00    -0.495 OA
ATOM     38  C   UNL     1      -5.267   5.434  -8.394  0.00  0.00    +0.277 C 
ENDBRANCH  32  37
ENDBRANCH  28  29
ENDBRANCH   3  28
TORSDOF 10
