REMARK  Name = ZINC37536216
REMARK  9 active torsions:
REMARK  status: ('A' for Active; 'I' for Inactive)
REMARK    1  A    between atoms: C_1  and  C_2
REMARK    2  A    between atoms: C_2  and  C_4
REMARK    3  A    between atoms: C_2  and  C_10
REMARK    4  A    between atoms: C_4  and  C_5
REMARK    5  A    between atoms: C_5  and  C_6
REMARK    6  A    between atoms: N_8  and  N_9
REMARK    7  A    between atoms: C_16  and  C_35
REMARK    8  A    between atoms: C_27  and  C_34
REMARK    9  A    between atoms: C_30  and  O_33
REMARK                            x       y       z     vdW  Elec       q    Type
REMARK                         _______ _______ _______ _____ _____    ______ ____
ROOT
ATOM      1  C   UNL     1       0.648  -0.566  -1.265  0.00  0.00    -0.002 C 
ATOM      2  C   UNL     1      -0.139  -0.072  -2.493  0.00  0.00    +0.004 C 
ATOM      3  C   UNL     1      -0.734  -1.328  -3.171  0.00  0.00    +0.004 C 
ATOM      4  C   UNL     1      -0.778  -2.363  -2.032  0.00  0.00    -0.001 C 
ATOM      5  C   UNL     1       0.536  -2.114  -1.268  0.00  0.00    -0.026 C 
ATOM      6  C   UNL     1       1.733  -2.639  -2.065  0.00  0.00    +0.007 C 
ATOM      7  C   UNL     1       1.536  -4.107  -2.432  0.00  0.00    +0.005 C 
ATOM      8  C   UNL     1       0.301  -4.226  -3.332  0.00  0.00    -0.001 C 
ATOM      9  C   UNL     1      -0.908  -3.779  -2.538  0.00  0.00    -0.004 C 
ATOM     10  C   UNL     1      -2.151  -3.920  -3.420  0.00  0.00    +0.004 C 
ATOM     11  C   UNL     1      -2.308  -5.378  -3.852  0.00  0.00    +0.004 C 
ATOM     12  C   UNL     1      -1.071  -5.815  -4.639  0.00  0.00    -0.002 C 
ATOM     13  C   UNL     1       0.138  -5.681  -3.775  0.00  0.00    -0.026 C 
ATOM     14  C   UNL     1       1.368  -6.111  -4.577  0.00  0.00    +0.010 C 
ATOM     15  C   UNL     1       1.512  -5.215  -5.810  0.00  0.00    +0.032 C 
ATOM     16  C   UNL     1       0.262  -5.346  -6.683  0.00  0.00    +0.115 C 
ATOM     17  C   UNL     1      -0.916  -4.931  -5.878  0.00  0.00    +0.035 C 
ATOM     18  C   UNL     1      -0.005  -6.577  -2.543  0.00  0.00    +0.012 C 
ATOM     19  C   UNL     1       0.490  -2.688   0.150  0.00  0.00    +0.012 C 
ENDROOT
BRANCH   1  21
ATOM     20  C   UNL     1      -1.478  -0.236   0.007  0.00  0.00    +0.008 C 
ATOM     21  C   UNL     1       0.034   0.002   0.016  0.00  0.00    -0.010 C 
BRANCH  21  22
ATOM     22  C   UNL     1       0.313   1.505   0.092  0.00  0.00    +0.013 C 
BRANCH  22  23
ATOM     23  C   UNL     1      -0.207   2.054   1.422  0.00  0.00    +0.097 C 
BRANCH  23  24
ATOM     24  C   UNL     1       0.067   3.533   1.497  0.00  0.00    +0.226 C 
ATOM     25  O   UNL     1       0.624   4.094   0.577  0.00  0.00    -0.275 OA
ATOM     26  N   UNL     1      -0.306   4.234   2.586  0.00  0.00    -0.254 N 
ATOM     27  H   UNL     1      -0.751   3.785   3.322  0.00  0.00    +0.169 HD
BRANCH  26  28
ATOM     28  N   UNL     1      -0.057   5.575   2.654  0.00  0.00    -0.254 NA
ATOM     29  H   UNL     1      -0.391   5.962   3.524  0.00  0.00    +0.140 HD
ATOM     30  H   UNL     1       0.925   5.768   2.527  0.00  0.00    +0.140 HD
ENDBRANCH  26  28
ENDBRANCH  23  24
ENDBRANCH  22  23
ENDBRANCH  21  22
ENDBRANCH   1  21
BRANCH  16  31
ATOM     31  O   UNL     1       0.396  -4.509  -7.834  0.00  0.00    -0.392 OA
ATOM     32  H   UNL     1       1.157  -4.725  -8.390  0.00  0.00    +0.210 HD
ENDBRANCH  16  31
TORSDOF 6
