REMARK  Name = ZINC40009173
REMARK  9 active torsions:
REMARK  status: ('A' for Active; 'I' for Inactive)
REMARK    1  A    between atoms: C_1  and  C_2
REMARK    2  A    between atoms: C_7  and  C_8
REMARK    3  A    between atoms: C_14  and  C_27
REMARK    4  A    between atoms: C_22  and  C_24
REMARK    5  A    between atoms: C_24  and  C_25
REMARK    6  A    between atoms: C_24  and  C_26
REMARK    7  A    between atoms: C_31  and  O_33
REMARK    8  A    between atoms: O_33  and  C_34
REMARK    9  A    between atoms: C_34  and  C_35
REMARK                            x       y       z     vdW  Elec       q    Type
REMARK                         _______ _______ _______ _____ _____    ______ ____
ROOT
ATOM      1  C   UNL     1      -0.018   1.503   0.010  0.00  0.00    +0.044 C 
ATOM      2  C   UNL     1       0.002  -0.004   0.002  0.00  0.00    -0.047 A 
ATOM      3  C   UNL     1       0.006  -0.685  -1.195  0.00  0.00    +0.019 A 
ATOM      4  C   UNL     1       0.024  -2.080  -1.194  0.00  0.00    +0.065 A 
ATOM      5  C   UNL     1       0.033  -2.793   0.015  0.00  0.00    +0.140 A 
ATOM      6  C   UNL     1       0.033  -2.080   1.214  0.00  0.00    +0.050 A 
ATOM      7  C   UNL     1       0.023  -0.703   1.200  0.00  0.00    -0.044 A 
ATOM      8  C   UNL     1       0.029   0.053   2.503  0.00  0.00    +0.044 C 
ATOM      9  O   UNL     1       0.037  -4.145   0.057  0.00  0.00    -0.450 OA
ATOM     10  C   UNL     1       0.273  -4.846  -1.070  0.00  0.00    +0.199 A 
ATOM     11  C   UNL     1       0.280  -4.268  -2.309  0.00  0.00    +0.072 A 
ATOM     12  C   UNL     1       0.036  -2.832  -2.475  0.00  0.00    +0.199 A 
ATOM     13  O   UNL     1      -0.140  -2.306  -3.559  0.00  0.00    -0.287 OA
ATOM     14  C   UNL     1       0.566  -5.340  -3.309  0.00  0.00    +0.152 C 
ATOM     15  N   UNL     1       0.729  -6.580  -2.533  0.00  0.00    -0.230 N 
ATOM     16  C   UNL     1       0.557  -6.282  -1.229  0.00  0.00    +0.289 C 
ATOM     17  O   UNL     1       0.626  -7.082  -0.317  0.00  0.00    -0.266 OA
ATOM     18  C   UNL     1       1.010  -7.837  -3.052  0.00  0.00    +0.191 A 
ATOM     19  N   UNL     1       1.199  -8.218  -4.308  0.00  0.00    -0.125 NA
ATOM     20  N   UNL     1       1.450  -9.417  -4.609  0.00  0.00    -0.144 NA
ATOM     21  C   UNL     1       1.539 -10.366  -3.697  0.00  0.00    +0.106 A 
ATOM     22  S   UNL     1       1.229  -9.406  -2.217  0.00  0.00    -0.035 S 
ENDROOT
BRANCH  14  23
ATOM     23  C   UNL     1       1.834  -5.025  -4.060  0.00  0.00    -0.019 A 
ATOM     24  C   UNL     1       3.063  -5.299  -3.487  0.00  0.00    +0.006 A 
ATOM     25  C   UNL     1       4.228  -5.011  -4.174  0.00  0.00    +0.004 A 
ATOM     26  C   UNL     1       4.167  -4.449  -5.434  0.00  0.00    +0.045 A 
ATOM     27  C   UNL     1       2.936  -4.173  -6.011  0.00  0.00    +0.121 A 
ATOM     28  C   UNL     1       1.768  -4.468  -5.322  0.00  0.00    +0.051 A 
BRANCH  27  29
ATOM     29  O   UNL     1       2.874  -3.619  -7.251  0.00  0.00    -0.488 OA
BRANCH  29  30
ATOM     30  C   UNL     1       4.116  -3.348  -7.903  0.00  0.00    +0.256 C 
BRANCH  30  31
ATOM     31  C   UNL     1       3.850  -2.740  -9.256  0.00  0.00    +0.006 C 
ATOM     32  C   UNL     1       4.536  -1.696  -9.652  0.00  0.00    +0.007 C 
ENDBRANCH  30  31
ENDBRANCH  29  30
ENDBRANCH  27  29
ENDBRANCH  14  23
BRANCH  21  33
ATOM     33  C   UNL     1       1.825 -11.837  -3.854  0.00  0.00    +0.040 C 
ATOM     34  C   UNL     1       0.751 -12.474  -4.738  0.00  0.00    +0.014 C 
ATOM     35  C   UNL     1       3.197 -12.022  -4.506  0.00  0.00    +0.014 C 
ENDBRANCH  21  33
TORSDOF 5
