REMARK  Name = ZINC04154777
REMARK  4 active torsions:
REMARK  status: ('A' for Active; 'I' for Inactive)
REMARK    1  A    between atoms: C_1  and  C_2
REMARK    2  A    between atoms: C_4  and  C_19
REMARK    3  A    between atoms: N_8  and  N_9
REMARK    4  A    between atoms: C_10  and  C_11
REMARK                            x       y       z     vdW  Elec       q    Type
REMARK                         _______ _______ _______ _____ _____    ______ ____
ROOT
ATOM      1  C   UNL     1       2.496   1.091  -0.015  0.00  0.00    +0.066 C 
ATOM      2  C   UNL     1       1.167   1.800   0.001  0.00  0.00    +0.044 A 
ATOM      3  C   UNL     1      -0.013   1.076   0.008  0.00  0.00    +0.051 A 
ATOM      4  C   UNL     1      -1.223   1.774   0.017  0.00  0.00    +0.076 A 
ATOM      5  N   UNL     1      -1.199   3.105   0.029  0.00  0.00    -0.213 NA
ATOM      6  C   UNL     1      -0.048   3.759   0.022  0.00  0.00    +0.236 A 
ATOM      7  N   UNL     1       1.115   3.122   0.008  0.00  0.00    -0.218 NA
ATOM      8  N   UNL     1      -0.059   5.144   0.029  0.00  0.00    -0.205 N 
ATOM      9  H   UNL     1      -0.903   5.622   0.039  0.00  0.00    +0.177 HD
ENDROOT
BRANCH   4  10
ATOM     10  C   UNL     1      -2.514   1.044   0.020  0.00  0.00    +0.001 A 
ATOM     11  C   UNL     1      -2.529  -0.349   0.007  0.00  0.00    +0.010 A 
ATOM     12  C   UNL     1      -3.733  -1.024   0.015  0.00  0.00    +0.001 A 
ATOM     13  C   UNL     1      -4.923  -0.319   0.024  0.00  0.00    +0.000 A 
ATOM     14  C   UNL     1      -4.914   1.064   0.031  0.00  0.00    +0.001 A 
ATOM     15  C   UNL     1      -3.716   1.749   0.029  0.00  0.00    +0.010 A 
ENDBRANCH   4  10
BRANCH   8  16
ATOM     16  N   UNL     1       1.149   5.854   0.021  0.00  0.00    -0.187 NA
ATOM     17  C   UNL     1       1.139   7.151   0.028  0.00  0.00    +0.141 C 
BRANCH  17  18
ATOM     18  C   UNL     1       2.410   7.899   0.020  0.00  0.00    +0.031 A 
ATOM     19  C   UNL     1       3.628   7.213   0.011  0.00  0.00    +0.051 A 
ATOM     20  C   UNL     1       4.814   7.919  -0.002  0.00  0.00    +0.021 A 
ATOM     21  C   UNL     1       4.799   9.303   0.005  0.00  0.00    +0.003 A 
ATOM     22  C   UNL     1       3.598   9.989   0.020  0.00  0.00    +0.021 A 
ATOM     23  C   UNL     1       2.403   9.296   0.027  0.00  0.00    +0.051 A 
ATOM     24 CL   UNL     1       0.897  10.159   0.045  0.00  0.00    -0.083 Cl
ATOM     25 CL   UNL     1       3.649   5.477   0.009  0.00  0.00    -0.083 Cl
ENDBRANCH  17  18
ENDBRANCH   8  16
TORSDOF 3
