REMARK  Name = ZINC63666906
REMARK  7 active torsions:
REMARK  status: ('A' for Active; 'I' for Inactive)
REMARK    1  A    between atoms: C_6  and  C_10
REMARK    2  A    between atoms: C_10  and  C_11
REMARK    3  A    between atoms: C_11  and  C_12
REMARK    4  A    between atoms: C_12  and  N_13
REMARK    5  A    between atoms: C_14  and  C_16
REMARK    6  A    between atoms: N_19  and  C_22
REMARK    7  A    between atoms: C_26  and  N_29
REMARK                            x       y       z     vdW  Elec       q    Type
REMARK                         _______ _______ _______ _____ _____    ______ ____
ROOT
ATOM      1  N   UNL     1       3.934  -6.364  -2.926  0.00  0.00    -0.315 N 
ATOM      2  C   UNL     1       3.996  -7.223  -3.963  0.00  0.00    +0.216 C 
ATOM      3  O   UNL     1       4.524  -6.885  -5.001  0.00  0.00    -0.276 OA
ATOM      4  H   UNL     1       3.512  -6.635  -2.096  0.00  0.00    +0.149 HD
ENDROOT
BRANCH   2   5
ATOM      5  C   UNL     1       3.409  -8.605  -3.832  0.00  0.00    +0.077 C 
ATOM      6  C   UNL     1       4.112  -9.355  -2.697  0.00  0.00    +0.028 C 
ATOM      7  C   UNL     1       3.554 -10.777  -2.609  0.00  0.00    +0.088 C 
ATOM      8  N   UNL     1       3.772 -11.470  -3.886  0.00  0.00    -0.271 NA
ATOM      9  C   UNL     1       3.067 -10.795  -4.983  0.00  0.00    +0.088 C 
ATOM     10  C   UNL     1       3.610  -9.373  -5.142  0.00  0.00    +0.028 C 
BRANCH   8  11
ATOM     11  C   UNL     1       3.374 -12.881  -3.793  0.00  0.00    +0.260 C 
ATOM     12  N   UNL     1       1.903 -13.021  -3.697  0.00  0.00    -0.159 NA
ATOM     13  N   UNL     1       1.306 -13.805  -4.409  0.00  0.00    -0.156 NA
ATOM     14  C   UNL     1       2.035 -14.638  -5.393  0.00  0.00    +0.279 C 
ATOM     15  S   UNL     1       3.668 -13.769  -5.388  0.00  0.00    -0.069 S 
BRANCH  14  16
ATOM     16  N   UNL     1       2.166 -16.021  -4.927  0.00  0.00    -0.270 N 
ATOM     17  C   UNL     1       2.758 -16.247  -3.614  0.00  0.00    +0.111 C 
ATOM     18  C   UNL     1       2.395 -17.639  -3.096  0.00  0.00    +0.019 C 
ATOM     19  C   UNL     1       2.720 -18.669  -4.185  0.00  0.00    +0.011 C 
ATOM     20  C   UNL     1       1.764 -18.449  -5.359  0.00  0.00    +0.096 C 
ATOM     21  C   UNL     1       1.731 -16.994  -5.728  0.00  0.00    +0.218 C 
ATOM     22  O   UNL     1       1.289 -16.688  -6.816  0.00  0.00    -0.276 OA
ENDBRANCH  14  16
ENDBRANCH   8  11
ENDBRANCH   2   5
BRANCH   1  23
ATOM     23  C   UNL     1       4.505  -5.021  -3.054  0.00  0.00    +0.104 C 
BRANCH  23  24
ATOM     24  C   UNL     1       4.303  -4.255  -1.744  0.00  0.00    +0.022 C 
BRANCH  24  25
ATOM     25  C   UNL     1       4.899  -2.852  -1.877  0.00  0.00    +0.048 C 
BRANCH  25  31
ATOM     26  C   UNL     1       1.863   1.497  -0.061  0.00  0.00    +0.002 A 
ATOM     27  C   UNL     1       3.060   2.200  -0.287  0.00  0.00    +0.002 A 
ATOM     28  C   UNL     1       4.237   1.580  -0.502  0.00  0.00    +0.027 A 
ATOM     29  C   UNL     1       4.293   0.111  -0.505  0.00  0.00    +0.060 A 
ATOM     30  N   UNL     1       5.265  -0.737  -0.681  0.00  0.00    -0.363 N 
ATOM     31  C   UNL     1       4.697  -2.086  -0.568  0.00  0.00    +0.174 C 
ATOM     32  N   UNL     1       3.264  -1.912  -0.302  0.00  0.00    -0.363 N 
ATOM     33  C   UNL     1       3.026  -0.632  -0.265  0.00  0.00    +0.060 A 
ATOM     34  C   UNL     1       1.803   0.151  -0.042  0.00  0.00    +0.027 A 
ATOM     35  H   UNL     1       6.193  -0.518  -0.855  0.00  0.00    +0.162 HD
ATOM     36  H   UNL     1       2.612  -2.620  -0.178  0.00  0.00    +0.162 HD
ENDBRANCH  25  31
ENDBRANCH  24  25
ENDBRANCH  23  24
ENDBRANCH   1  23
TORSDOF 7
