REMARK  Name = ZINC43609296
REMARK  13 active torsions:
REMARK  status: ('A' for Active; 'I' for Inactive)
REMARK    1  A    between atoms: C_1  and  C_2
REMARK    2  A    between atoms: C_2  and  C_38
REMARK    3  A    between atoms: C_7  and  C_11
REMARK    4  A    between atoms: C_11  and  N_12
REMARK    5  A    between atoms: C_15  and  C_18
REMARK    6  A    between atoms: C_18  and  C_29
REMARK    7  A    between atoms: N_21  and  C_25
REMARK    8  A    between atoms: C_25  and  C_26
REMARK    9  A    between atoms: C_26  and  O_27
REMARK   10  A    between atoms: O_27  and  C_28
REMARK   11  A    between atoms: C_29  and  C_30
REMARK   12  A    between atoms: C_34  and  O_36
REMARK   13  A    between atoms: O_36  and  C_37
REMARK                            x       y       z     vdW  Elec       q    Type
REMARK                         _______ _______ _______ _____ _____    ______ ____
ROOT
ATOM      1  C   UNL     1       4.436  -3.519   6.225  0.00  0.00    +0.119 C 
ATOM      2  C   UNL     1       5.357  -4.128   5.187  0.00  0.00    +0.247 C 
ATOM      3  O   UNL     1       5.159  -5.126   4.528  0.00  0.00    -0.273 OA
ATOM      4  N   UNL     1       6.442  -3.329   5.149  0.00  0.00    -0.222 N 
ATOM      5  C   UNL     1       6.336  -2.311   6.009  0.00  0.00    +0.309 C 
ATOM      6  O   UNL     1       7.189  -1.458   6.155  0.00  0.00    -0.252 OA
ATOM      7  N   UNL     1       5.179  -2.336   6.695  0.00  0.00    -0.284 N 
ATOM      8  H   UNL     1       4.890  -1.700   7.368  0.00  0.00    +0.151 HD
ENDROOT
BRANCH   1  12
ATOM      9  N   UNL     1       1.353  -3.159   3.285  0.00  0.00    +0.382 N 
ATOM     10  C   UNL     1       2.052  -1.924   3.659  0.00  0.00    -0.078 C 
ATOM     11  C   UNL     1       3.381  -2.269   4.333  0.00  0.00    -0.013 C 
ATOM     12  C   UNL     1       3.108  -3.103   5.589  0.00  0.00    +0.018 C 
ATOM     13  C   UNL     1       2.314  -4.352   5.198  0.00  0.00    -0.013 C 
ATOM     14  C   UNL     1       1.025  -3.929   4.491  0.00  0.00    -0.078 C 
ATOM     15  H   UNL     1       1.948  -3.712   2.686  0.00  0.00    -0.081 HD
BRANCH   9  16
ATOM     16  C   UNL     1       0.116  -2.822   2.569  0.00  0.00    -0.047 C 
BRANCH  16  22
ATOM     17  C   UNL     1      -0.019   1.526   0.010  0.00  0.00    +0.012 C 
ATOM     18  C   UNL     1       0.002  -0.004   0.002  0.00  0.00    -0.025 C 
ATOM     19  C   UNL     1       1.147  -0.608  -0.837  0.00  0.00    -0.000 C 
ATOM     20  C   UNL     1       0.881  -2.091  -1.135  0.00  0.00    +0.031 C 
ATOM     21  C   UNL     1       0.545  -2.814   0.146  0.00  0.00    -0.029 C 
ATOM     22  C   UNL     1       0.457  -2.139   1.270  0.00  0.00    -0.086 C 
ATOM     23  C   UNL     1       0.726  -0.624   1.211  0.00  0.00    +0.019 C 
ATOM     24  C   UNL     1       2.024  -0.376   0.405  0.00  0.00    +0.012 C 
ATOM     25  C   UNL     1      -1.369  -0.620  -0.281  0.00  0.00    +0.012 C 
ENDBRANCH  16  22
ENDBRANCH   9  16
ENDBRANCH   1  12
BRANCH   4  26
ATOM     26  C   UNL     1       7.596  -3.550   4.273  0.00  0.00    +0.146 C 
BRANCH  26  27
ATOM     27  C   UNL     1       7.372  -2.827   2.943  0.00  0.00    +0.179 C 
BRANCH  27  28
ATOM     28  O   UNL     1       7.333  -1.417   3.168  0.00  0.00    -0.381 OA
ATOM     29  C   UNL     1       7.128  -0.644   1.984  0.00  0.00    +0.194 C 
ENDBRANCH  27  28
ENDBRANCH  26  27
ENDBRANCH   4  26
BRANCH   1  30
ATOM     30  C   UNL     1       4.196  -4.497   7.377  0.00  0.00    +0.070 C 
BRANCH  30  31
ATOM     31  C   UNL     1       5.504  -4.795   8.064  0.00  0.00    -0.041 A 
ATOM     32  C   UNL     1       6.287  -5.849   7.630  0.00  0.00    +0.004 A 
ATOM     33  C   UNL     1       7.487  -6.125   8.258  0.00  0.00    +0.004 A 
ATOM     34  C   UNL     1       7.908  -5.348   9.321  0.00  0.00    +0.045 A 
ATOM     35  C   UNL     1       7.124  -4.290   9.757  0.00  0.00    +0.120 A 
ATOM     36  C   UNL     1       5.923  -4.011   9.121  0.00  0.00    +0.049 A 
BRANCH  35  37
ATOM     37  O   UNL     1       7.535  -3.525  10.802  0.00  0.00    -0.495 OA
ATOM     38  C   UNL     1       8.785  -3.866  11.404  0.00  0.00    +0.277 C 
ENDBRANCH  35  37
ENDBRANCH  30  31
ENDBRANCH   1  30
TORSDOF 9
