REMARK  Name = ZINC19851125
REMARK  3 active torsions:
REMARK  status: ('A' for Active; 'I' for Inactive)
REMARK    1  A    between atoms: C_15  and  C_17
REMARK    2  A    between atoms: C_17  and  S_18
REMARK    3  A    between atoms: S_18  and  C_19
REMARK                            x       y       z     vdW  Elec       q    Type
REMARK                         _______ _______ _______ _____ _____    ______ ____
ROOT
ATOM      1  C   UNL     1      -0.017   1.378   0.010  0.00  0.00    +0.000 A 
ATOM      2  C   UNL     1       1.164   2.100   0.002  0.00  0.00    +0.001 A 
ATOM      3  C   UNL     1       2.375   1.434  -0.031  0.00  0.00    +0.010 A 
ATOM      4  C   UNL     1       2.392   0.048  -0.056  0.00  0.00    +0.004 A 
ATOM      5  C   UNL     1       1.207  -0.685  -0.013  0.00  0.00    -0.038 A 
ATOM      6  C   UNL     1       0.002  -0.004   0.002  0.00  0.00    +0.004 A 
ATOM      7  C   UNL     1       1.205  -2.188   0.066  0.00  0.00    +0.041 C 
ATOM      8  C   UNL     1       2.363  -2.802  -0.725  0.00  0.00    +0.049 C 
ATOM      9  C   UNL     1       3.610  -2.042  -0.448  0.00  0.00    +0.019 A 
ATOM     10  C   UNL     1       3.686  -0.702  -0.140  0.00  0.00    +0.084 A 
ATOM     11  N   UNL     1       4.900  -0.195   0.057  0.00  0.00    -0.224 NA
ATOM     12  H   UNL     1       8.023  -1.226   0.065  0.00  0.00    +0.157 HD
ATOM     13  C   UNL     1       5.991  -0.934  -0.022  0.00  0.00    +0.165 A 
ATOM     14  N   UNL     1       7.319  -0.565   0.156  0.00  0.00    -0.264 N 
ATOM     15  C   UNL     1       7.628   0.713   0.454  0.00  0.00    +0.229 C 
ATOM     16  O   UNL     1       6.748   1.540   0.567  0.00  0.00    -0.275 OA
ATOM     17  S   UNL     1       5.307  -2.540  -0.420  0.00  0.00    -0.056 S 
ENDROOT
BRANCH  15  18
ATOM     18  C   UNL     1       9.068   1.114   0.647  0.00  0.00    +0.172 C 
BRANCH  18  19
ATOM     19  S   UNL     1       9.155   2.884   1.034  0.00  0.00    -0.088 S 
BRANCH  19  20
ATOM     20  C   UNL     1      10.879   3.193   1.229  0.00  0.00    +0.160 A 
ATOM     21  N   UNL     1      11.896   2.359   1.118  0.00  0.00    -0.133 NA
ATOM     22  N   UNL     1      13.179   2.815   1.312  0.00  0.00    -0.125 NA
ATOM     23  C   UNL     1      13.387   4.083   1.608  0.00  0.00    +0.180 A 
ATOM     24  S   UNL     1      11.719   4.721   1.620  0.00  0.00    -0.025 S 
ATOM     25  N   UNL     1      14.586   4.748   1.842  0.00  0.00    -0.336 N 
ATOM     26  H   UNL     1      15.425   4.265   1.796  0.00  0.00    +0.144 HD
ATOM     27  H   UNL     1      14.582   5.695   2.051  0.00  0.00    +0.144 HD
ENDBRANCH  19  20
ENDBRANCH  18  19
ENDBRANCH  15  18
TORSDOF 3
