REMARK  Name = ZINC39664269
REMARK  8 active torsions:
REMARK  status: ('A' for Active; 'I' for Inactive)
REMARK    1  A    between atoms: C_4  and  C_7
REMARK    2  A    between atoms: C_7  and  C_8
REMARK    3  A    between atoms: C_8  and  C_9
REMARK    4  A    between atoms: C_13  and  C_22
REMARK    5  A    between atoms: N_24  and  C_25
REMARK    6  A    between atoms: C_25  and  C_26
REMARK    7  A    between atoms: C_26  and  C_28
REMARK    8  A    between atoms: C_26  and  N_34
REMARK                            x       y       z     vdW  Elec       q    Type
REMARK                         _______ _______ _______ _____ _____    ______ ____
ROOT
ATOM      1  C   UNL     1       6.223  -2.057   1.235  0.00  0.00    +0.216 C 
ATOM      2  O   UNL     1       6.799  -2.452   0.243  0.00  0.00    -0.276 OA
ATOM      3  N   UNL     1       6.698  -2.369   2.458  0.00  0.00    -0.300 N 
ATOM      4  C   UNL     1       6.134  -1.988   3.775  0.00  0.00    +0.121 C 
ATOM      5  C   UNL     1       6.317  -3.245   4.655  0.00  0.00    +0.100 C 
ATOM      6  C   UNL     1       7.478  -4.015   4.004  0.00  0.00    -0.004 C 
ATOM      7  C   UNL     1       7.897  -3.175   2.789  0.00  0.00    +0.115 C 
ATOM      8  C   UNL     1       8.640  -4.145   4.984  0.00  0.00    -0.010 C 
ATOM      9  C   UNL     1       9.760  -4.964   4.335  0.00  0.00    -0.082 C 
ATOM     10  N   UNL     1       9.249  -6.291   3.971  0.00  0.00    +0.379 N 
ATOM     11  C   UNL     1       8.194  -6.162   2.958  0.00  0.00    -0.082 C 
ATOM     12  C   UNL     1       7.009  -5.393   3.550  0.00  0.00    -0.010 C 
ATOM     13  H   UNL     1      10.003  -6.850   3.599  0.00  0.00    -0.086 HD
ATOM     14  H   UNL     1       8.873  -6.742   4.791  0.00  0.00    -0.086 HD
ENDROOT
BRANCH   5  15
ATOM     15  C   UNL     1       6.671  -2.850   6.066  0.00  0.00    +0.218 C 
ATOM     16  O   UNL     1       7.301  -1.835   6.271  0.00  0.00    -0.275 OA
ATOM     17  N   UNL     1       6.286  -3.626   7.099  0.00  0.00    -0.313 N 
ATOM     18  H   UNL     1       5.782  -4.438   6.935  0.00  0.00    +0.149 HD
BRANCH  17  19
ATOM     19  C   UNL     1       6.630  -3.242   8.470  0.00  0.00    +0.127 C 
BRANCH  19  20
ATOM     20  C   UNL     1       6.168  -4.335   9.437  0.00  0.00    +0.104 C 
BRANCH  20  21
ATOM     21  C   UNL     1       4.665  -4.439   9.395  0.00  0.00    -0.029 A 
ATOM     22  C   UNL     1       3.889  -3.534  10.094  0.00  0.00    +0.005 A 
ATOM     23  C   UNL     1       2.511  -3.630  10.055  0.00  0.00    +0.000 A 
ATOM     24  C   UNL     1       1.908  -4.631   9.317  0.00  0.00    +0.000 A 
ATOM     25  C   UNL     1       2.684  -5.537   8.618  0.00  0.00    +0.000 A 
ATOM     26  C   UNL     1       4.062  -5.438   8.653  0.00  0.00    +0.005 A 
ENDBRANCH  20  21
BRANCH  20  27
ATOM     27  N   UNL     1       6.597  -3.996  10.800  0.00  0.00    -0.290 NA
ATOM     28  C   UNL     1       8.054  -3.810  10.863  0.00  0.00    +0.113 C 
ATOM     29  C   UNL     1       8.450  -3.401  12.284  0.00  0.00    +0.175 C 
ATOM     30  O   UNL     1       7.991  -4.393  13.206  0.00  0.00    -0.377 OA
ATOM     31  C   UNL     1       6.576  -4.600  13.172  0.00  0.00    +0.175 C 
ATOM     32  C   UNL     1       6.161  -5.021  11.760  0.00  0.00    +0.113 C 
ENDBRANCH  20  27
ENDBRANCH  19  20
ENDBRANCH  17  19
ENDBRANCH   5  15
BRANCH   1  33
ATOM     33  C   UNL     1       4.978  -1.219   1.101  0.00  0.00    +0.100 C 
BRANCH  33  34
ATOM     34  C   UNL     1       4.659  -1.014  -0.381  0.00  0.00    +0.044 C 
BRANCH  34  38
ATOM     35  C   UNL     1       1.129   1.362  -0.763  0.00  0.00    +0.000 A 
ATOM     36  C   UNL     1       2.369   1.970  -0.707  0.00  0.00    +0.000 A 
ATOM     37  C   UNL     1       3.511   1.201  -0.583  0.00  0.00    +0.003 A 
ATOM     38  C   UNL     1       3.413  -0.176  -0.515  0.00  0.00    -0.047 A 
ATOM     39  C   UNL     1       2.173  -0.784  -0.570  0.00  0.00    +0.003 A 
ATOM     40  C   UNL     1       1.031  -0.015  -0.695  0.00  0.00    +0.000 A 
ENDBRANCH  34  38
ENDBRANCH  33  34
ENDBRANCH   1  33
TORSDOF 8
